MODEL 1
REMARK VINA RESULT:    -7.508      0.000      0.000
REMARK INTER + INTRA:         -11.467
REMARK INTER:                 -10.580
REMARK INTRA:                  -0.887
REMARK UNBOUND:                -0.887
REMARK  Name = 
REMARK  9 active torsions:
REMARK  status: ('A' for Active; 'I' for Inactive)
REMARK    1  A    between atoms: C_1  and  C_2
REMARK    2  A    between atoms: C_5  and  C_6
REMARK    3  A    between atoms: N_8  and  C_9
REMARK    4  A    between atoms: C_9  and  C_10
REMARK    5  A    between atoms: C_13  and  C_14
REMARK    6  A    between atoms: C_14  and  C_15
REMARK    7  A    between atoms: C_15  and  S_16
REMARK    8  A    between atoms: S_16  and  C_17
REMARK    9  A    between atoms: C_28  and  C_29
REMARK                            x       y       z     vdW  Elec       q    Type
REMARK                         _______ _______ _______ _____ _____    ______ ____
ROOT
ATOM      1  C   UNL     1      48.341   6.541  14.357  0.00  0.00    +0.000 C 
ENDROOT
BRANCH   1   2
ATOM      2  C   UNL     1      47.160   5.996  13.588  0.00  0.00    +0.000 A 
ATOM      3  C   UNL     1      46.606   6.724  12.528  0.00  0.00    +0.000 A 
ATOM      4  C   UNL     1      45.543   6.207  11.776  0.00  0.00    +0.000 A 
ATOM      5  C   UNL     1      45.007   4.947  12.072  0.00  0.00    +0.000 A 
ATOM      6  C   UNL     1      45.555   4.223  13.139  0.00  0.00    +0.000 A 
ATOM      7  C   UNL     1      46.612   4.743  13.895  0.00  0.00    +0.000 A 
BRANCH   5   8
ATOM      8  C   UNL     1      43.820   4.386  11.316  0.00  0.00    +0.000 C 
BRANCH   8   9
ATOM      9  C   UNL     1      44.216   3.384  10.231  0.00  0.00    +0.000 C 
BRANCH   9  10
ATOM     10  S   UNL     1      44.839   4.263   8.751  0.00  0.00    +0.000 S 
BRANCH  10  11
ATOM     11  C   UNL     1      45.833   3.025   7.937  0.00  0.00    +0.000 A 
ATOM     12  C   UNL     1      46.619   3.239   6.805  0.00  0.00    +0.000 A 
ATOM     13  C   UNL     1      47.365   2.193   6.261  0.00  0.00    +0.000 A 
ATOM     14  C   UNL     1      47.303   0.952   6.869  0.00  0.00    +0.000 A 
ATOM     15  N   UNL     1      46.554   0.692   7.959  0.00  0.00    +0.000 NA
ATOM     16  C   UNL     1      45.840   1.732   8.462  0.00  0.00    +0.000 A 
ENDBRANCH  10  11
ENDBRANCH   9  10
ENDBRANCH   8   9
ENDBRANCH   5   8
ENDBRANCH   1   2
BRANCH   1  19
ATOM     17  C   UNL     1      48.723   5.870  16.684  0.00  0.00    +0.000 C 
ATOM     18  O   UNL     1      49.488   4.965  16.357  0.00  0.00    +0.000 OA
ATOM     19  N   UNL     1      48.106   6.697  15.764  0.00  0.00    +0.000 N 
ATOM     20  H   UNL     1      47.468   7.411  16.119  0.00  0.00    +0.000 HD
BRANCH  17  25
ATOM     21  C   UNL     1      47.226  10.792  19.319  0.00  0.00    +0.000 C 
ATOM     22  C   UNL     1      47.501   9.339  19.355  0.00  0.00    +0.000 A 
ATOM     23  N   UNL     1      47.868   8.675  18.189  0.00  0.00    +0.000 NA
ATOM     24  C   UNL     1      48.033   7.433  18.585  0.00  0.00    +0.000 A 
ATOM     25  C   UNL     1      48.380   6.162  18.100  0.00  0.00    +0.000 C 
ATOM     26  C   UNL     1      48.319   5.359  19.195  0.00  0.00    +0.000 C 
ATOM     27  N   UNL     1      47.962   5.942  20.391  0.00  0.00    +0.000 NA
ATOM     28  N   UNL     1      47.792   7.293  19.910  0.00  0.00    +0.000 N 
ATOM     29  C   UNL     1      47.434   8.481  20.455  0.00  0.00    +0.000 A 
ATOM     30  C   UNL     1      47.093   8.707  21.867  0.00  0.00    +0.000 C 
ENDBRANCH  17  25
ENDBRANCH   1  19
TORSDOF 7
ENDMDL
MODEL 2
REMARK VINA RESULT:    -7.417      3.498      6.257
REMARK INTER + INTRA:         -11.339
REMARK INTER:                 -10.806
REMARK INTRA:                  -0.533
REMARK UNBOUND:                -0.887
REMARK  Name = 
REMARK  9 active torsions:
REMARK  status: ('A' for Active; 'I' for Inactive)
REMARK    1  A    between atoms: C_1  and  C_2
REMARK    2  A    between atoms: C_5  and  C_6
REMARK    3  A    between atoms: N_8  and  C_9
REMARK    4  A    between atoms: C_9  and  C_10
REMARK    5  A    between atoms: C_13  and  C_14
REMARK    6  A    between atoms: C_14  and  C_15
REMARK    7  A    between atoms: C_15  and  S_16
REMARK    8  A    between atoms: S_16  and  C_17
REMARK    9  A    between atoms: C_28  and  C_29
REMARK                            x       y       z     vdW  Elec       q    Type
REMARK                         _______ _______ _______ _____ _____    ______ ____
ROOT
ATOM      1  C   UNL     1      44.700   3.423  10.384  0.00  0.00    +0.000 C 
ENDROOT
BRANCH   1   2
ATOM      2  C   UNL     1      45.342   3.054   9.068  0.00  0.00    +0.000 A 
ATOM      3  C   UNL     1      45.635   4.042   8.119  0.00  0.00    +0.000 A 
ATOM      4  C   UNL     1      46.276   3.718   6.915  0.00  0.00    +0.000 A 
ATOM      5  C   UNL     1      46.634   2.393   6.633  0.00  0.00    +0.000 A 
ATOM      6  C   UNL     1      46.332   1.404   7.578  0.00  0.00    +0.000 A 
ATOM      7  C   UNL     1      45.686   1.727   8.777  0.00  0.00    +0.000 A 
BRANCH   5   8
ATOM      8  C   UNL     1      47.274   2.003   5.316  0.00  0.00    +0.000 C 
BRANCH   8   9
ATOM      9  C   UNL     1      47.308   0.492   5.087  0.00  0.00    +0.000 C 
BRANCH   9  10
ATOM     10  S   UNL     1      46.660   0.089   3.422  0.00  0.00    +0.000 S 
BRANCH  10  11
ATOM     11  C   UNL     1      47.024  -1.651   3.261  0.00  0.00    +0.000 A 
ATOM     12  C   UNL     1      46.458  -2.667   4.029  0.00  0.00    +0.000 A 
ATOM     13  C   UNL     1      46.812  -3.998   3.804  0.00  0.00    +0.000 A 
ATOM     14  C   UNL     1      47.731  -4.277   2.809  0.00  0.00    +0.000 A 
ATOM     15  N   UNL     1      48.312  -3.331   2.044  0.00  0.00    +0.000 NA
ATOM     16  C   UNL     1      47.945  -2.047   2.290  0.00  0.00    +0.000 A 
ENDBRANCH  10  11
ENDBRANCH   9  10
ENDBRANCH   8   9
ENDBRANCH   5   8
ENDBRANCH   1   2
BRANCH   1  19
ATOM     17  C   UNL     1      45.345   4.172  12.627  0.00  0.00    +0.000 C 
ATOM     18  O   UNL     1      44.441   3.534  13.162  0.00  0.00    +0.000 OA
ATOM     19  N   UNL     1      45.548   4.181  11.260  0.00  0.00    +0.000 N 
ATOM     20  H   UNL     1      46.310   4.755  10.896  0.00  0.00    +0.000 HD
BRANCH  17  25
ATOM     21  C   UNL     1      48.075   3.219  17.632  0.00  0.00    +0.000 C 
ATOM     22  C   UNL     1      47.789   4.074  16.459  0.00  0.00    +0.000 A 
ATOM     23  N   UNL     1      46.904   3.631  15.480  0.00  0.00    +0.000 NA
ATOM     24  C   UNL     1      46.888   4.620  14.615  0.00  0.00    +0.000 A 
ATOM     25  C   UNL     1      46.308   5.004  13.396  0.00  0.00    +0.000 C 
ATOM     26  C   UNL     1      46.829   6.235  13.151  0.00  0.00    +0.000 C 
ATOM     27  N   UNL     1      47.716   6.745  14.075  0.00  0.00    +0.000 NA
ATOM     28  N   UNL     1      47.702   5.633  14.997  0.00  0.00    +0.000 N 
ATOM     29  C   UNL     1      48.315   5.334  16.167  0.00  0.00    +0.000 A 
ATOM     30  C   UNL     1      49.272   6.195  16.878  0.00  0.00    +0.000 C 
ENDBRANCH  17  25
ENDBRANCH   1  19
TORSDOF 7
ENDMDL
MODEL 3
REMARK VINA RESULT:    -7.402      4.867     12.604
REMARK INTER + INTRA:         -11.319
REMARK INTER:                 -10.252
REMARK INTRA:                  -1.067
REMARK UNBOUND:                -0.887
REMARK  Name = 
REMARK  9 active torsions:
REMARK  status: ('A' for Active; 'I' for Inactive)
REMARK    1  A    between atoms: C_1  and  C_2
REMARK    2  A    between atoms: C_5  and  C_6
REMARK    3  A    between atoms: N_8  and  C_9
REMARK    4  A    between atoms: C_9  and  C_10
REMARK    5  A    between atoms: C_13  and  C_14
REMARK    6  A    between atoms: C_14  and  C_15
REMARK    7  A    between atoms: C_15  and  S_16
REMARK    8  A    between atoms: S_16  and  C_17
REMARK    9  A    between atoms: C_28  and  C_29
REMARK                            x       y       z     vdW  Elec       q    Type
REMARK                         _______ _______ _______ _____ _____    ______ ____
ROOT
ATOM      1  C   UNL     1      46.820   3.306   6.436  0.00  0.00    +0.000 C 
ENDROOT
BRANCH   1   2
ATOM      2  C   UNL     1      45.953   3.256   7.671  0.00  0.00    +0.000 A 
ATOM      3  C   UNL     1      45.563   2.026   8.216  0.00  0.00    +0.000 A 
ATOM      4  C   UNL     1      44.801   1.966   9.390  0.00  0.00    +0.000 A 
ATOM      5  C   UNL     1      44.407   3.140  10.045  0.00  0.00    +0.000 A 
ATOM      6  C   UNL     1      44.789   4.371   9.494  0.00  0.00    +0.000 A 
ATOM      7  C   UNL     1      45.544   4.431   8.318  0.00  0.00    +0.000 A 
BRANCH   5   8
ATOM      8  C   UNL     1      43.534   3.110  11.282  0.00  0.00    +0.000 C 
BRANCH   8   9
ATOM      9  C   UNL     1      42.906   4.465  11.610  0.00  0.00    +0.000 C 
BRANCH   9  10
ATOM     10  S   UNL     1      43.372   4.986  13.303  0.00  0.00    +0.000 S 
BRANCH  10  11
ATOM     11  C   UNL     1      45.052   5.551  13.101  0.00  0.00    +0.000 A 
ATOM     12  C   UNL     1      45.433   6.747  12.492  0.00  0.00    +0.000 A 
ATOM     13  C   UNL     1      46.782   7.090  12.401  0.00  0.00    +0.000 A 
ATOM     14  C   UNL     1      47.721   6.220  12.926  0.00  0.00    +0.000 A 
ATOM     15  N   UNL     1      47.405   5.051  13.517  0.00  0.00    +0.000 NA
ATOM     16  C   UNL     1      46.084   4.748  13.589  0.00  0.00    +0.000 A 
ENDBRANCH  10  11
ENDBRANCH   9  10
ENDBRANCH   8   9
ENDBRANCH   5   8
ENDBRANCH   1   2
BRANCH   1  19
ATOM     17  C   UNL     1      47.349   1.317   5.104  0.00  0.00    +0.000 C 
ATOM     18  O   UNL     1      48.452   1.188   5.630  0.00  0.00    +0.000 OA
ATOM     19  N   UNL     1      46.476   2.337   5.435  0.00  0.00    +0.000 N 
ATOM     20  H   UNL     1      45.587   2.383   4.935  0.00  0.00    +0.000 HD
BRANCH  17  25
ATOM     21  C   UNL     1      46.608  -4.415   5.086  0.00  0.00    +0.000 C 
ATOM     22  C   UNL     1      46.527  -3.099   4.413  0.00  0.00    +0.000 A 
ATOM     23  N   UNL     1      46.924  -1.951   5.091  0.00  0.00    +0.000 NA
ATOM     24  C   UNL     1      46.725  -0.995   4.212  0.00  0.00    +0.000 A 
ATOM     25  C   UNL     1      46.845   0.394   4.054  0.00  0.00    +0.000 C 
ATOM     26  C   UNL     1      46.411   0.625   2.786  0.00  0.00    +0.000 C 
ATOM     27  N   UNL     1      45.999  -0.464   2.048  0.00  0.00    +0.000 NA
ATOM     28  N   UNL     1      46.233  -1.480   3.047  0.00  0.00    +0.000 N 
ATOM     29  C   UNL     1      46.074  -2.824   3.121  0.00  0.00    +0.000 A 
ATOM     30  C   UNL     1      45.557  -3.686   2.049  0.00  0.00    +0.000 C 
ENDBRANCH  17  25
ENDBRANCH   1  19
TORSDOF 7
ENDMDL
MODEL 4
REMARK VINA RESULT:    -7.296      1.735      2.759
REMARK INTER + INTRA:         -11.169
REMARK INTER:                 -10.293
REMARK INTRA:                  -0.876
REMARK UNBOUND:                -0.887
REMARK  Name = 
REMARK  9 active torsions:
REMARK  status: ('A' for Active; 'I' for Inactive)
REMARK    1  A    between atoms: C_1  and  C_2
REMARK    2  A    between atoms: C_5  and  C_6
REMARK    3  A    between atoms: N_8  and  C_9
REMARK    4  A    between atoms: C_9  and  C_10
REMARK    5  A    between atoms: C_13  and  C_14
REMARK    6  A    between atoms: C_14  and  C_15
REMARK    7  A    between atoms: C_15  and  S_16
REMARK    8  A    between atoms: S_16  and  C_17
REMARK    9  A    between atoms: C_28  and  C_29
REMARK                            x       y       z     vdW  Elec       q    Type
REMARK                         _______ _______ _______ _____ _____    ______ ____
ROOT
ATOM      1  C   UNL     1      47.727   7.517  13.513  0.00  0.00    +0.000 C 
ENDROOT
BRANCH   1   2
ATOM      2  C   UNL     1      46.653   6.657  12.890  0.00  0.00    +0.000 A 
ATOM      3  C   UNL     1      46.630   5.275  13.116  0.00  0.00    +0.000 A 
ATOM      4  C   UNL     1      45.611   4.475  12.584  0.00  0.00    +0.000 A 
ATOM      5  C   UNL     1      44.591   5.041  11.808  0.00  0.00    +0.000 A 
ATOM      6  C   UNL     1      44.620   6.422  11.574  0.00  0.00    +0.000 A 
ATOM      7  C   UNL     1      45.642   7.221  12.099  0.00  0.00    +0.000 A 
BRANCH   5   8
ATOM      8  C   UNL     1      43.509   4.194  11.171  0.00  0.00    +0.000 C 
BRANCH   8   9
ATOM      9  C   UNL     1      44.042   3.233  10.109  0.00  0.00    +0.000 C 
BRANCH   9  10
ATOM     10  S   UNL     1      44.730   4.169   8.693  0.00  0.00    +0.000 S 
BRANCH  10  11
ATOM     11  C   UNL     1      45.811   2.982   7.914  0.00  0.00    +0.000 A 
ATOM     12  C   UNL     1      46.640   3.241   6.823  0.00  0.00    +0.000 A 
ATOM     13  C   UNL     1      47.453   2.233   6.304  0.00  0.00    +0.000 A 
ATOM     14  C   UNL     1      47.413   0.983   6.895  0.00  0.00    +0.000 A 
ATOM     15  N   UNL     1      46.625   0.680   7.945  0.00  0.00    +0.000 NA
ATOM     16  C   UNL     1      45.847   1.684   8.426  0.00  0.00    +0.000 A 
ENDBRANCH  10  11
ENDBRANCH   9  10
ENDBRANCH   8   9
ENDBRANCH   5   8
ENDBRANCH   1   2
BRANCH   1  19
ATOM     17  C   UNL     1      48.831   8.025  15.642  0.00  0.00    +0.000 C 
ATOM     18  O   UNL     1      49.406   9.006  15.175  0.00  0.00    +0.000 OA
ATOM     19  N   UNL     1      47.986   7.227  14.894  0.00  0.00    +0.000 N 
ATOM     20  H   UNL     1      47.565   6.418  15.355  0.00  0.00    +0.000 HD
BRANCH  17  25
ATOM     21  C   UNL     1      48.028   2.901  18.194  0.00  0.00    +0.000 C 
ATOM     22  C   UNL     1      48.403   4.331  18.256  0.00  0.00    +0.000 A 
ATOM     23  N   UNL     1      48.376   5.104  17.100  0.00  0.00    +0.000 NA
ATOM     24  C   UNL     1      48.753   6.291  17.518  0.00  0.00    +0.000 A 
ATOM     25  C   UNL     1      48.993   7.594  17.055  0.00  0.00    +0.000 C 
ATOM     26  C   UNL     1      49.375   8.279  18.166  0.00  0.00    +0.000 C 
ATOM     27  N   UNL     1      49.427   7.582  19.354  0.00  0.00    +0.000 NA
ATOM     28  N   UNL     1      49.009   6.295  18.848  0.00  0.00    +0.000 N 
ATOM     29  C   UNL     1      48.813   5.062  19.374  0.00  0.00    +0.000 A 
ATOM     30  C   UNL     1      49.001   4.691  20.784  0.00  0.00    +0.000 C 
ENDBRANCH  17  25
ENDBRANCH   1  19
TORSDOF 7
ENDMDL
MODEL 5
REMARK VINA RESULT:    -7.209      2.904      3.456
REMARK INTER + INTRA:         -11.046
REMARK INTER:                 -10.040
REMARK INTRA:                  -1.006
REMARK UNBOUND:                -0.887
REMARK  Name = 
REMARK  9 active torsions:
REMARK  status: ('A' for Active; 'I' for Inactive)
REMARK    1  A    between atoms: C_1  and  C_2
REMARK    2  A    between atoms: C_5  and  C_6
REMARK    3  A    between atoms: N_8  and  C_9
REMARK    4  A    between atoms: C_9  and  C_10
REMARK    5  A    between atoms: C_13  and  C_14
REMARK    6  A    between atoms: C_14  and  C_15
REMARK    7  A    between atoms: C_15  and  S_16
REMARK    8  A    between atoms: S_16  and  C_17
REMARK    9  A    between atoms: C_28  and  C_29
REMARK                            x       y       z     vdW  Elec       q    Type
REMARK                         _______ _______ _______ _____ _____    ______ ____
ROOT
ATOM      1  C   UNL     1      46.668   8.131  13.324  0.00  0.00    +0.000 C 
ENDROOT
BRANCH   1   2
ATOM      2  C   UNL     1      45.840   7.007  12.747  0.00  0.00    +0.000 A 
ATOM      3  C   UNL     1      44.701   7.285  11.982  0.00  0.00    +0.000 A 
ATOM      4  C   UNL     1      43.954   6.253  11.399  0.00  0.00    +0.000 A 
ATOM      5  C   UNL     1      44.329   4.914  11.575  0.00  0.00    +0.000 A 
ATOM      6  C   UNL     1      45.463   4.636  12.349  0.00  0.00    +0.000 A 
ATOM      7  C   UNL     1      46.206   5.667  12.936  0.00  0.00    +0.000 A 
BRANCH   5   8
ATOM      8  C   UNL     1      43.509   3.774  11.008  0.00  0.00    +0.000 C 
BRANCH   8   9
ATOM      9  C   UNL     1      44.284   2.912  10.011  0.00  0.00    +0.000 C 
BRANCH   9  10
ATOM     10  S   UNL     1      44.765   3.908   8.551  0.00  0.00    +0.000 S 
BRANCH  10  11
ATOM     11  C   UNL     1      45.905   2.837   7.693  0.00  0.00    +0.000 A 
ATOM     12  C   UNL     1      46.271   1.555   8.104  0.00  0.00    +0.000 A 
ATOM     13  C   UNL     1      47.167   0.803   7.342  0.00  0.00    +0.000 A 
ATOM     14  C   UNL     1      47.676   1.359   6.183  0.00  0.00    +0.000 A 
ATOM     15  N   UNL     1      47.360   2.595   5.748  0.00  0.00    +0.000 NA
ATOM     16  C   UNL     1      46.486   3.299   6.512  0.00  0.00    +0.000 A 
ENDBRANCH  10  11
ENDBRANCH   9  10
ENDBRANCH   8   9
ENDBRANCH   5   8
ENDBRANCH   1   2
BRANCH   1  19
ATOM     17  C   UNL     1      48.984   7.759  14.036  0.00  0.00    +0.000 C 
ATOM     18  O   UNL     1      49.437   8.149  12.962  0.00  0.00    +0.000 OA
ATOM     19  N   UNL     1      47.629   7.711  14.304  0.00  0.00    +0.000 N 
ATOM     20  H   UNL     1      47.337   7.355  15.215  0.00  0.00    +0.000 HD
BRANCH  17  25
ATOM     21  C   UNL     1      48.287   3.518  17.900  0.00  0.00    +0.000 C 
ATOM     22  C   UNL     1      49.079   4.631  17.332  0.00  0.00    +0.000 A 
ATOM     23  N   UNL     1      48.590   5.341  16.240  0.00  0.00    +0.000 NA
ATOM     24  C   UNL     1      49.527   6.233  16.013  0.00  0.00    +0.000 A 
ATOM     25  C   UNL     1      49.848   7.295  15.153  0.00  0.00    +0.000 C 
ATOM     26  C   UNL     1      51.056   7.732  15.597  0.00  0.00    +0.000 C 
ATOM     27  N   UNL     1      51.609   7.078  16.678  0.00  0.00    +0.000 NA
ATOM     28  N   UNL     1      50.553   6.116  16.889  0.00  0.00    +0.000 N 
ATOM     29  C   UNL     1      50.327   5.097  17.752  0.00  0.00    +0.000 A 
ATOM     30  C   UNL     1      51.228   4.674  18.835  0.00  0.00    +0.000 C 
ENDBRANCH  17  25
ENDBRANCH   1  19
TORSDOF 7
ENDMDL
MODEL 6
REMARK VINA RESULT:    -7.107      2.741      3.620
REMARK INTER + INTRA:         -10.902
REMARK INTER:                  -9.561
REMARK INTRA:                  -1.340
REMARK UNBOUND:                -0.887
REMARK  Name = 
REMARK  9 active torsions:
REMARK  status: ('A' for Active; 'I' for Inactive)
REMARK    1  A    between atoms: C_1  and  C_2
REMARK    2  A    between atoms: C_5  and  C_6
REMARK    3  A    between atoms: N_8  and  C_9
REMARK    4  A    between atoms: C_9  and  C_10
REMARK    5  A    between atoms: C_13  and  C_14
REMARK    6  A    between atoms: C_14  and  C_15
REMARK    7  A    between atoms: C_15  and  S_16
REMARK    8  A    between atoms: S_16  and  C_17
REMARK    9  A    between atoms: C_28  and  C_29
REMARK                            x       y       z     vdW  Elec       q    Type
REMARK                         _______ _______ _______ _____ _____    ______ ____
ROOT
ATOM      1  C   UNL     1      48.741   7.257  13.159  0.00  0.00    +0.000 C 
ENDROOT
BRANCH   1   2
ATOM      2  C   UNL     1      47.334   6.709  13.122  0.00  0.00    +0.000 A 
ATOM      3  C   UNL     1      46.315   7.413  12.467  0.00  0.00    +0.000 A 
ATOM      4  C   UNL     1      45.017   6.890  12.383  0.00  0.00    +0.000 A 
ATOM      5  C   UNL     1      44.709   5.650  12.958  0.00  0.00    +0.000 A 
ATOM      6  C   UNL     1      45.726   4.951  13.621  0.00  0.00    +0.000 A 
ATOM      7  C   UNL     1      47.021   5.476  13.711  0.00  0.00    +0.000 A 
BRANCH   5   8
ATOM      8  C   UNL     1      43.303   5.087  12.934  0.00  0.00    +0.000 C 
BRANCH   8   9
ATOM      9  C   UNL     1      42.881   4.577  11.556  0.00  0.00    +0.000 C 
BRANCH   9  10
ATOM     10  S   UNL     1      43.580   2.912  11.254  0.00  0.00    +0.000 S 
BRANCH  10  11
ATOM     11  C   UNL     1      44.633   3.169   9.837  0.00  0.00    +0.000 A 
ATOM     12  C   UNL     1      45.021   4.412   9.336  0.00  0.00    +0.000 A 
ATOM     13  C   UNL     1      45.861   4.490   8.225  0.00  0.00    +0.000 A 
ATOM     14  C   UNL     1      46.292   3.313   7.640  0.00  0.00    +0.000 A 
ATOM     15  N   UNL     1      45.941   2.089   8.081  0.00  0.00    +0.000 NA
ATOM     16  C   UNL     1      45.123   2.049   9.164  0.00  0.00    +0.000 A 
ENDBRANCH  10  11
ENDBRANCH   9  10
ENDBRANCH   8   9
ENDBRANCH   5   8
ENDBRANCH   1   2
BRANCH   1  19
ATOM     17  C   UNL     1      49.347   7.781  15.476  0.00  0.00    +0.000 C 
ATOM     18  O   UNL     1      48.652   8.795  15.488  0.00  0.00    +0.000 OA
ATOM     19  N   UNL     1      49.455   6.962  14.368  0.00  0.00    +0.000 N 
ATOM     20  H   UNL     1      50.071   6.150  14.435  0.00  0.00    +0.000 HD
BRANCH  17  25
ATOM     21  C   UNL     1      50.409   2.515  17.609  0.00  0.00    +0.000 C 
ATOM     22  C   UNL     1      50.573   3.985  17.655  0.00  0.00    +0.000 A 
ATOM     23  N   UNL     1      49.955   4.780  16.694  0.00  0.00    +0.000 NA
ATOM     24  C   UNL     1      50.305   5.999  17.037  0.00  0.00    +0.000 A 
ATOM     25  C   UNL     1      50.145   7.338  16.648  0.00  0.00    +0.000 C 
ATOM     26  C   UNL     1      50.860   8.041  17.567  0.00  0.00    +0.000 C 
ATOM     27  N   UNL     1      51.503   7.324  18.553  0.00  0.00    +0.000 NA
ATOM     28  N   UNL     1      51.093   6.003  18.138  0.00  0.00    +0.000 N 
ATOM     29  C   UNL     1      51.309   4.738  18.572  0.00  0.00    +0.000 A 
ATOM     30  C   UNL     1      52.122   4.358  19.737  0.00  0.00    +0.000 C 
ENDBRANCH  17  25
ENDBRANCH   1  19
TORSDOF 7
ENDMDL
MODEL 7
REMARK VINA RESULT:    -7.090      3.758      6.246
REMARK INTER + INTRA:         -10.878
REMARK INTER:                 -10.130
REMARK INTRA:                  -0.748
REMARK UNBOUND:                -0.887
REMARK  Name = 
REMARK  9 active torsions:
REMARK  status: ('A' for Active; 'I' for Inactive)
REMARK    1  A    between atoms: C_1  and  C_2
REMARK    2  A    between atoms: C_5  and  C_6
REMARK    3  A    between atoms: N_8  and  C_9
REMARK    4  A    between atoms: C_9  and  C_10
REMARK    5  A    between atoms: C_13  and  C_14
REMARK    6  A    between atoms: C_14  and  C_15
REMARK    7  A    between atoms: C_15  and  S_16
REMARK    8  A    between atoms: S_16  and  C_17
REMARK    9  A    between atoms: C_28  and  C_29
REMARK                            x       y       z     vdW  Elec       q    Type
REMARK                         _______ _______ _______ _____ _____    ______ ____
ROOT
ATOM      1  C   UNL     1      44.699   3.610  10.305  0.00  0.00    +0.000 C 
ENDROOT
BRANCH   1   2
ATOM      2  C   UNL     1      45.376   3.193   9.021  0.00  0.00    +0.000 A 
ATOM      3  C   UNL     1      45.717   4.149   8.055  0.00  0.00    +0.000 A 
ATOM      4  C   UNL     1      46.390   3.782   6.883  0.00  0.00    +0.000 A 
ATOM      5  C   UNL     1      46.734   2.444   6.648  0.00  0.00    +0.000 A 
ATOM      6  C   UNL     1      46.385   1.487   7.609  0.00  0.00    +0.000 A 
ATOM      7  C   UNL     1      45.706   1.853   8.777  0.00  0.00    +0.000 A 
BRANCH   5   8
ATOM      8  C   UNL     1      47.409   2.007   5.364  0.00  0.00    +0.000 C 
BRANCH   8   9
ATOM      9  C   UNL     1      47.323   0.500   5.120  0.00  0.00    +0.000 C 
BRANCH   9  10
ATOM     10  S   UNL     1      46.624   0.165   3.461  0.00  0.00    +0.000 S 
BRANCH  10  11
ATOM     11  C   UNL     1      47.090  -1.531   3.164  0.00  0.00    +0.000 A 
ATOM     12  C   UNL     1      47.961  -1.964   2.165  0.00  0.00    +0.000 A 
ATOM     13  C   UNL     1      48.262  -3.321   2.035  0.00  0.00    +0.000 A 
ATOM     14  C   UNL     1      47.677  -4.213   2.915  0.00  0.00    +0.000 A 
ATOM     15  N   UNL     1      46.825  -3.846   3.892  0.00  0.00    +0.000 NA
ATOM     16  C   UNL     1      46.554  -2.519   3.991  0.00  0.00    +0.000 A 
ENDBRANCH  10  11
ENDBRANCH   9  10
ENDBRANCH   8   9
ENDBRANCH   5   8
ENDBRANCH   1   2
BRANCH   1  19
ATOM     17  C   UNL     1      45.391   4.233  12.573  0.00  0.00    +0.000 C 
ATOM     18  O   UNL     1      44.538   3.515  13.091  0.00  0.00    +0.000 OA
ATOM     19  N   UNL     1      45.542   4.346  11.203  0.00  0.00    +0.000 N 
ATOM     20  H   UNL     1      46.262   4.980  10.855  0.00  0.00    +0.000 HD
BRANCH  17  25
ATOM     21  C   UNL     1      46.890   9.801  12.168  0.00  0.00    +0.000 C 
ATOM     22  C   UNL     1      47.003   8.476  12.818  0.00  0.00    +0.000 A 
ATOM     23  N   UNL     1      46.247   7.408  12.345  0.00  0.00    +0.000 NA
ATOM     24  C   UNL     1      46.595   6.416  13.134  0.00  0.00    +0.000 A 
ATOM     25  C   UNL     1      46.342   5.055  13.365  0.00  0.00    +0.000 C 
ATOM     26  C   UNL     1      47.141   4.740  14.419  0.00  0.00    +0.000 C 
ATOM     27  N   UNL     1      47.923   5.746  14.945  0.00  0.00    +0.000 NA
ATOM     28  N   UNL     1      47.509   6.805  14.055  0.00  0.00    +0.000 N 
ATOM     29  C   UNL     1      47.801   8.120  13.908  0.00  0.00    +0.000 A 
ATOM     30  C   UNL     1      48.745   8.886  14.734  0.00  0.00    +0.000 C 
ENDBRANCH  17  25
ENDBRANCH   1  19
TORSDOF 7
ENDMDL
MODEL 8
REMARK VINA RESULT:    -6.777      3.531      9.494
REMARK INTER + INTRA:         -10.437
REMARK INTER:                  -9.190
REMARK INTRA:                  -1.247
REMARK UNBOUND:                -0.887
REMARK  Name = 
REMARK  9 active torsions:
REMARK  status: ('A' for Active; 'I' for Inactive)
REMARK    1  A    between atoms: C_1  and  C_2
REMARK    2  A    between atoms: C_5  and  C_6
REMARK    3  A    between atoms: N_8  and  C_9
REMARK    4  A    between atoms: C_9  and  C_10
REMARK    5  A    between atoms: C_13  and  C_14
REMARK    6  A    between atoms: C_14  and  C_15
REMARK    7  A    between atoms: C_15  and  S_16
REMARK    8  A    between atoms: S_16  and  C_17
REMARK    9  A    between atoms: C_28  and  C_29
REMARK                            x       y       z     vdW  Elec       q    Type
REMARK                         _______ _______ _______ _____ _____    ______ ____
ROOT
ATOM      1  C   UNL     1      47.045   8.040  12.181  0.00  0.00    +0.000 C 
ENDROOT
BRANCH   1   2
ATOM      2  C   UNL     1      47.701   7.999  13.541  0.00  0.00    +0.000 A 
ATOM      3  C   UNL     1      47.770   9.153  14.331  0.00  0.00    +0.000 A 
ATOM      4  C   UNL     1      48.331   9.116  15.615  0.00  0.00    +0.000 A 
ATOM      5  C   UNL     1      48.842   7.919  16.135  0.00  0.00    +0.000 A 
ATOM      6  C   UNL     1      48.781   6.767  15.341  0.00  0.00    +0.000 A 
ATOM      7  C   UNL     1      48.227   6.806  14.056  0.00  0.00    +0.000 A 
BRANCH   5   8
ATOM      8  C   UNL     1      49.507   7.860  17.494  0.00  0.00    +0.000 C 
BRANCH   8   9
ATOM      9  C   UNL     1      48.514   7.704  18.646  0.00  0.00    +0.000 C 
BRANCH   9  10
ATOM     10  S   UNL     1      48.916   6.217  19.635  0.00  0.00    +0.000 S 
BRANCH  10  11
ATOM     11  C   UNL     1      48.580   4.879  18.504  0.00  0.00    +0.000 A 
ATOM     12  C   UNL     1      49.521   3.961  18.039  0.00  0.00    +0.000 A 
ATOM     13  C   UNL     1      49.138   2.946  17.162  0.00  0.00    +0.000 A 
ATOM     14  C   UNL     1      47.814   2.878  16.770  0.00  0.00    +0.000 A 
ATOM     15  N   UNL     1      46.868   3.744  17.184  0.00  0.00    +0.000 NA
ATOM     16  C   UNL     1      47.275   4.719  18.037  0.00  0.00    +0.000 A 
ENDBRANCH  10  11
ENDBRANCH   9  10
ENDBRANCH   8   9
ENDBRANCH   5   8
ENDBRANCH   1   2
BRANCH   1  19
ATOM     17  C   UNL     1      45.104   6.721  11.473  0.00  0.00    +0.000 C 
ATOM     18  O   UNL     1      44.350   7.690  11.538  0.00  0.00    +0.000 OA
ATOM     19  N   UNL     1      46.450   6.798  11.777  0.00  0.00    +0.000 N 
ATOM     20  H   UNL     1      47.001   5.941  11.717  0.00  0.00    +0.000 HD
BRANCH  17  25
ATOM     21  C   UNL     1      46.415   3.446   6.894  0.00  0.00    +0.000 C 
ATOM     22  C   UNL     1      45.681   3.662   8.161  0.00  0.00    +0.000 A 
ATOM     23  N   UNL     1      45.850   4.850   8.864  0.00  0.00    +0.000 NA
ATOM     24  C   UNL     1      45.064   4.702   9.907  0.00  0.00    +0.000 A 
ATOM     25  C   UNL     1      44.642   5.367  11.068  0.00  0.00    +0.000 C 
ATOM     26  C   UNL     1      43.773   4.500  11.653  0.00  0.00    +0.000 C 
ATOM     27  N   UNL     1      43.552   3.298  11.017  0.00  0.00    +0.000 NA
ATOM     28  N   UNL     1      44.429   3.506   9.888  0.00  0.00    +0.000 N 
ATOM     29  C   UNL     1      44.794   2.791   8.798  0.00  0.00    +0.000 A 
ATOM     30  C   UNL     1      44.311   1.445   8.454  0.00  0.00    +0.000 C 
ENDBRANCH  17  25
ENDBRANCH   1  19
TORSDOF 7
ENDMDL
MODEL 9
REMARK VINA RESULT:    -6.760      4.337      6.849
REMARK INTER + INTRA:         -10.413
REMARK INTER:                  -9.342
REMARK INTRA:                  -1.072
REMARK UNBOUND:                -0.887
REMARK  Name = 
REMARK  9 active torsions:
REMARK  status: ('A' for Active; 'I' for Inactive)
REMARK    1  A    between atoms: C_1  and  C_2
REMARK    2  A    between atoms: C_5  and  C_6
REMARK    3  A    between atoms: N_8  and  C_9
REMARK    4  A    between atoms: C_9  and  C_10
REMARK    5  A    between atoms: C_13  and  C_14
REMARK    6  A    between atoms: C_14  and  C_15
REMARK    7  A    between atoms: C_15  and  S_16
REMARK    8  A    between atoms: S_16  and  C_17
REMARK    9  A    between atoms: C_28  and  C_29
REMARK                            x       y       z     vdW  Elec       q    Type
REMARK                         _______ _______ _______ _____ _____    ______ ____
ROOT
ATOM      1  C   UNL     1      48.703   6.851  13.461  0.00  0.00    +0.000 C 
ENDROOT
BRANCH   1   2
ATOM      2  C   UNL     1      47.440   6.296  12.847  0.00  0.00    +0.000 A 
ATOM      3  C   UNL     1      46.837   6.940  11.760  0.00  0.00    +0.000 A 
ATOM      4  C   UNL     1      45.693   6.407  11.150  0.00  0.00    +0.000 A 
ATOM      5  C   UNL     1      45.124   5.216  11.620  0.00  0.00    +0.000 A 
ATOM      6  C   UNL     1      45.722   4.577  12.714  0.00  0.00    +0.000 A 
ATOM      7  C   UNL     1      46.860   5.113  13.328  0.00  0.00    +0.000 A 
BRANCH   5   8
ATOM      8  C   UNL     1      43.855   4.646  11.020  0.00  0.00    +0.000 C 
BRANCH   8   9
ATOM      9  C   UNL     1      44.038   4.147   9.587  0.00  0.00    +0.000 C 
BRANCH   9  10
ATOM     10  S   UNL     1      44.643   2.419   9.589  0.00  0.00    +0.000 S 
BRANCH  10  11
ATOM     11  C   UNL     1      45.770   2.387   8.206  0.00  0.00    +0.000 A 
ATOM     12  C   UNL     1      45.991   3.443   7.322  0.00  0.00    +0.000 A 
ATOM     13  C   UNL     1      46.909   3.306   6.279  0.00  0.00    +0.000 A 
ATOM     14  C   UNL     1      47.584   2.106   6.149  0.00  0.00    +0.000 A 
ATOM     15  N   UNL     1      47.401   1.054   6.971  0.00  0.00    +0.000 NA
ATOM     16  C   UNL     1      46.502   1.222   7.975  0.00  0.00    +0.000 A 
ENDBRANCH  10  11
ENDBRANCH   9  10
ENDBRANCH   8   9
ENDBRANCH   5   8
ENDBRANCH   1   2
BRANCH   1  19
ATOM     17  C   UNL     1      49.836   8.846  12.596  0.00  0.00    +0.000 C 
ATOM     18  O   UNL     1      49.326   9.573  13.446  0.00  0.00    +0.000 OA
ATOM     19  N   UNL     1      49.583   7.489  12.524  0.00  0.00    +0.000 N 
ATOM     20  H   UNL     1      50.032   6.961  11.774  0.00  0.00    +0.000 HD
BRANCH  17  25
ATOM     21  C   UNL     1      53.362   6.081   8.945  0.00  0.00    +0.000 C 
ATOM     22  C   UNL     1      52.788   7.331   9.490  0.00  0.00    +0.000 A 
ATOM     23  N   UNL     1      51.846   7.272  10.512  0.00  0.00    +0.000 NA
ATOM     24  C   UNL     1      51.567   8.535  10.743  0.00  0.00    +0.000 A 
ATOM     25  C   UNL     1      50.769   9.353  11.558  0.00  0.00    +0.000 C 
ATOM     26  C   UNL     1      51.072  10.618  11.160  0.00  0.00    +0.000 C 
ATOM     27  N   UNL     1      51.998  10.761  10.149  0.00  0.00    +0.000 NA
ATOM     28  N   UNL     1      52.272   9.360   9.932  0.00  0.00    +0.000 N 
ATOM     29  C   UNL     1      53.063   8.643   9.098  0.00  0.00    +0.000 A 
ATOM     30  C   UNL     1      53.962   9.202   8.077  0.00  0.00    +0.000 C 
ENDBRANCH  17  25
ENDBRANCH   1  19
TORSDOF 7
ENDMDL
