MODEL 1
REMARK VINA RESULT:    -7.646      0.000      0.000
REMARK INTER + INTRA:         -11.748
REMARK INTER:                 -10.775
REMARK INTRA:                  -0.973
REMARK UNBOUND:                -0.973
REMARK  Name = 
REMARK  9 active torsions:
REMARK  status: ('A' for Active; 'I' for Inactive)
REMARK    1  A    between atoms: C_1  and  C_2
REMARK    2  A    between atoms: C_2  and  C_3
REMARK    3  A    between atoms: C_2  and  O_4
REMARK    4  A    between atoms: O_4  and  C_5
REMARK    5  A    between atoms: C_8  and  C_9
REMARK    6  A    between atoms: C_9  and  C_10
REMARK    7  A    between atoms: C_13  and  C_14
REMARK    8  A    between atoms: C_14  and  N_15
REMARK    9  A    between atoms: C_16  and  C_18
REMARK                            x       y       z     vdW  Elec       q    Type
REMARK                         _______ _______ _______ _____ _____    ______ ____
ROOT
ATOM      1  C   UNL     1      45.629   5.671  12.627  0.00  0.00    +0.000 A 
ATOM      2  C   UNL     1      46.395   4.829  13.428  0.00  0.00    +0.000 A 
ATOM      3  C   UNL     1      47.432   5.378  14.180  0.00  0.00    +0.000 A 
ATOM      4  C   UNL     1      47.697   6.748  14.106  0.00  0.00    +0.000 A 
ATOM      5  C   UNL     1      46.868   7.510  13.291  0.00  0.00    +0.000 A 
ATOM      6  N   UNL     1      45.854   7.005  12.553  0.00  0.00    +0.000 NA
ENDROOT
BRANCH   1   7
ATOM      7  C   UNL     1      44.417   5.152  11.885  0.00  0.00    +0.000 C 
BRANCH   7  11
ATOM      8  C   UNL     1      45.353   3.465   8.146  0.00  0.00    +0.000 A 
ATOM      9  N   UNL     1      45.854   4.680   8.409  0.00  0.00    +0.000 NA
ATOM     10  C   UNL     1      45.542   5.199   9.609  0.00  0.00    +0.000 A 
ATOM     11  C   UNL     1      44.731   4.571  10.536  0.00  0.00    +0.000 A 
ATOM     12  C   UNL     1      44.287   3.321  10.153  0.00  0.00    +0.000 A 
ATOM     13  N   UNL     1      44.566   2.753   8.964  0.00  0.00    +0.000 NA
BRANCH   8  14
ATOM     14  O   UNL     1      45.605   2.895   6.920  0.00  0.00    +0.000 OA
BRANCH  14  16
ATOM     15  C   UNL     1      47.303   1.276   7.274  0.00  0.00    +0.000 C 
ATOM     16  C   UNL     1      46.999   2.657   6.695  0.00  0.00    +0.000 C 
ATOM     17  C   UNL     1      47.310   2.673   5.198  0.00  0.00    +0.000 C 
ENDBRANCH  14  16
ENDBRANCH   8  14
ENDBRANCH   7  11
ENDBRANCH   1   7
BRANCH   4  18
ATOM     18  C   UNL     1      48.795   7.405  14.889  0.00  0.00    +0.000 C 
BRANCH  18  19
ATOM     19  N   UNL     1      49.607   6.445  15.593  0.00  0.00    +0.000 N 
ATOM     20  C   UNL     1      49.420   6.211  16.933  0.00  0.00    +0.000 C 
ATOM     21  O   UNL     1      48.534   6.785  17.564  0.00  0.00    +0.000 OA
ATOM     22  H   UNL     1      50.178   5.807  15.045  0.00  0.00    +0.000 HD
BRANCH  20  23
ATOM     23  C   UNL     1      50.375   5.315  17.599  0.00  0.00    +0.000 A 
ATOM     24  C   UNL     1      51.379   5.839  18.404  0.00  0.00    +0.000 A 
ATOM     25  S   UNL     1      52.554   4.686  18.860  0.00  0.00    +0.000 S 
ATOM     26  C   UNL     1      51.733   3.446  18.033  0.00  0.00    +0.000 A 
ATOM     27  N   UNL     1      52.260   2.196  17.923  0.00  0.00    +0.000 NA
ATOM     28  C   UNL     1      51.509   1.358  17.293  0.00  0.00    +0.000 A 
ATOM     29  N   UNL     1      50.257   1.637  16.809  0.00  0.00    +0.000 N 
ATOM     30  C   UNL     1      49.667   2.869  16.944  0.00  0.00    +0.000 A 
ATOM     31  O   UNL     1      48.501   3.067  16.621  0.00  0.00    +0.000 OA
ATOM     32  C   UNL     1      50.524   3.883  17.526  0.00  0.00    +0.000 A 
ATOM     33  H   UNL     1      49.685   0.912  16.402  0.00  0.00    +0.000 HD
ENDBRANCH  20  23
ENDBRANCH  18  19
ENDBRANCH   4  18
TORSDOF 7
ENDMDL
MODEL 2
REMARK VINA RESULT:    -7.527      2.205      2.630
REMARK INTER + INTRA:         -11.581
REMARK INTER:                 -10.783
REMARK INTRA:                  -0.799
REMARK UNBOUND:                -0.973
REMARK  Name = 
REMARK  9 active torsions:
REMARK  status: ('A' for Active; 'I' for Inactive)
REMARK    1  A    between atoms: C_1  and  C_2
REMARK    2  A    between atoms: C_2  and  C_3
REMARK    3  A    between atoms: C_2  and  O_4
REMARK    4  A    between atoms: O_4  and  C_5
REMARK    5  A    between atoms: C_8  and  C_9
REMARK    6  A    between atoms: C_9  and  C_10
REMARK    7  A    between atoms: C_13  and  C_14
REMARK    8  A    between atoms: C_14  and  N_15
REMARK    9  A    between atoms: C_16  and  C_18
REMARK                            x       y       z     vdW  Elec       q    Type
REMARK                         _______ _______ _______ _____ _____    ______ ____
ROOT
ATOM      1  C   UNL     1      45.292   5.656  12.402  0.00  0.00    +0.000 A 
ATOM      2  C   UNL     1      45.331   7.048  12.416  0.00  0.00    +0.000 A 
ATOM      3  C   UNL     1      46.420   7.683  13.010  0.00  0.00    +0.000 A 
ATOM      4  C   UNL     1      47.437   6.923  13.594  0.00  0.00    +0.000 A 
ATOM      5  C   UNL     1      47.317   5.541  13.517  0.00  0.00    +0.000 A 
ATOM      6  N   UNL     1      46.275   4.898  12.945  0.00  0.00    +0.000 NA
ENDROOT
BRANCH   1   7
ATOM      7  C   UNL     1      44.198   4.914  11.666  0.00  0.00    +0.000 C 
BRANCH   7  11
ATOM      8  C   UNL     1      45.422   3.396   7.938  0.00  0.00    +0.000 A 
ATOM      9  N   UNL     1      45.847   4.624   8.264  0.00  0.00    +0.000 NA
ATOM     10  C   UNL     1      45.443   5.090   9.459  0.00  0.00    +0.000 A 
ATOM     11  C   UNL     1      44.614   4.394  10.320  0.00  0.00    +0.000 A 
ATOM     12  C   UNL     1      44.256   3.136   9.876  0.00  0.00    +0.000 A 
ATOM     13  N   UNL     1      44.627   2.621   8.688  0.00  0.00    +0.000 NA
BRANCH   8  14
ATOM     14  O   UNL     1      45.769   2.879   6.711  0.00  0.00    +0.000 OA
BRANCH  14  16
ATOM     15  C   UNL     1      47.309   1.159   7.260  0.00  0.00    +0.000 C 
ATOM     16  C   UNL     1      47.158   2.540   6.625  0.00  0.00    +0.000 C 
ATOM     17  C   UNL     1      47.608   2.493   5.165  0.00  0.00    +0.000 C 
ENDBRANCH  14  16
ENDBRANCH   8  14
ENDBRANCH   7  11
ENDBRANCH   1   7
BRANCH   4  18
ATOM     18  C   UNL     1      48.637   7.541  14.248  0.00  0.00    +0.000 C 
BRANCH  18  19
ATOM     19  N   UNL     1      48.466   7.679  15.673  0.00  0.00    +0.000 N 
ATOM     20  C   UNL     1      49.186   6.903  16.548  0.00  0.00    +0.000 C 
ATOM     21  O   UNL     1      50.021   6.095  16.147  0.00  0.00    +0.000 OA
ATOM     22  H   UNL     1      47.958   8.489  16.018  0.00  0.00    +0.000 HD
BRANCH  20  23
ATOM     23  C   UNL     1      48.855   7.017  17.975  0.00  0.00    +0.000 A 
ATOM     24  C   UNL     1      48.798   8.265  18.582  0.00  0.00    +0.000 A 
ATOM     25  S   UNL     1      48.682   8.187  20.284  0.00  0.00    +0.000 S 
ATOM     26  C   UNL     1      48.660   6.486  20.257  0.00  0.00    +0.000 A 
ATOM     27  N   UNL     1      48.680   5.757  21.406  0.00  0.00    +0.000 NA
ATOM     28  C   UNL     1      48.631   4.482  21.225  0.00  0.00    +0.000 A 
ATOM     29  N   UNL     1      48.507   3.867  20.006  0.00  0.00    +0.000 N 
ATOM     30  C   UNL     1      48.429   4.565  18.827  0.00  0.00    +0.000 A 
ATOM     31  O   UNL     1      48.191   4.010  17.760  0.00  0.00    +0.000 OA
ATOM     32  C   UNL     1      48.617   5.996  18.965  0.00  0.00    +0.000 A 
ATOM     33  H   UNL     1      48.385   2.867  19.940  0.00  0.00    +0.000 HD
ENDBRANCH  20  23
ENDBRANCH  18  19
ENDBRANCH   4  18
TORSDOF 7
ENDMDL
MODEL 3
REMARK VINA RESULT:    -7.122      2.197      2.537
REMARK INTER + INTRA:         -11.009
REMARK INTER:                  -9.915
REMARK INTRA:                  -1.094
REMARK UNBOUND:                -0.973
REMARK  Name = 
REMARK  9 active torsions:
REMARK  status: ('A' for Active; 'I' for Inactive)
REMARK    1  A    between atoms: C_1  and  C_2
REMARK    2  A    between atoms: C_2  and  C_3
REMARK    3  A    between atoms: C_2  and  O_4
REMARK    4  A    between atoms: O_4  and  C_5
REMARK    5  A    between atoms: C_8  and  C_9
REMARK    6  A    between atoms: C_9  and  C_10
REMARK    7  A    between atoms: C_13  and  C_14
REMARK    8  A    between atoms: C_14  and  N_15
REMARK    9  A    between atoms: C_16  and  C_18
REMARK                            x       y       z     vdW  Elec       q    Type
REMARK                         _______ _______ _______ _____ _____    ______ ____
ROOT
ATOM      1  C   UNL     1      45.434   5.830  12.309  0.00  0.00    +0.000 A 
ATOM      2  C   UNL     1      46.471   5.173  12.968  0.00  0.00    +0.000 A 
ATOM      3  C   UNL     1      47.416   5.931  13.655  0.00  0.00    +0.000 A 
ATOM      4  C   UNL     1      47.323   7.326  13.659  0.00  0.00    +0.000 A 
ATOM      5  C   UNL     1      46.245   7.890  12.987  0.00  0.00    +0.000 A 
ATOM      6  N   UNL     1      45.312   7.179  12.314  0.00  0.00    +0.000 NA
ENDROOT
BRANCH   1   7
ATOM      7  C   UNL     1      44.314   5.055  11.651  0.00  0.00    +0.000 C 
BRANCH   7  11
ATOM      8  C   UNL     1      45.320   3.366   7.932  0.00  0.00    +0.000 A 
ATOM      9  N   UNL     1      44.558   2.627   8.750  0.00  0.00    +0.000 NA
ATOM     10  C   UNL     1      44.249   3.186   9.933  0.00  0.00    +0.000 A 
ATOM     11  C   UNL     1      44.693   4.431  10.339  0.00  0.00    +0.000 A 
ATOM     12  C   UNL     1      45.460   5.097   9.404  0.00  0.00    +0.000 A 
ATOM     13  N   UNL     1      45.804   4.585   8.206  0.00  0.00    +0.000 NA
BRANCH   8  14
ATOM     14  O   UNL     1      45.703   2.834   6.722  0.00  0.00    +0.000 OA
BRANCH  14  16
ATOM     15  C   UNL     1      47.248   1.123   7.285  0.00  0.00    +0.000 C 
ATOM     16  C   UNL     1      47.100   2.515   6.674  0.00  0.00    +0.000 C 
ATOM     17  C   UNL     1      47.596   2.505   5.229  0.00  0.00    +0.000 C 
ENDBRANCH  14  16
ENDBRANCH   8  14
ENDBRANCH   7  11
ENDBRANCH   1   7
BRANCH   4  18
ATOM     18  C   UNL     1      48.305   8.202  14.379  0.00  0.00    +0.000 C 
BRANCH  18  19
ATOM     19  N   UNL     1      48.222   8.047  15.810  0.00  0.00    +0.000 N 
ATOM     20  C   UNL     1      49.356   7.907  16.570  0.00  0.00    +0.000 C 
ATOM     21  O   UNL     1      50.475   7.944  16.062  0.00  0.00    +0.000 OA
ATOM     22  H   UNL     1      47.332   8.243  16.261  0.00  0.00    +0.000 HD
BRANCH  20  23
ATOM     23  C   UNL     1      49.175   7.623  18.001  0.00  0.00    +0.000 A 
ATOM     24  C   UNL     1      49.471   8.595  18.948  0.00  0.00    +0.000 A 
ATOM     25  S   UNL     1      49.473   8.002  20.549  0.00  0.00    +0.000 S 
ATOM     26  C   UNL     1      49.036   6.443  20.029  0.00  0.00    +0.000 A 
ATOM     27  N   UNL     1      48.969   5.397  20.896  0.00  0.00    +0.000 NA
ATOM     28  C   UNL     1      48.596   4.285  20.359  0.00  0.00    +0.000 A 
ATOM     29  N   UNL     1      48.232   4.133  19.046  0.00  0.00    +0.000 N 
ATOM     30  C   UNL     1      48.235   5.172  18.150  0.00  0.00    +0.000 A 
ATOM     31  O   UNL     1      47.786   5.049  17.015  0.00  0.00    +0.000 OA
ATOM     32  C   UNL     1      48.774   6.412  18.672  0.00  0.00    +0.000 A 
ATOM     33  H   UNL     1      47.866   3.254  18.709  0.00  0.00    +0.000 HD
ENDBRANCH  20  23
ENDBRANCH  18  19
ENDBRANCH   4  18
TORSDOF 7
ENDMDL
MODEL 4
REMARK VINA RESULT:    -6.928      2.650      4.297
REMARK INTER + INTRA:         -10.737
REMARK INTER:                  -9.716
REMARK INTRA:                  -1.021
REMARK UNBOUND:                -0.973
REMARK  Name = 
REMARK  9 active torsions:
REMARK  status: ('A' for Active; 'I' for Inactive)
REMARK    1  A    between atoms: C_1  and  C_2
REMARK    2  A    between atoms: C_2  and  C_3
REMARK    3  A    between atoms: C_2  and  O_4
REMARK    4  A    between atoms: O_4  and  C_5
REMARK    5  A    between atoms: C_8  and  C_9
REMARK    6  A    between atoms: C_9  and  C_10
REMARK    7  A    between atoms: C_13  and  C_14
REMARK    8  A    between atoms: C_14  and  N_15
REMARK    9  A    between atoms: C_16  and  C_18
REMARK                            x       y       z     vdW  Elec       q    Type
REMARK                         _______ _______ _______ _____ _____    ______ ____
ROOT
ATOM      1  C   UNL     1      45.628   5.754  12.580  0.00  0.00    +0.000 A 
ATOM      2  C   UNL     1      46.680   6.601  12.920  0.00  0.00    +0.000 A 
ATOM      3  C   UNL     1      47.523   6.237  13.967  0.00  0.00    +0.000 A 
ATOM      4  C   UNL     1      47.293   5.049  14.667  0.00  0.00    +0.000 A 
ATOM      5  C   UNL     1      46.228   4.262  14.245  0.00  0.00    +0.000 A 
ATOM      6  N   UNL     1      45.396   4.589  13.231  0.00  0.00    +0.000 NA
ENDROOT
BRANCH   1   7
ATOM      7  C   UNL     1      44.757   6.038  11.376  0.00  0.00    +0.000 C 
BRANCH   7  11
ATOM      8  C   UNL     1      45.478   3.588   8.032  0.00  0.00    +0.000 A 
ATOM      9  N   UNL     1      44.560   3.164   8.911  0.00  0.00    +0.000 NA
ATOM     10  C   UNL     1      44.346   3.962   9.972  0.00  0.00    +0.000 A 
ATOM     11  C   UNL     1      45.029   5.142  10.202  0.00  0.00    +0.000 A 
ATOM     12  C   UNL     1      45.940   5.476   9.219  0.00  0.00    +0.000 A 
ATOM     13  N   UNL     1      46.197   4.714   8.138  0.00  0.00    +0.000 NA
BRANCH   8  14
ATOM     14  O   UNL     1      45.770   2.798   6.945  0.00  0.00    +0.000 OA
BRANCH  14  16
ATOM     15  C   UNL     1      46.980   0.838   7.518  0.00  0.00    +0.000 C 
ATOM     16  C   UNL     1      47.100   2.266   6.989  0.00  0.00    +0.000 C 
ATOM     17  C   UNL     1      47.716   2.252   5.590  0.00  0.00    +0.000 C 
ENDBRANCH  14  16
ENDBRANCH   8  14
ENDBRANCH   7  11
ENDBRANCH   1   7
BRANCH   4  18
ATOM     18  C   UNL     1      48.161   4.596  15.803  0.00  0.00    +0.000 C 
BRANCH  18  19
ATOM     19  N   UNL     1      48.347   5.631  16.789  0.00  0.00    +0.000 N 
ATOM     20  C   UNL     1      47.575   5.672  17.923  0.00  0.00    +0.000 C 
ATOM     21  O   UNL     1      46.727   4.810  18.150  0.00  0.00    +0.000 OA
ATOM     22  H   UNL     1      49.184   6.205  16.728  0.00  0.00    +0.000 HD
BRANCH  20  23
ATOM     23  C   UNL     1      47.741   6.833  18.809  0.00  0.00    +0.000 A 
ATOM     24  C   UNL     1      47.747   6.663  20.188  0.00  0.00    +0.000 A 
ATOM     25  S   UNL     1      47.666   8.134  21.051  0.00  0.00    +0.000 S 
ATOM     26  C   UNL     1      47.664   9.041  19.611  0.00  0.00    +0.000 A 
ATOM     27  N   UNL     1      47.500  10.391  19.622  0.00  0.00    +0.000 NA
ATOM     28  C   UNL     1      47.550  10.941  18.457  0.00  0.00    +0.000 A 
ATOM     29  N   UNL     1      47.803  10.274  17.286  0.00  0.00    +0.000 N 
ATOM     30  C   UNL     1      48.027   8.921  17.236  0.00  0.00    +0.000 A 
ATOM     31  O   UNL     1      48.377   8.360  16.203  0.00  0.00    +0.000 OA
ATOM     32  C   UNL     1      47.848   8.237  18.502  0.00  0.00    +0.000 A 
ATOM     33  H   UNL     1      47.916  10.776  16.418  0.00  0.00    +0.000 HD
ENDBRANCH  20  23
ENDBRANCH  18  19
ENDBRANCH   4  18
TORSDOF 7
ENDMDL
MODEL 5
REMARK VINA RESULT:    -6.704      2.489      3.549
REMARK INTER + INTRA:         -10.421
REMARK INTER:                  -9.635
REMARK INTRA:                  -0.786
REMARK UNBOUND:                -0.973
REMARK  Name = 
REMARK  9 active torsions:
REMARK  status: ('A' for Active; 'I' for Inactive)
REMARK    1  A    between atoms: C_1  and  C_2
REMARK    2  A    between atoms: C_2  and  C_3
REMARK    3  A    between atoms: C_2  and  O_4
REMARK    4  A    between atoms: O_4  and  C_5
REMARK    5  A    between atoms: C_8  and  C_9
REMARK    6  A    between atoms: C_9  and  C_10
REMARK    7  A    between atoms: C_13  and  C_14
REMARK    8  A    between atoms: C_14  and  N_15
REMARK    9  A    between atoms: C_16  and  C_18
REMARK                            x       y       z     vdW  Elec       q    Type
REMARK                         _______ _______ _______ _____ _____    ______ ____
ROOT
ATOM      1  C   UNL     1      45.681   5.408  12.563  0.00  0.00    +0.000 A 
ATOM      2  C   UNL     1      46.292   4.602  13.519  0.00  0.00    +0.000 A 
ATOM      3  C   UNL     1      47.350   5.124  14.261  0.00  0.00    +0.000 A 
ATOM      4  C   UNL     1      47.790   6.429  14.025  0.00  0.00    +0.000 A 
ATOM      5  C   UNL     1      47.108   7.162  13.061  0.00  0.00    +0.000 A 
ATOM      6  N   UNL     1      46.077   6.683  12.329  0.00  0.00    +0.000 NA
ENDROOT
BRANCH   1   7
ATOM      7  C   UNL     1      44.453   4.938  11.816  0.00  0.00    +0.000 C 
BRANCH   7  11
ATOM      8  C   UNL     1      45.224   3.347   7.998  0.00  0.00    +0.000 A 
ATOM      9  N   UNL     1      44.513   2.587   8.842  0.00  0.00    +0.000 NA
ATOM     10  C   UNL     1      44.279   3.114  10.056  0.00  0.00    +0.000 A 
ATOM     11  C   UNL     1      44.749   4.349  10.466  0.00  0.00    +0.000 A 
ATOM     12  C   UNL     1      45.457   5.040   9.503  0.00  0.00    +0.000 A 
ATOM     13  N   UNL     1      45.725   4.559   8.273  0.00  0.00    +0.000 NA
BRANCH   8  14
ATOM     14  O   UNL     1      45.531   2.848   6.753  0.00  0.00    +0.000 OA
BRANCH  14  16
ATOM     15  C   UNL     1      47.308   1.356   7.252  0.00  0.00    +0.000 C 
ATOM     16  C   UNL     1      46.939   2.667   6.560  0.00  0.00    +0.000 C 
ATOM     17  C   UNL     1      47.267   2.580   5.070  0.00  0.00    +0.000 C 
ENDBRANCH  14  16
ENDBRANCH   8  14
ENDBRANCH   7  11
ENDBRANCH   1   7
BRANCH   4  18
ATOM     18  C   UNL     1      48.921   7.054  14.787  0.00  0.00    +0.000 C 
BRANCH  18  19
ATOM     19  N   UNL     1      48.664   7.090  16.205  0.00  0.00    +0.000 N 
ATOM     20  C   UNL     1      49.358   6.278  17.068  0.00  0.00    +0.000 C 
ATOM     21  O   UNL     1      50.241   5.523  16.664  0.00  0.00    +0.000 OA
ATOM     22  H   UNL     1      48.111   7.860  16.572  0.00  0.00    +0.000 HD
BRANCH  20  23
ATOM     23  C   UNL     1      48.942   6.284  18.477  0.00  0.00    +0.000 A 
ATOM     24  C   UNL     1      47.821   5.568  18.878  0.00  0.00    +0.000 A 
ATOM     25  S   UNL     1      47.330   5.917  20.476  0.00  0.00    +0.000 S 
ATOM     26  C   UNL     1      48.624   7.000  20.694  0.00  0.00    +0.000 A 
ATOM     27  N   UNL     1      48.742   7.747  21.825  0.00  0.00    +0.000 NA
ATOM     28  C   UNL     1      49.789   8.499  21.856  0.00  0.00    +0.000 A 
ATOM     29  N   UNL     1      50.758   8.534  20.887  0.00  0.00    +0.000 N 
ATOM     30  C   UNL     1      50.705   7.760  19.755  0.00  0.00    +0.000 A 
ATOM     31  O   UNL     1      51.638   7.708  18.961  0.00  0.00    +0.000 OA
ATOM     32  C   UNL     1      49.480   6.997  19.609  0.00  0.00    +0.000 A 
ATOM     33  H   UNL     1      51.597   9.081  21.013  0.00  0.00    +0.000 HD
ENDBRANCH  20  23
ENDBRANCH  18  19
ENDBRANCH   4  18
TORSDOF 7
ENDMDL
MODEL 6
REMARK VINA RESULT:    -6.577      3.642     10.200
REMARK INTER + INTRA:         -10.241
REMARK INTER:                  -9.705
REMARK INTRA:                  -0.536
REMARK UNBOUND:                -0.973
REMARK  Name = 
REMARK  9 active torsions:
REMARK  status: ('A' for Active; 'I' for Inactive)
REMARK    1  A    between atoms: C_1  and  C_2
REMARK    2  A    between atoms: C_2  and  C_3
REMARK    3  A    between atoms: C_2  and  O_4
REMARK    4  A    between atoms: O_4  and  C_5
REMARK    5  A    between atoms: C_8  and  C_9
REMARK    6  A    between atoms: C_9  and  C_10
REMARK    7  A    between atoms: C_13  and  C_14
REMARK    8  A    between atoms: C_14  and  N_15
REMARK    9  A    between atoms: C_16  and  C_18
REMARK                            x       y       z     vdW  Elec       q    Type
REMARK                         _______ _______ _______ _____ _____    ______ ____
ROOT
ATOM      1  C   UNL     1      51.621   3.667  17.537  0.00  0.00    +0.000 A 
ATOM      2  C   UNL     1      50.919   4.870  17.541  0.00  0.00    +0.000 A 
ATOM      3  C   UNL     1      49.534   4.840  17.392  0.00  0.00    +0.000 A 
ATOM      4  C   UNL     1      48.877   3.618  17.223  0.00  0.00    +0.000 A 
ATOM      5  C   UNL     1      49.660   2.470  17.247  0.00  0.00    +0.000 A 
ATOM      6  N   UNL     1      51.004   2.469  17.393  0.00  0.00    +0.000 NA
ENDROOT
BRANCH   1   7
ATOM      7  C   UNL     1      53.107   3.631  17.816  0.00  0.00    +0.000 C 
BRANCH   7  11
ATOM      8  C   UNL     1      54.671  -0.177  18.688  0.00  0.00    +0.000 A 
ATOM      9  N   UNL     1      54.249   0.036  17.434  0.00  0.00    +0.000 NA
ATOM     10  C   UNL     1      53.753   1.259  17.178  0.00  0.00    +0.000 A 
ATOM     11  C   UNL     1      53.635   2.259  18.126  0.00  0.00    +0.000 A 
ATOM     12  C   UNL     1      54.115   1.922  19.376  0.00  0.00    +0.000 A 
ATOM     13  N   UNL     1      54.619   0.712  19.689  0.00  0.00    +0.000 NA
BRANCH   8  14
ATOM     14  O   UNL     1      55.154  -1.420  19.023  0.00  0.00    +0.000 OA
BRANCH  14  16
ATOM     15  C   UNL     1      54.262  -3.559  18.514  0.00  0.00    +0.000 C 
ATOM     16  C   UNL     1      54.118  -2.331  19.411  0.00  0.00    +0.000 C 
ATOM     17  C   UNL     1      54.281  -2.735  20.876  0.00  0.00    +0.000 C 
ENDBRANCH  14  16
ENDBRANCH   8  14
ENDBRANCH   7  11
ENDBRANCH   1   7
BRANCH   4  18
ATOM     18  C   UNL     1      47.390   3.513  17.058  0.00  0.00    +0.000 C 
BRANCH  18  19
ATOM     19  N   UNL     1      46.894   4.403  16.038  0.00  0.00    +0.000 N 
ATOM     20  C   UNL     1      46.992   4.076  14.708  0.00  0.00    +0.000 C 
ATOM     21  O   UNL     1      47.472   3.002  14.348  0.00  0.00    +0.000 OA
ATOM     22  H   UNL     1      46.296   5.173  16.325  0.00  0.00    +0.000 HD
BRANCH  20  23
ATOM     23  C   UNL     1      46.581   5.095  13.733  0.00  0.00    +0.000 A 
ATOM     24  C   UNL     1      47.312   6.270  13.602  0.00  0.00    +0.000 A 
ATOM     25  S   UNL     1      46.535   7.446  12.638  0.00  0.00    +0.000 S 
ATOM     26  C   UNL     1      45.223   6.407  12.332  0.00  0.00    +0.000 A 
ATOM     27  N   UNL     1      44.127   6.829  11.647  0.00  0.00    +0.000 NA
ATOM     28  C   UNL     1      43.229   5.920  11.470  0.00  0.00    +0.000 A 
ATOM     29  N   UNL     1      43.349   4.613  11.867  0.00  0.00    +0.000 N 
ATOM     30  C   UNL     1      44.459   4.133  12.514  0.00  0.00    +0.000 A 
ATOM     31  O   UNL     1      44.606   2.938  12.749  0.00  0.00    +0.000 OA
ATOM     32  C   UNL     1      45.438   5.146  12.856  0.00  0.00    +0.000 A 
ATOM     33  H   UNL     1      42.647   3.930  11.621  0.00  0.00    +0.000 HD
ENDBRANCH  20  23
ENDBRANCH  18  19
ENDBRANCH   4  18
TORSDOF 7
ENDMDL
MODEL 7
REMARK VINA RESULT:    -6.575      4.636      5.770
REMARK INTER + INTRA:         -10.239
REMARK INTER:                  -9.063
REMARK INTRA:                  -1.176
REMARK UNBOUND:                -0.973
REMARK  Name = 
REMARK  9 active torsions:
REMARK  status: ('A' for Active; 'I' for Inactive)
REMARK    1  A    between atoms: C_1  and  C_2
REMARK    2  A    between atoms: C_2  and  C_3
REMARK    3  A    between atoms: C_2  and  O_4
REMARK    4  A    between atoms: O_4  and  C_5
REMARK    5  A    between atoms: C_8  and  C_9
REMARK    6  A    between atoms: C_9  and  C_10
REMARK    7  A    between atoms: C_13  and  C_14
REMARK    8  A    between atoms: C_14  and  N_15
REMARK    9  A    between atoms: C_16  and  C_18
REMARK                            x       y       z     vdW  Elec       q    Type
REMARK                         _______ _______ _______ _____ _____    ______ ____
ROOT
ATOM      1  C   UNL     1      45.669   6.294  12.469  0.00  0.00    +0.000 A 
ATOM      2  C   UNL     1      46.950   6.128  12.990  0.00  0.00    +0.000 A 
ATOM      3  C   UNL     1      47.684   7.260  13.340  0.00  0.00    +0.000 A 
ATOM      4  C   UNL     1      47.138   8.532  13.147  0.00  0.00    +0.000 A 
ATOM      5  C   UNL     1      45.848   8.596  12.635  0.00  0.00    +0.000 A 
ATOM      6  N   UNL     1      45.112   7.516  12.290  0.00  0.00    +0.000 NA
ENDROOT
BRANCH   1   7
ATOM      7  C   UNL     1      44.782   5.101  12.187  0.00  0.00    +0.000 C 
BRANCH   7  11
ATOM      8  C   UNL     1      45.308   3.443   8.356  0.00  0.00    +0.000 A 
ATOM      9  N   UNL     1      44.776   2.650   9.295  0.00  0.00    +0.000 NA
ATOM     10  C   UNL     1      44.617   3.199  10.512  0.00  0.00    +0.000 A 
ATOM     11  C   UNL     1      44.994   4.491  10.831  0.00  0.00    +0.000 A 
ATOM     12  C   UNL     1      45.518   5.211   9.776  0.00  0.00    +0.000 A 
ATOM     13  N   UNL     1      45.703   4.711   8.539  0.00  0.00    +0.000 NA
BRANCH   8  14
ATOM     14  O   UNL     1      45.532   2.927   7.101  0.00  0.00    +0.000 OA
BRANCH  14  16
ATOM     15  C   UNL     1      47.177   1.230   7.306  0.00  0.00    +0.000 C 
ATOM     16  C   UNL     1      46.918   2.664   6.849  0.00  0.00    +0.000 C 
ATOM     17  C   UNL     1      47.225   2.798   5.358  0.00  0.00    +0.000 C 
ENDBRANCH  14  16
ENDBRANCH   8  14
ENDBRANCH   7  11
ENDBRANCH   1   7
BRANCH   4  18
ATOM     18  C   UNL     1      47.872   9.791  13.502  0.00  0.00    +0.000 C 
BRANCH  18  19
ATOM     19  N   UNL     1      49.177   9.848  12.892  0.00  0.00    +0.000 N 
ATOM     20  C   UNL     1      49.347  10.382  11.639  0.00  0.00    +0.000 C 
ATOM     21  O   UNL     1      48.401  10.859  11.014  0.00  0.00    +0.000 OA
ATOM     22  H   UNL     1      49.988   9.672  13.480  0.00  0.00    +0.000 HD
BRANCH  20  23
ATOM     23  C   UNL     1      50.686  10.281  11.041  0.00  0.00    +0.000 A 
ATOM     24  C   UNL     1      51.376  11.430  10.676  0.00  0.00    +0.000 A 
ATOM     25  S   UNL     1      52.775  11.114   9.749  0.00  0.00    +0.000 S 
ATOM     26  C   UNL     1      52.524   9.434   9.844  0.00  0.00    +0.000 A 
ATOM     27  N   UNL     1      53.311   8.558   9.163  0.00  0.00    +0.000 NA
ATOM     28  C   UNL     1      53.016   7.318   9.358  0.00  0.00    +0.000 A 
ATOM     29  N   UNL     1      52.042   6.869  10.212  0.00  0.00    +0.000 N 
ATOM     30  C   UNL     1      51.261   7.716  10.957  0.00  0.00    +0.000 A 
ATOM     31  O   UNL     1      50.483   7.298  11.809  0.00  0.00    +0.000 OA
ATOM     32  C   UNL     1      51.462   9.123  10.673  0.00  0.00    +0.000 A 
ATOM     33  H   UNL     1      51.920   5.882  10.386  0.00  0.00    +0.000 HD
ENDBRANCH  20  23
ENDBRANCH  18  19
ENDBRANCH   4  18
TORSDOF 7
ENDMDL
MODEL 8
REMARK VINA RESULT:    -6.513      4.920      7.004
REMARK INTER + INTRA:         -10.152
REMARK INTER:                  -9.046
REMARK INTRA:                  -1.106
REMARK UNBOUND:                -0.973
REMARK  Name = 
REMARK  9 active torsions:
REMARK  status: ('A' for Active; 'I' for Inactive)
REMARK    1  A    between atoms: C_1  and  C_2
REMARK    2  A    between atoms: C_2  and  C_3
REMARK    3  A    between atoms: C_2  and  O_4
REMARK    4  A    between atoms: O_4  and  C_5
REMARK    5  A    between atoms: C_8  and  C_9
REMARK    6  A    between atoms: C_9  and  C_10
REMARK    7  A    between atoms: C_13  and  C_14
REMARK    8  A    between atoms: C_14  and  N_15
REMARK    9  A    between atoms: C_16  and  C_18
REMARK                            x       y       z     vdW  Elec       q    Type
REMARK                         _______ _______ _______ _____ _____    ______ ____
ROOT
ATOM      1  C   UNL     1      44.732   9.066  11.562  0.00  0.00    +0.000 A 
ATOM      2  C   UNL     1      45.733   8.986  12.526  0.00  0.00    +0.000 A 
ATOM      3  C   UNL     1      46.066   7.736  13.045  0.00  0.00    +0.000 A 
ATOM      4  C   UNL     1      45.385   6.596  12.609  0.00  0.00    +0.000 A 
ATOM      5  C   UNL     1      44.413   6.774  11.633  0.00  0.00    +0.000 A 
ATOM      6  N   UNL     1      44.071   7.973  11.109  0.00  0.00    +0.000 NA
ENDROOT
BRANCH   1   7
ATOM      7  C   UNL     1      44.414  10.377  10.876  0.00  0.00    +0.000 C 
BRANCH   7  11
ATOM      8  C   UNL     1      40.332  11.372  11.095  0.00  0.00    +0.000 A 
ATOM      9  N   UNL     1      40.800  10.981   9.902  0.00  0.00    +0.000 NA
ATOM     10  C   UNL     1      42.106  10.668   9.855  0.00  0.00    +0.000 A 
ATOM     11  C   UNL     1      42.963  10.760  10.937  0.00  0.00    +0.000 A 
ATOM     12  C   UNL     1      42.358  11.162  12.112  0.00  0.00    +0.000 A 
ATOM     13  N   UNL     1      41.056  11.491  12.216  0.00  0.00    +0.000 NA
BRANCH   8  14
ATOM     14  O   UNL     1      39.011  11.742  11.200  0.00  0.00    +0.000 OA
BRANCH  14  16
ATOM     15  C   UNL     1      37.157  11.887  12.674  0.00  0.00    +0.000 C 
ATOM     16  C   UNL     1      38.304  10.997  12.200  0.00  0.00    +0.000 C 
ATOM     17  C   UNL     1      37.749   9.703  11.608  0.00  0.00    +0.000 C 
ENDBRANCH  14  16
ENDBRANCH   8  14
ENDBRANCH   7  11
ENDBRANCH   1   7
BRANCH   4  18
ATOM     18  C   UNL     1      45.693   5.221  13.124  0.00  0.00    +0.000 C 
BRANCH  18  19
ATOM     19  N   UNL     1      46.462   5.259  14.343  0.00  0.00    +0.000 N 
ATOM     20  C   UNL     1      47.180   4.165  14.758  0.00  0.00    +0.000 C 
ATOM     21  O   UNL     1      47.219   3.134  14.088  0.00  0.00    +0.000 OA
ATOM     22  H   UNL     1      46.622   6.163  14.780  0.00  0.00    +0.000 HD
BRANCH  20  23
ATOM     23  C   UNL     1      47.826   4.245  16.075  0.00  0.00    +0.000 A 
ATOM     24  C   UNL     1      47.680   3.210  16.989  0.00  0.00    +0.000 A 
ATOM     25  S   UNL     1      48.255   3.597  18.550  0.00  0.00    +0.000 S 
ATOM     26  C   UNL     1      48.756   5.141  18.040  0.00  0.00    +0.000 A 
ATOM     27  N   UNL     1      49.247   6.055  18.920  0.00  0.00    +0.000 NA
ATOM     28  C   UNL     1      49.611   7.168  18.380  0.00  0.00    +0.000 A 
ATOM     29  N   UNL     1      49.582   7.433  17.035  0.00  0.00    +0.000 N 
ATOM     30  C   UNL     1      49.144   6.521  16.108  0.00  0.00    +0.000 A 
ATOM     31  O   UNL     1      49.242   6.724  14.902  0.00  0.00    +0.000 OA
ATOM     32  C   UNL     1      48.598   5.305  16.677  0.00  0.00    +0.000 A 
ATOM     33  H   UNL     1      49.963   8.293  16.668  0.00  0.00    +0.000 HD
ENDBRANCH  20  23
ENDBRANCH  18  19
ENDBRANCH   4  18
TORSDOF 7
ENDMDL
MODEL 9
REMARK VINA RESULT:    -6.459      3.068      9.505
REMARK INTER + INTRA:         -10.075
REMARK INTER:                  -9.012
REMARK INTRA:                  -1.063
REMARK UNBOUND:                -0.973
REMARK  Name = 
REMARK  9 active torsions:
REMARK  status: ('A' for Active; 'I' for Inactive)
REMARK    1  A    between atoms: C_1  and  C_2
REMARK    2  A    between atoms: C_2  and  C_3
REMARK    3  A    between atoms: C_2  and  O_4
REMARK    4  A    between atoms: O_4  and  C_5
REMARK    5  A    between atoms: C_8  and  C_9
REMARK    6  A    between atoms: C_9  and  C_10
REMARK    7  A    between atoms: C_13  and  C_14
REMARK    8  A    between atoms: C_14  and  N_15
REMARK    9  A    between atoms: C_16  and  C_18
REMARK                            x       y       z     vdW  Elec       q    Type
REMARK                         _______ _______ _______ _____ _____    ______ ____
ROOT
ATOM      1  C   UNL     1      48.771   6.879  15.966  0.00  0.00    +0.000 A 
ATOM      2  C   UNL     1      48.651   8.191  15.515  0.00  0.00    +0.000 A 
ATOM      3  C   UNL     1      48.188   8.416  14.221  0.00  0.00    +0.000 A 
ATOM      4  C   UNL     1      47.872   7.333  13.395  0.00  0.00    +0.000 A 
ATOM      5  C   UNL     1      48.010   6.062  13.939  0.00  0.00    +0.000 A 
ATOM      6  N   UNL     1      48.453   5.814  15.191  0.00  0.00    +0.000 NA
ENDROOT
BRANCH   1   7
ATOM      7  C   UNL     1      49.151   6.579  17.400  0.00  0.00    +0.000 C 
BRANCH   7  11
ATOM      8  C   UNL     1      52.555   4.125  17.696  0.00  0.00    +0.000 A 
ATOM      9  N   UNL     1      51.399   3.619  18.147  0.00  0.00    +0.000 NA
ATOM     10  C   UNL     1      50.325   4.421  18.043  0.00  0.00    +0.000 A 
ATOM     11  C   UNL     1      50.366   5.708  17.538  0.00  0.00    +0.000 A 
ATOM     12  C   UNL     1      51.611   6.108  17.095  0.00  0.00    +0.000 A 
ATOM     13  N   UNL     1      52.721   5.349  17.178  0.00  0.00    +0.000 NA
BRANCH   8  14
ATOM     14  O   UNL     1      53.699   3.369  17.810  0.00  0.00    +0.000 OA
BRANCH  14  16
ATOM     15  C   UNL     1      54.328   1.122  18.242  0.00  0.00    +0.000 C 
ATOM     16  C   UNL     1      53.584   2.335  18.796  0.00  0.00    +0.000 C 
ATOM     17  C   UNL     1      54.222   2.780  20.112  0.00  0.00    +0.000 C 
ENDBRANCH  14  16
ENDBRANCH   8  14
ENDBRANCH   7  11
ENDBRANCH   1   7
BRANCH   4  18
ATOM     18  C   UNL     1      47.368   7.503  11.992  0.00  0.00    +0.000 C 
BRANCH  18  19
ATOM     19  N   UNL     1      46.674   6.331  11.520  0.00  0.00    +0.000 N 
ATOM     20  C   UNL     1      45.303   6.291  11.483  0.00  0.00    +0.000 C 
ATOM     21  O   UNL     1      44.625   7.262  11.817  0.00  0.00    +0.000 OA
ATOM     22  H   UNL     1      47.213   5.620  11.033  0.00  0.00    +0.000 HD
BRANCH  20  23
ATOM     23  C   UNL     1      44.678   5.013  11.113  0.00  0.00    +0.000 A 
ATOM     24  C   UNL     1      43.717   4.441  11.938  0.00  0.00    +0.000 A 
ATOM     25  S   UNL     1      43.314   2.841  11.500  0.00  0.00    +0.000 S 
ATOM     26  C   UNL     1      44.376   2.880  10.172  0.00  0.00    +0.000 A 
ATOM     27  N   UNL     1      44.605   1.775   9.412  0.00  0.00    +0.000 NA
ATOM     28  C   UNL     1      45.412   1.968   8.425  0.00  0.00    +0.000 A 
ATOM     29  N   UNL     1      45.970   3.176   8.093  0.00  0.00    +0.000 N 
ATOM     30  C   UNL     1      45.724   4.326   8.801  0.00  0.00    +0.000 A 
ATOM     31  O   UNL     1      46.127   5.420   8.419  0.00  0.00    +0.000 OA
ATOM     32  C   UNL     1      44.931   4.134   9.999  0.00  0.00    +0.000 A 
ATOM     33  H   UNL     1      46.524   3.278   7.256  0.00  0.00    +0.000 HD
ENDBRANCH  20  23
ENDBRANCH  18  19
ENDBRANCH   4  18
TORSDOF 7
ENDMDL
