MODEL 1
REMARK VINA RESULT:    -8.248      0.000      0.000
REMARK INTER + INTRA:         -12.409
REMARK INTER:                 -11.623
REMARK INTRA:                  -0.786
REMARK UNBOUND:                -0.786
REMARK  Name = 
REMARK  7 active torsions:
REMARK  status: ('A' for Active; 'I' for Inactive)
REMARK    1  A    between atoms: C_2  and  C_11
REMARK    2  A    between atoms: N_3  and  C_4
REMARK    3  A    between atoms: C_4  and  C_5
REMARK    4  A    between atoms: C_14  and  C_15
REMARK    5  A    between atoms: C_15  and  N_16
REMARK    6  A    between atoms: N_16  and  C_17
REMARK    7  A    between atoms: C_17  and  C_18
REMARK                            x       y       z     vdW  Elec       q    Type
REMARK                         _______ _______ _______ _____ _____    ______ ____
ROOT
ATOM      1  C   UNL     1      46.531   5.244  13.453  0.00  0.00    +0.000 A 
ATOM      2  C   UNL     1      46.136   6.323  12.657  0.00  0.00    +0.000 A 
ATOM      3  C   UNL     1      45.207   6.132  11.628  0.00  0.00    +0.000 A 
ATOM      4  C   UNL     1      44.652   4.865  11.389  0.00  0.00    +0.000 A 
ATOM      5  C   UNL     1      45.048   3.791  12.201  0.00  0.00    +0.000 A 
ATOM      6  C   UNL     1      45.978   3.978  13.229  0.00  0.00    +0.000 A 
ENDROOT
BRANCH   1   8
ATOM      7  O   UNL     1      48.511   6.148  14.362  0.00  0.00    +0.000 OA
ATOM      8  C   UNL     1      47.500   5.484  14.558  0.00  0.00    +0.000 C 
ATOM      9  N   UNL     1      47.191   4.909  15.771  0.00  0.00    +0.000 N 
ATOM     10  H   UNL     1      46.495   4.177  15.802  0.00  0.00    +0.000 HD
BRANCH   9  11
ATOM     11  C   UNL     1      48.075   5.040  16.908  0.00  0.00    +0.000 C 
BRANCH  11  12
ATOM     12  C   UNL     1      49.040   3.893  16.972  0.00  0.00    +0.000 A 
ATOM     13  C   UNL     1      50.270   4.015  17.626  0.00  0.00    +0.000 A 
ATOM     14  C   UNL     1      51.147   2.935  17.658  0.00  0.00    +0.000 A 
ATOM     15  C   UNL     1      50.766   1.763  17.030  0.00  0.00    +0.000 A 
ATOM     16  N   UNL     1      49.589   1.605  16.388  0.00  0.00    +0.000 NA
ATOM     17  C   UNL     1      48.757   2.672  16.370  0.00  0.00    +0.000 A 
ENDBRANCH  11  12
ENDBRANCH   9  11
ENDBRANCH   1   8
BRANCH   4  18
ATOM     18  C   UNL     1      43.612   4.666  10.309  0.00  0.00    +0.000 C 
BRANCH  18  19
ATOM     19  N   UNL     1      44.030   3.655   9.340  0.00  0.00    +0.000 NA
ATOM     20  H   UNL     1      43.229   3.394   8.764  0.00  0.00    +0.000 HD
BRANCH  19  21
ATOM     21  C   UNL     1      45.097   4.160   8.476  0.00  0.00    +0.000 C 
BRANCH  21  22
ATOM     22  C   UNL     1      45.924   3.036   7.913  0.00  0.00    +0.000 A 
ATOM     23  C   UNL     1      46.770   3.233   6.817  0.00  0.00    +0.000 A 
ATOM     24  C   UNL     1      47.512   2.167   6.313  0.00  0.00    +0.000 A 
ATOM     25  C   UNL     1      47.380   0.931   6.921  0.00  0.00    +0.000 A 
ATOM     26  N   UNL     1      46.568   0.697   7.975  0.00  0.00    +0.000 NA
ATOM     27  C   UNL     1      45.861   1.751   8.443  0.00  0.00    +0.000 A 
ENDBRANCH  21  22
ENDBRANCH  19  21
ENDBRANCH  18  19
ENDBRANCH   4  18
TORSDOF 7
ENDMDL
MODEL 2
REMARK VINA RESULT:    -7.663      1.095      1.357
REMARK INTER + INTRA:         -11.585
REMARK INTER:                 -10.804
REMARK INTRA:                  -0.781
REMARK UNBOUND:                -0.786
REMARK  Name = 
REMARK  7 active torsions:
REMARK  status: ('A' for Active; 'I' for Inactive)
REMARK    1  A    between atoms: C_2  and  C_11
REMARK    2  A    between atoms: N_3  and  C_4
REMARK    3  A    between atoms: C_4  and  C_5
REMARK    4  A    between atoms: C_14  and  C_15
REMARK    5  A    between atoms: C_15  and  N_16
REMARK    6  A    between atoms: N_16  and  C_17
REMARK    7  A    between atoms: C_17  and  C_18
REMARK                            x       y       z     vdW  Elec       q    Type
REMARK                         _______ _______ _______ _____ _____    ______ ____
ROOT
ATOM      1  C   UNL     1      46.957   5.776  13.136  0.00  0.00    +0.000 A 
ATOM      2  C   UNL     1      46.592   6.592  12.061  0.00  0.00    +0.000 A 
ATOM      3  C   UNL     1      45.537   6.217  11.222  0.00  0.00    +0.000 A 
ATOM      4  C   UNL     1      44.825   5.030  11.453  0.00  0.00    +0.000 A 
ATOM      5  C   UNL     1      45.192   4.224  12.541  0.00  0.00    +0.000 A 
ATOM      6  C   UNL     1      46.248   4.594  13.380  0.00  0.00    +0.000 A 
ENDROOT
BRANCH   1   8
ATOM      7  O   UNL     1      49.147   6.543  13.554  0.00  0.00    +0.000 OA
ATOM      8  C   UNL     1      48.066   6.216  14.027  0.00  0.00    +0.000 C 
ATOM      9  N   UNL     1      47.796   6.211  15.377  0.00  0.00    +0.000 N 
ATOM     10  H   UNL     1      46.993   5.697  15.715  0.00  0.00    +0.000 HD
BRANCH   9  11
ATOM     11  C   UNL     1      48.807   6.580  16.344  0.00  0.00    +0.000 C 
BRANCH  11  12
ATOM     12  C   UNL     1      49.536   5.369  16.847  0.00  0.00    +0.000 A 
ATOM     13  C   UNL     1      48.862   4.171  17.106  0.00  0.00    +0.000 A 
ATOM     14  C   UNL     1      49.566   3.070  17.583  0.00  0.00    +0.000 A 
ATOM     15  C   UNL     1      50.927   3.202  17.789  0.00  0.00    +0.000 A 
ATOM     16  N   UNL     1      51.614   4.340  17.552  0.00  0.00    +0.000 NA
ATOM     17  C   UNL     1      50.904   5.396  17.093  0.00  0.00    +0.000 A 
ENDBRANCH  11  12
ENDBRANCH   9  11
ENDBRANCH   1   8
BRANCH   4  18
ATOM     18  C   UNL     1      43.652   4.647  10.577  0.00  0.00    +0.000 C 
BRANCH  18  19
ATOM     19  N   UNL     1      44.016   3.607   9.617  0.00  0.00    +0.000 NA
ATOM     20  H   UNL     1      43.166   3.205   9.222  0.00  0.00    +0.000 HD
BRANCH  19  21
ATOM     21  C   UNL     1      44.836   4.151   8.534  0.00  0.00    +0.000 C 
BRANCH  21  22
ATOM     22  C   UNL     1      45.764   3.109   7.972  0.00  0.00    +0.000 A 
ATOM     23  C   UNL     1      46.613   3.393   6.898  0.00  0.00    +0.000 A 
ATOM     24  C   UNL     1      47.451   2.401   6.394  0.00  0.00    +0.000 A 
ATOM     25  C   UNL     1      47.408   1.148   6.980  0.00  0.00    +0.000 A 
ATOM     26  N   UNL     1      46.597   0.830   8.011  0.00  0.00    +0.000 NA
ATOM     27  C   UNL     1      45.796   1.814   8.480  0.00  0.00    +0.000 A 
ENDBRANCH  21  22
ENDBRANCH  19  21
ENDBRANCH  18  19
ENDBRANCH   4  18
TORSDOF 7
ENDMDL
MODEL 3
REMARK VINA RESULT:    -7.472      1.599      2.116
REMARK INTER + INTRA:         -11.315
REMARK INTER:                 -10.290
REMARK INTRA:                  -1.025
REMARK UNBOUND:                -0.786
REMARK  Name = 
REMARK  7 active torsions:
REMARK  status: ('A' for Active; 'I' for Inactive)
REMARK    1  A    between atoms: C_2  and  C_11
REMARK    2  A    between atoms: N_3  and  C_4
REMARK    3  A    between atoms: C_4  and  C_5
REMARK    4  A    between atoms: C_14  and  C_15
REMARK    5  A    between atoms: C_15  and  N_16
REMARK    6  A    between atoms: N_16  and  C_17
REMARK    7  A    between atoms: C_17  and  C_18
REMARK                            x       y       z     vdW  Elec       q    Type
REMARK                         _______ _______ _______ _____ _____    ______ ____
ROOT
ATOM      1  C   UNL     1      46.834   5.989  12.706  0.00  0.00    +0.000 A 
ATOM      2  C   UNL     1      46.194   4.951  13.390  0.00  0.00    +0.000 A 
ATOM      3  C   UNL     1      45.128   4.270  12.794  0.00  0.00    +0.000 A 
ATOM      4  C   UNL     1      44.694   4.608  11.503  0.00  0.00    +0.000 A 
ATOM      5  C   UNL     1      45.349   5.643  10.820  0.00  0.00    +0.000 A 
ATOM      6  C   UNL     1      46.415   6.328  11.414  0.00  0.00    +0.000 A 
ENDROOT
BRANCH   1   8
ATOM      7  O   UNL     1      48.984   6.957  12.704  0.00  0.00    +0.000 OA
ATOM      8  C   UNL     1      47.984   6.676  13.355  0.00  0.00    +0.000 C 
ATOM      9  N   UNL     1      47.849   6.947  14.698  0.00  0.00    +0.000 N 
ATOM     10  H   UNL     1      47.129   6.471  15.223  0.00  0.00    +0.000 HD
BRANCH   9  11
ATOM     11  C   UNL     1      48.916   7.577  15.445  0.00  0.00    +0.000 C 
BRANCH  11  12
ATOM     12  C   UNL     1      49.746   6.553  16.162  0.00  0.00    +0.000 A 
ATOM     13  C   UNL     1      51.126   6.718  16.320  0.00  0.00    +0.000 A 
ATOM     14  C   UNL     1      51.868   5.744  16.981  0.00  0.00    +0.000 A 
ATOM     15  C   UNL     1      51.205   4.630  17.463  0.00  0.00    +0.000 A 
ATOM     16  N   UNL     1      49.876   4.433  17.331  0.00  0.00    +0.000 NA
ATOM     17  C   UNL     1      49.179   5.393  16.681  0.00  0.00    +0.000 A 
ENDBRANCH  11  12
ENDBRANCH   9  11
ENDBRANCH   1   8
BRANCH   4  18
ATOM     18  C   UNL     1      43.572   3.840  10.837  0.00  0.00    +0.000 C 
BRANCH  18  19
ATOM     19  N   UNL     1      43.882   3.539   9.441  0.00  0.00    +0.000 NA
ATOM     20  H   UNL     1      44.472   4.280   9.063  0.00  0.00    +0.000 HD
BRANCH  19  21
ATOM     21  C   UNL     1      44.584   2.261   9.320  0.00  0.00    +0.000 C 
BRANCH  21  22
ATOM     22  C   UNL     1      45.687   2.336   8.300  0.00  0.00    +0.000 A 
ATOM     23  C   UNL     1      45.930   3.508   7.575  0.00  0.00    +0.000 A 
ATOM     24  C   UNL     1      46.952   3.539   6.629  0.00  0.00    +0.000 A 
ATOM     25  C   UNL     1      47.698   2.391   6.432  0.00  0.00    +0.000 A 
ATOM     26  N   UNL     1      47.490   1.238   7.103  0.00  0.00    +0.000 NA
ATOM     27  C   UNL     1      46.492   1.237   8.017  0.00  0.00    +0.000 A 
ENDBRANCH  21  22
ENDBRANCH  19  21
ENDBRANCH  18  19
ENDBRANCH   4  18
TORSDOF 7
ENDMDL
MODEL 4
REMARK VINA RESULT:    -7.218      1.792      8.379
REMARK INTER + INTRA:         -10.957
REMARK INTER:                 -10.039
REMARK INTRA:                  -0.919
REMARK UNBOUND:                -0.786
REMARK  Name = 
REMARK  7 active torsions:
REMARK  status: ('A' for Active; 'I' for Inactive)
REMARK    1  A    between atoms: C_2  and  C_11
REMARK    2  A    between atoms: N_3  and  C_4
REMARK    3  A    between atoms: C_4  and  C_5
REMARK    4  A    between atoms: C_14  and  C_15
REMARK    5  A    between atoms: C_15  and  N_16
REMARK    6  A    between atoms: N_16  and  C_17
REMARK    7  A    between atoms: C_17  and  C_18
REMARK                            x       y       z     vdW  Elec       q    Type
REMARK                         _______ _______ _______ _____ _____    ______ ____
ROOT
ATOM      1  C   UNL     1      45.896   5.398  11.728  0.00  0.00    +0.000 A 
ATOM      2  C   UNL     1      46.353   6.647  11.298  0.00  0.00    +0.000 A 
ATOM      3  C   UNL     1      47.091   7.461  12.165  0.00  0.00    +0.000 A 
ATOM      4  C   UNL     1      47.391   7.033  13.467  0.00  0.00    +0.000 A 
ATOM      5  C   UNL     1      46.938   5.773  13.886  0.00  0.00    +0.000 A 
ATOM      6  C   UNL     1      46.198   4.958  13.022  0.00  0.00    +0.000 A 
ENDROOT
BRANCH   1   8
ATOM      7  O   UNL     1      44.386   3.669  11.188  0.00  0.00    +0.000 OA
ATOM      8  C   UNL     1      45.138   4.543  10.773  0.00  0.00    +0.000 C 
ATOM      9  N   UNL     1      45.353   4.790   9.436  0.00  0.00    +0.000 N 
ATOM     10  H   UNL     1      46.159   5.335   9.162  0.00  0.00    +0.000 HD
BRANCH   9  11
ATOM     11  C   UNL     1      44.702   3.998   8.415  0.00  0.00    +0.000 C 
BRANCH  11  12
ATOM     12  C   UNL     1      45.646   2.983   7.841  0.00  0.00    +0.000 A 
ATOM     13  C   UNL     1      46.385   3.252   6.684  0.00  0.00    +0.000 A 
ATOM     14  C   UNL     1      47.244   2.285   6.170  0.00  0.00    +0.000 A 
ATOM     15  C   UNL     1      47.335   1.073   6.832  0.00  0.00    +0.000 A 
ATOM     16  N   UNL     1      46.639   0.775   7.949  0.00  0.00    +0.000 NA
ATOM     17  C   UNL     1      45.809   1.732   8.424  0.00  0.00    +0.000 A 
ENDBRANCH  11  12
ENDBRANCH   9  11
ENDBRANCH   1   8
BRANCH   4  18
ATOM     18  C   UNL     1      48.230   7.891  14.390  0.00  0.00    +0.000 C 
BRANCH  18  19
ATOM     19  N   UNL     1      48.118   7.452  15.780  0.00  0.00    +0.000 NA
ATOM     20  H   UNL     1      47.524   6.624  15.821  0.00  0.00    +0.000 HD
BRANCH  19  21
ATOM     21  C   UNL     1      49.430   7.129  16.340  0.00  0.00    +0.000 C 
BRANCH  21  22
ATOM     22  C   UNL     1      49.511   5.683  16.747  0.00  0.00    +0.000 A 
ATOM     23  C   UNL     1      48.365   4.887  16.841  0.00  0.00    +0.000 A 
ATOM     24  C   UNL     1      48.475   3.556  17.233  0.00  0.00    +0.000 A 
ATOM     25  C   UNL     1      49.734   3.060  17.525  0.00  0.00    +0.000 A 
ATOM     26  N   UNL     1      50.864   3.797  17.455  0.00  0.00    +0.000 NA
ATOM     27  C   UNL     1      50.726   5.087  17.070  0.00  0.00    +0.000 A 
ENDBRANCH  21  22
ENDBRANCH  19  21
ENDBRANCH  18  19
ENDBRANCH   4  18
TORSDOF 7
ENDMDL
MODEL 5
REMARK VINA RESULT:    -7.095      2.602      3.840
REMARK INTER + INTRA:         -10.784
REMARK INTER:                  -9.839
REMARK INTRA:                  -0.945
REMARK UNBOUND:                -0.786
REMARK  Name = 
REMARK  7 active torsions:
REMARK  status: ('A' for Active; 'I' for Inactive)
REMARK    1  A    between atoms: C_2  and  C_11
REMARK    2  A    between atoms: N_3  and  C_4
REMARK    3  A    between atoms: C_4  and  C_5
REMARK    4  A    between atoms: C_14  and  C_15
REMARK    5  A    between atoms: C_15  and  N_16
REMARK    6  A    between atoms: N_16  and  C_17
REMARK    7  A    between atoms: C_17  and  C_18
REMARK                            x       y       z     vdW  Elec       q    Type
REMARK                         _______ _______ _______ _____ _____    ______ ____
ROOT
ATOM      1  C   UNL     1      46.928   6.009  12.824  0.00  0.00    +0.000 A 
ATOM      2  C   UNL     1      46.176   4.898  13.217  0.00  0.00    +0.000 A 
ATOM      3  C   UNL     1      45.066   4.501  12.463  0.00  0.00    +0.000 A 
ATOM      4  C   UNL     1      44.701   5.200  11.302  0.00  0.00    +0.000 A 
ATOM      5  C   UNL     1      45.469   6.307  10.910  0.00  0.00    +0.000 A 
ATOM      6  C   UNL     1      46.578   6.708  11.663  0.00  0.00    +0.000 A 
ENDROOT
BRANCH   1   8
ATOM      7  O   UNL     1      49.206   6.558  13.088  0.00  0.00    +0.000 OA
ATOM      8  C   UNL     1      48.121   6.390  13.631  0.00  0.00    +0.000 C 
ATOM      9  N   UNL     1      47.919   6.519  14.987  0.00  0.00    +0.000 N 
ATOM     10  H   UNL     1      47.084   6.124  15.397  0.00  0.00    +0.000 HD
BRANCH   9  11
ATOM     11  C   UNL     1      49.011   6.847  15.877  0.00  0.00    +0.000 C 
BRANCH  11  12
ATOM     12  C   UNL     1      48.960   8.292  16.279  0.00  0.00    +0.000 A 
ATOM     13  C   UNL     1      48.064   8.743  17.254  0.00  0.00    +0.000 A 
ATOM     14  C   UNL     1      48.034  10.091  17.596  0.00  0.00    +0.000 A 
ATOM     15  C   UNL     1      48.903  10.951  16.947  0.00  0.00    +0.000 A 
ATOM     16  N   UNL     1      49.780  10.556  16.000  0.00  0.00    +0.000 NA
ATOM     17  C   UNL     1      49.786   9.240  15.685  0.00  0.00    +0.000 A 
ENDBRANCH  11  12
ENDBRANCH   9  11
ENDBRANCH   1   8
BRANCH   4  18
ATOM     18  C   UNL     1      43.530   4.743  10.459  0.00  0.00    +0.000 C 
BRANCH  18  19
ATOM     19  N   UNL     1      43.969   4.231   9.163  0.00  0.00    +0.000 NA
ATOM     20  H   UNL     1      44.738   4.806   8.820  0.00  0.00    +0.000 HD
BRANCH  19  21
ATOM     21  C   UNL     1      44.420   2.843   9.268  0.00  0.00    +0.000 C 
BRANCH  21  22
ATOM     22  C   UNL     1      45.600   2.580   8.372  0.00  0.00    +0.000 A 
ATOM     23  C   UNL     1      46.193   3.606   7.629  0.00  0.00    +0.000 A 
ATOM     24  C   UNL     1      47.276   3.325   6.799  0.00  0.00    +0.000 A 
ATOM     25  C   UNL     1      47.730   2.020   6.734  0.00  0.00    +0.000 A 
ATOM     26  N   UNL     1      47.180   0.999   7.427  0.00  0.00    +0.000 NA
ATOM     27  C   UNL     1      46.131   1.302   8.226  0.00  0.00    +0.000 A 
ENDBRANCH  21  22
ENDBRANCH  19  21
ENDBRANCH  18  19
ENDBRANCH   4  18
TORSDOF 7
ENDMDL
MODEL 6
REMARK VINA RESULT:    -7.086      1.763      8.548
REMARK INTER + INTRA:         -10.772
REMARK INTER:                 -10.023
REMARK INTRA:                  -0.749
REMARK UNBOUND:                -0.786
REMARK  Name = 
REMARK  7 active torsions:
REMARK  status: ('A' for Active; 'I' for Inactive)
REMARK    1  A    between atoms: C_2  and  C_11
REMARK    2  A    between atoms: N_3  and  C_4
REMARK    3  A    between atoms: C_4  and  C_5
REMARK    4  A    between atoms: C_14  and  C_15
REMARK    5  A    between atoms: C_15  and  N_16
REMARK    6  A    between atoms: N_16  and  C_17
REMARK    7  A    between atoms: C_17  and  C_18
REMARK                            x       y       z     vdW  Elec       q    Type
REMARK                         _______ _______ _______ _____ _____    ______ ____
ROOT
ATOM      1  C   UNL     1      46.567   4.846  13.564  0.00  0.00    +0.000 A 
ATOM      2  C   UNL     1      46.728   4.268  14.827  0.00  0.00    +0.000 A 
ATOM      3  C   UNL     1      47.634   4.819  15.740  0.00  0.00    +0.000 A 
ATOM      4  C   UNL     1      48.380   5.961  15.410  0.00  0.00    +0.000 A 
ATOM      5  C   UNL     1      48.203   6.540  14.144  0.00  0.00    +0.000 A 
ATOM      6  C   UNL     1      47.300   5.990  13.228  0.00  0.00    +0.000 A 
ENDROOT
BRANCH   1   8
ATOM      7  O   UNL     1      45.094   3.150  12.847  0.00  0.00    +0.000 OA
ATOM      8  C   UNL     1      45.575   4.254  12.624  0.00  0.00    +0.000 C 
ATOM      9  N   UNL     1      45.265   5.010  11.516  0.00  0.00    +0.000 N 
ATOM     10  H   UNL     1      45.872   5.777  11.260  0.00  0.00    +0.000 HD
BRANCH   9  11
ATOM     11  C   UNL     1      44.344   4.523  10.512  0.00  0.00    +0.000 C 
BRANCH  11  12
ATOM     12  C   UNL     1      45.070   3.760   9.444  0.00  0.00    +0.000 A 
ATOM     13  C   UNL     1      45.760   4.420   8.422  0.00  0.00    +0.000 A 
ATOM     14  C   UNL     1      46.413   3.683   7.439  0.00  0.00    +0.000 A 
ATOM     15  C   UNL     1      46.354   2.302   7.509  0.00  0.00    +0.000 A 
ATOM     16  N   UNL     1      45.699   1.628   8.477  0.00  0.00    +0.000 NA
ATOM     17  C   UNL     1      45.070   2.370   9.417  0.00  0.00    +0.000 A 
ENDBRANCH  11  12
ENDBRANCH   9  11
ENDBRANCH   1   8
BRANCH   4  18
ATOM     18  C   UNL     1      49.323   6.587  16.414  0.00  0.00    +0.000 C 
BRANCH  18  19
ATOM     19  N   UNL     1      50.501   5.751  16.637  0.00  0.00    +0.000 NA
ATOM     20  H   UNL     1      51.330   6.344  16.669  0.00  0.00    +0.000 HD
BRANCH  19  21
ATOM     21  C   UNL     1      50.393   5.012  17.895  0.00  0.00    +0.000 C 
BRANCH  21  22
ATOM     22  C   UNL     1      50.987   3.635  17.774  0.00  0.00    +0.000 A 
ATOM     23  C   UNL     1      52.310   3.376  18.148  0.00  0.00    +0.000 A 
ATOM     24  C   UNL     1      52.831   2.092  18.011  0.00  0.00    +0.000 A 
ATOM     25  C   UNL     1      52.011   1.103  17.497  0.00  0.00    +0.000 A 
ATOM     26  N   UNL     1      50.733   1.313  17.115  0.00  0.00    +0.000 NA
ATOM     27  C   UNL     1      50.253   2.569  17.261  0.00  0.00    +0.000 A 
ENDBRANCH  21  22
ENDBRANCH  19  21
ENDBRANCH  18  19
ENDBRANCH   4  18
TORSDOF 7
ENDMDL
MODEL 7
REMARK VINA RESULT:    -7.023      3.319      4.388
REMARK INTER + INTRA:         -10.683
REMARK INTER:                  -9.577
REMARK INTRA:                  -1.106
REMARK UNBOUND:                -0.786
REMARK  Name = 
REMARK  7 active torsions:
REMARK  status: ('A' for Active; 'I' for Inactive)
REMARK    1  A    between atoms: C_2  and  C_11
REMARK    2  A    between atoms: N_3  and  C_4
REMARK    3  A    between atoms: C_4  and  C_5
REMARK    4  A    between atoms: C_14  and  C_15
REMARK    5  A    between atoms: C_15  and  N_16
REMARK    6  A    between atoms: N_16  and  C_17
REMARK    7  A    between atoms: C_17  and  C_18
REMARK                            x       y       z     vdW  Elec       q    Type
REMARK                         _______ _______ _______ _____ _____    ______ ____
ROOT
ATOM      1  C   UNL     1      46.726   5.976  12.587  0.00  0.00    +0.000 A 
ATOM      2  C   UNL     1      46.449   4.779  13.255  0.00  0.00    +0.000 A 
ATOM      3  C   UNL     1      45.500   3.891  12.738  0.00  0.00    +0.000 A 
ATOM      4  C   UNL     1      44.824   4.180  11.543  0.00  0.00    +0.000 A 
ATOM      5  C   UNL     1      45.117   5.378  10.875  0.00  0.00    +0.000 A 
ATOM      6  C   UNL     1      46.064   6.270  11.389  0.00  0.00    +0.000 A 
ENDROOT
BRANCH   1   8
ATOM      7  O   UNL     1      48.226   6.687  14.262  0.00  0.00    +0.000 OA
ATOM      8  C   UNL     1      47.762   6.888  13.146  0.00  0.00    +0.000 C 
ATOM      9  N   UNL     1      48.134   7.945  12.347  0.00  0.00    +0.000 N 
ATOM     10  H   UNL     1      47.544   8.200  11.566  0.00  0.00    +0.000 HD
BRANCH   9  11
ATOM     11  C   UNL     1      49.103   8.920  12.798  0.00  0.00    +0.000 C 
BRANCH  11  12
ATOM     12  C   UNL     1      50.481   8.567  12.321  0.00  0.00    +0.000 A 
ATOM     13  C   UNL     1      50.695   8.051  11.039  0.00  0.00    +0.000 A 
ATOM     14  C   UNL     1      51.984   7.723  10.631  0.00  0.00    +0.000 A 
ATOM     15  C   UNL     1      53.023   7.922  11.522  0.00  0.00    +0.000 A 
ATOM     16  N   UNL     1      52.858   8.417  12.767  0.00  0.00    +0.000 NA
ATOM     17  C   UNL     1      51.594   8.723  13.139  0.00  0.00    +0.000 A 
ENDBRANCH  11  12
ENDBRANCH   9  11
ENDBRANCH   1   8
BRANCH   4  18
ATOM     18  C   UNL     1      43.832   3.199  10.957  0.00  0.00    +0.000 C 
BRANCH  18  19
ATOM     19  N   UNL     1      43.971   3.096   9.506  0.00  0.00    +0.000 NA
ATOM     20  H   UNL     1      44.504   3.896   9.165  0.00  0.00    +0.000 HD
BRANCH  19  21
ATOM     21  C   UNL     1      44.664   1.864   9.127  0.00  0.00    +0.000 C 
BRANCH  21  22
ATOM     22  C   UNL     1      45.828   2.147   8.219  0.00  0.00    +0.000 A 
ATOM     23  C   UNL     1      46.050   3.425   7.694  0.00  0.00    +0.000 A 
ATOM     24  C   UNL     1      47.131   3.649   6.846  0.00  0.00    +0.000 A 
ATOM     25  C   UNL     1      47.958   2.582   6.542  0.00  0.00    +0.000 A 
ATOM     26  N   UNL     1      47.774   1.332   7.019  0.00  0.00    +0.000 NA
ATOM     27  C   UNL     1      46.717   1.145   7.842  0.00  0.00    +0.000 A 
ENDBRANCH  21  22
ENDBRANCH  19  21
ENDBRANCH  18  19
ENDBRANCH   4  18
TORSDOF 7
ENDMDL
MODEL 8
REMARK VINA RESULT:    -6.957      3.294      5.274
REMARK INTER + INTRA:         -10.589
REMARK INTER:                  -9.499
REMARK INTRA:                  -1.090
REMARK UNBOUND:                -0.786
REMARK  Name = 
REMARK  7 active torsions:
REMARK  status: ('A' for Active; 'I' for Inactive)
REMARK    1  A    between atoms: C_2  and  C_11
REMARK    2  A    between atoms: N_3  and  C_4
REMARK    3  A    between atoms: C_4  and  C_5
REMARK    4  A    between atoms: C_14  and  C_15
REMARK    5  A    between atoms: C_15  and  N_16
REMARK    6  A    between atoms: N_16  and  C_17
REMARK    7  A    between atoms: C_17  and  C_18
REMARK                            x       y       z     vdW  Elec       q    Type
REMARK                         _______ _______ _______ _____ _____    ______ ____
ROOT
ATOM      1  C   UNL     1      46.817   5.861  12.544  0.00  0.00    +0.000 A 
ATOM      2  C   UNL     1      46.451   4.706  13.240  0.00  0.00    +0.000 A 
ATOM      3  C   UNL     1      45.459   3.862  12.728  0.00  0.00    +0.000 A 
ATOM      4  C   UNL     1      44.829   4.155  11.509  0.00  0.00    +0.000 A 
ATOM      5  C   UNL     1      45.210   5.311  10.813  0.00  0.00    +0.000 A 
ATOM      6  C   UNL     1      46.200   6.158  11.322  0.00  0.00    +0.000 A 
ENDROOT
BRANCH   1   8
ATOM      7  O   UNL     1      48.067   6.798  14.310  0.00  0.00    +0.000 OA
ATOM      8  C   UNL     1      47.895   6.724  13.099  0.00  0.00    +0.000 C 
ATOM      9  N   UNL     1      48.648   7.421  12.181  0.00  0.00    +0.000 N 
ATOM     10  H   UNL     1      48.301   7.519  11.237  0.00  0.00    +0.000 HD
BRANCH   9  11
ATOM     11  C   UNL     1      49.698   8.321  12.603  0.00  0.00    +0.000 C 
BRANCH  11  12
ATOM     12  C   UNL     1      49.299   9.751  12.386  0.00  0.00    +0.000 A 
ATOM     13  C   UNL     1      49.361  10.338  11.118  0.00  0.00    +0.000 A 
ATOM     14  C   UNL     1      48.994  11.670  10.953  0.00  0.00    +0.000 A 
ATOM     15  C   UNL     1      48.577  12.377  12.066  0.00  0.00    +0.000 A 
ATOM     16  N   UNL     1      48.504  11.848  13.306  0.00  0.00    +0.000 NA
ATOM     17  C   UNL     1      48.870  10.552  13.439  0.00  0.00    +0.000 A 
ENDBRANCH  11  12
ENDBRANCH   9  11
ENDBRANCH   1   8
BRANCH   4  18
ATOM     18  C   UNL     1      43.790   3.218  10.930  0.00  0.00    +0.000 C 
BRANCH  18  19
ATOM     19  N   UNL     1      43.932   3.090   9.481  0.00  0.00    +0.000 NA
ATOM     20  H   UNL     1      44.460   3.887   9.126  0.00  0.00    +0.000 HD
BRANCH  19  21
ATOM     21  C   UNL     1      44.632   1.855   9.126  0.00  0.00    +0.000 C 
BRANCH  21  22
ATOM     22  C   UNL     1      45.806   2.130   8.227  0.00  0.00    +0.000 A 
ATOM     23  C   UNL     1      46.050   3.410   7.718  0.00  0.00    +0.000 A 
ATOM     24  C   UNL     1      47.139   3.627   6.878  0.00  0.00    +0.000 A 
ATOM     25  C   UNL     1      47.951   2.551   6.567  0.00  0.00    +0.000 A 
ATOM     26  N   UNL     1      47.746   1.299   7.029  0.00  0.00    +0.000 NA
ATOM     27  C   UNL     1      46.681   1.118   7.844  0.00  0.00    +0.000 A 
ENDBRANCH  21  22
ENDBRANCH  19  21
ENDBRANCH  18  19
ENDBRANCH   4  18
TORSDOF 7
ENDMDL
MODEL 9
REMARK VINA RESULT:    -6.692      3.485      8.329
REMARK INTER + INTRA:         -10.217
REMARK INTER:                  -9.176
REMARK INTRA:                  -1.041
REMARK UNBOUND:                -0.786
REMARK  Name = 
REMARK  7 active torsions:
REMARK  status: ('A' for Active; 'I' for Inactive)
REMARK    1  A    between atoms: C_2  and  C_11
REMARK    2  A    between atoms: N_3  and  C_4
REMARK    3  A    between atoms: C_4  and  C_5
REMARK    4  A    between atoms: C_14  and  C_15
REMARK    5  A    between atoms: C_15  and  N_16
REMARK    6  A    between atoms: N_16  and  C_17
REMARK    7  A    between atoms: C_17  and  C_18
REMARK                            x       y       z     vdW  Elec       q    Type
REMARK                         _______ _______ _______ _____ _____    ______ ____
ROOT
ATOM      1  C   UNL     1      45.853   5.308  11.785  0.00  0.00    +0.000 A 
ATOM      2  C   UNL     1      46.324   6.572  11.420  0.00  0.00    +0.000 A 
ATOM      3  C   UNL     1      47.076   7.330  12.326  0.00  0.00    +0.000 A 
ATOM      4  C   UNL     1      47.376   6.829  13.602  0.00  0.00    +0.000 A 
ATOM      5  C   UNL     1      46.908   5.555  13.955  0.00  0.00    +0.000 A 
ATOM      6  C   UNL     1      46.155   4.796  13.053  0.00  0.00    +0.000 A 
ENDROOT
BRANCH   1   8
ATOM      7  O   UNL     1      44.255   3.690  11.164  0.00  0.00    +0.000 OA
ATOM      8  C   UNL     1      45.081   4.514  10.790  0.00  0.00    +0.000 C 
ATOM      9  N   UNL     1      45.368   4.758   9.466  0.00  0.00    +0.000 N 
ATOM     10  H   UNL     1      46.220   5.248   9.232  0.00  0.00    +0.000 HD
BRANCH   9  11
ATOM     11  C   UNL     1      44.709   4.020   8.410  0.00  0.00    +0.000 C 
BRANCH  11  12
ATOM     12  C   UNL     1      45.629   2.992   7.820  0.00  0.00    +0.000 A 
ATOM     13  C   UNL     1      46.343   3.246   6.645  0.00  0.00    +0.000 A 
ATOM     14  C   UNL     1      47.179   2.267   6.117  0.00  0.00    +0.000 A 
ATOM     15  C   UNL     1      47.273   1.058   6.783  0.00  0.00    +0.000 A 
ATOM     16  N   UNL     1      46.600   0.773   7.919  0.00  0.00    +0.000 NA
ATOM     17  C   UNL     1      45.792   1.742   8.407  0.00  0.00    +0.000 A 
ENDBRANCH  11  12
ENDBRANCH   9  11
ENDBRANCH   1   8
BRANCH   4  18
ATOM     18  C   UNL     1      48.229   7.626  14.565  0.00  0.00    +0.000 C 
BRANCH  18  19
ATOM     19  N   UNL     1      47.644   8.935  14.844  0.00  0.00    +0.000 NA
ATOM     20  H   UNL     1      47.204   8.914  15.765  0.00  0.00    +0.000 HD
BRANCH  19  21
ATOM     21  C   UNL     1      48.662   9.986  14.824  0.00  0.00    +0.000 C 
BRANCH  21  22
ATOM     22  C   UNL     1      49.038  10.357  13.416  0.00  0.00    +0.000 A 
ATOM     23  C   UNL     1      48.077  10.777  12.491  0.00  0.00    +0.000 A 
ATOM     24  C   UNL     1      48.458  11.101  11.191  0.00  0.00    +0.000 A 
ATOM     25  C   UNL     1      49.795  10.988  10.854  0.00  0.00    +0.000 A 
ATOM     26  N   UNL     1      50.753  10.578  11.712  0.00  0.00    +0.000 NA
ATOM     27  C   UNL     1      50.353  10.271  12.968  0.00  0.00    +0.000 A 
ENDBRANCH  21  22
ENDBRANCH  19  21
ENDBRANCH  18  19
ENDBRANCH   4  18
TORSDOF 7
ENDMDL
