MODEL 1
REMARK VINA RESULT:    -8.262      0.000      0.000
REMARK INTER + INTRA:         -11.534
REMARK INTER:                 -10.677
REMARK INTRA:                  -0.857
REMARK UNBOUND:                -0.857
REMARK  Name = 
REMARK  5 active torsions:
REMARK  status: ('A' for Active; 'I' for Inactive)
REMARK    1  A    between atoms: C_2  and  C_4
REMARK    2  A    between atoms: C_8  and  O_9
REMARK    3  A    between atoms: O_9  and  C_10
REMARK    4  A    between atoms: C_10  and  C_11
REMARK    5  A    between atoms: C_16  and  C_17
REMARK                            x       y       z     vdW  Elec       q    Type
REMARK                         _______ _______ _______ _____ _____    ______ ____
ROOT
ATOM      1  C   UNL     1      44.214   5.103  10.999  0.00  0.00    +0.000 A 
ATOM      2  C   UNL     1      43.401   4.171  11.629  0.00  0.00    +0.000 A 
ATOM      3  F   UNL     1      42.636   4.527  12.670  0.00  0.00    +0.000 F 
ATOM      4  C   UNL     1      43.377   2.871  11.160  0.00  0.00    +0.000 A 
ATOM      5  N   UNL     1      44.112   2.438  10.109  0.00  0.00    +0.000 NA
ATOM      6  C   UNL     1      44.923   3.343   9.486  0.00  0.00    +0.000 A 
ATOM      7  C   UNL     1      44.993   4.670   9.925  0.00  0.00    +0.000 A 
ATOM      8  F   UNL     1      45.807   5.557   9.331  0.00  0.00    +0.000 F 
ENDROOT
BRANCH   6   9
ATOM      9  C   UNL     1      45.706   2.823   8.345  0.00  0.00    +0.000 A 
ATOM     10  C   UNL     1      46.012   3.612   7.221  0.00  0.00    +0.000 A 
ATOM     11  C   UNL     1      46.770   3.111   6.159  0.00  0.00    +0.000 A 
ATOM     12  C   UNL     1      47.233   1.799   6.193  0.00  0.00    +0.000 A 
ATOM     13  C   UNL     1      46.933   0.992   7.284  0.00  0.00    +0.000 A 
ATOM     14  C   UNL     1      46.178   1.496   8.345  0.00  0.00    +0.000 A 
ENDBRANCH   6   9
BRANCH   1  15
ATOM     15  C   UNL     1      44.277   6.522  11.459  0.00  0.00    +0.000 C 
BRANCH  15  16
ATOM     16  O   UNL     1      44.934   6.565  12.724  0.00  0.00    +0.000 OA
BRANCH  16  21
ATOM     17  C   UNL     1      48.323   7.956  12.190  0.00  0.00    +0.000 A 
ATOM     18  C   UNL     1      49.027   6.915  12.777  0.00  0.00    +0.000 A 
ATOM     19  N   UNL     1      48.432   5.836  13.340  0.00  0.00    +0.000 NA
ATOM     20  C   UNL     1      47.078   5.795  13.287  0.00  0.00    +0.000 A 
ATOM     21  C   UNL     1      46.284   6.774  12.697  0.00  0.00    +0.000 A 
ATOM     22  C   UNL     1      46.929   7.872  12.134  0.00  0.00    +0.000 A 
BRANCH  17  24
ATOM     23  N   UNL     1      50.401   8.945  11.427  0.00  0.00    +0.000 N 
ATOM     24  C   UNL     1      49.058   9.107  11.632  0.00  0.00    +0.000 C 
ATOM     25  O   UNL     1      48.490  10.147  11.332  0.00  0.00    +0.000 OA
ATOM     26  H   UNL     1      50.874   9.698  10.943  0.00  0.00    +0.000 HD
ATOM     27  H   UNL     1      50.841   8.034  11.401  0.00  0.00    +0.000 HD
ENDBRANCH  17  24
ENDBRANCH  16  21
ENDBRANCH  15  16
ENDBRANCH   1  15
TORSDOF 5
ENDMDL
MODEL 2
REMARK VINA RESULT:    -8.228      1.525      2.791
REMARK INTER + INTRA:         -11.490
REMARK INTER:                 -11.216
REMARK INTRA:                  -0.273
REMARK UNBOUND:                -0.857
REMARK  Name = 
REMARK  5 active torsions:
REMARK  status: ('A' for Active; 'I' for Inactive)
REMARK    1  A    between atoms: C_2  and  C_4
REMARK    2  A    between atoms: C_8  and  O_9
REMARK    3  A    between atoms: O_9  and  C_10
REMARK    4  A    between atoms: C_10  and  C_11
REMARK    5  A    between atoms: C_16  and  C_17
REMARK                            x       y       z     vdW  Elec       q    Type
REMARK                         _______ _______ _______ _____ _____    ______ ____
ROOT
ATOM      1  C   UNL     1      44.511   5.014  10.691  0.00  0.00    +0.000 A 
ATOM      2  C   UNL     1      43.692   4.102  11.342  0.00  0.00    +0.000 A 
ATOM      3  F   UNL     1      42.954   4.478  12.395  0.00  0.00    +0.000 F 
ATOM      4  C   UNL     1      43.632   2.800  10.880  0.00  0.00    +0.000 A 
ATOM      5  N   UNL     1      44.338   2.348   9.817  0.00  0.00    +0.000 NA
ATOM      6  C   UNL     1      45.155   3.234   9.174  0.00  0.00    +0.000 A 
ATOM      7  C   UNL     1      45.260   4.561   9.604  0.00  0.00    +0.000 A 
ATOM      8  F   UNL     1      46.079   5.429   8.990  0.00  0.00    +0.000 F 
ENDROOT
BRANCH   6   9
ATOM      9  C   UNL     1      45.904   2.692   8.020  0.00  0.00    +0.000 A 
ATOM     10  C   UNL     1      46.130   3.442   6.851  0.00  0.00    +0.000 A 
ATOM     11  C   UNL     1      46.858   2.923   5.778  0.00  0.00    +0.000 A 
ATOM     12  C   UNL     1      47.370   1.630   5.844  0.00  0.00    +0.000 A 
ATOM     13  C   UNL     1      47.149   0.861   6.981  0.00  0.00    +0.000 A 
ATOM     14  C   UNL     1      46.424   1.384   8.053  0.00  0.00    +0.000 A 
ENDBRANCH   6   9
BRANCH   1  15
ATOM     15  C   UNL     1      44.611   6.433  11.143  0.00  0.00    +0.000 C 
BRANCH  15  16
ATOM     16  O   UNL     1      45.983   6.820  11.141  0.00  0.00    +0.000 OA
BRANCH  16  21
ATOM     17  C   UNL     1      47.358   5.430  14.285  0.00  0.00    +0.000 A 
ATOM     18  C   UNL     1      48.157   6.514  14.615  0.00  0.00    +0.000 A 
ATOM     19  N   UNL     1      48.263   7.624  13.844  0.00  0.00    +0.000 NA
ATOM     20  C   UNL     1      47.519   7.648  12.711  0.00  0.00    +0.000 A 
ATOM     21  C   UNL     1      46.668   6.623  12.307  0.00  0.00    +0.000 A 
ATOM     22  C   UNL     1      46.588   5.496  13.120  0.00  0.00    +0.000 A 
BRANCH  17  24
ATOM     23  N   UNL     1      47.049   4.473  16.491  0.00  0.00    +0.000 N 
ATOM     24  C   UNL     1      47.332   4.251  15.171  0.00  0.00    +0.000 C 
ATOM     25  O   UNL     1      47.520   3.121  14.742  0.00  0.00    +0.000 OA
ATOM     26  H   UNL     1      46.924   3.649  17.067  0.00  0.00    +0.000 HD
ATOM     27  H   UNL     1      46.625   5.331  16.819  0.00  0.00    +0.000 HD
ENDBRANCH  17  24
ENDBRANCH  16  21
ENDBRANCH  15  16
ENDBRANCH   1  15
TORSDOF 5
ENDMDL
MODEL 3
REMARK VINA RESULT:    -7.938      2.614      6.489
REMARK INTER + INTRA:         -11.115
REMARK INTER:                 -10.467
REMARK INTRA:                  -0.648
REMARK UNBOUND:                -0.857
REMARK  Name = 
REMARK  5 active torsions:
REMARK  status: ('A' for Active; 'I' for Inactive)
REMARK    1  A    between atoms: C_2  and  C_4
REMARK    2  A    between atoms: C_8  and  O_9
REMARK    3  A    between atoms: O_9  and  C_10
REMARK    4  A    between atoms: C_10  and  C_11
REMARK    5  A    between atoms: C_16  and  C_17
REMARK                            x       y       z     vdW  Elec       q    Type
REMARK                         _______ _______ _______ _____ _____    ______ ____
ROOT
ATOM      1  C   UNL     1      44.969   4.806  11.553  0.00  0.00    +0.000 A 
ATOM      2  C   UNL     1      45.451   3.949  12.533  0.00  0.00    +0.000 A 
ATOM      3  F   UNL     1      44.885   2.751  12.729  0.00  0.00    +0.000 F 
ATOM      4  C   UNL     1      46.535   4.340  13.296  0.00  0.00    +0.000 A 
ATOM      5  N   UNL     1      47.166   5.529  13.150  0.00  0.00    +0.000 NA
ATOM      6  C   UNL     1      46.695   6.385  12.196  0.00  0.00    +0.000 A 
ATOM      7  C   UNL     1      45.596   6.043  11.400  0.00  0.00    +0.000 A 
ATOM      8  F   UNL     1      45.115   6.891  10.477  0.00  0.00    +0.000 F 
ENDROOT
BRANCH   6   9
ATOM      9  C   UNL     1      47.417   7.670  12.075  0.00  0.00    +0.000 A 
ATOM     10  C   UNL     1      48.759   7.742  11.657  0.00  0.00    +0.000 A 
ATOM     11  C   UNL     1      49.420   8.966  11.529  0.00  0.00    +0.000 A 
ATOM     12  C   UNL     1      48.755  10.152  11.829  0.00  0.00    +0.000 A 
ATOM     13  C   UNL     1      47.434  10.109  12.259  0.00  0.00    +0.000 A 
ATOM     14  C   UNL     1      46.775   8.885  12.383  0.00  0.00    +0.000 A 
ENDBRANCH   6   9
BRANCH   1  15
ATOM     15  C   UNL     1      43.804   4.434  10.696  0.00  0.00    +0.000 C 
BRANCH  15  16
ATOM     16  O   UNL     1      44.169   4.603   9.328  0.00  0.00    +0.000 OA
BRANCH  16  21
ATOM     17  C   UNL     1      46.482   2.605   7.237  0.00  0.00    +0.000 A 
ATOM     18  C   UNL     1      46.252   1.383   7.851  0.00  0.00    +0.000 A 
ATOM     19  N   UNL     1      45.413   1.223   8.903  0.00  0.00    +0.000 NA
ATOM     20  C   UNL     1      44.766   2.333   9.336  0.00  0.00    +0.000 A 
ATOM     21  C   UNL     1      44.908   3.597   8.771  0.00  0.00    +0.000 A 
ATOM     22  C   UNL     1      45.782   3.726   7.695  0.00  0.00    +0.000 A 
BRANCH  17  24
ATOM     23  N   UNL     1      48.761   2.505   6.417  0.00  0.00    +0.000 N 
ATOM     24  C   UNL     1      47.439   2.687   6.117  0.00  0.00    +0.000 C 
ATOM     25  O   UNL     1      47.066   2.875   4.967  0.00  0.00    +0.000 OA
ATOM     26  H   UNL     1      49.395   2.453   5.629  0.00  0.00    +0.000 HD
ATOM     27  H   UNL     1      49.069   2.083   7.283  0.00  0.00    +0.000 HD
ENDBRANCH  17  24
ENDBRANCH  16  21
ENDBRANCH  15  16
ENDBRANCH   1  15
TORSDOF 5
ENDMDL
MODEL 4
REMARK VINA RESULT:    -7.558      3.303      4.399
REMARK INTER + INTRA:         -10.624
REMARK INTER:                 -10.075
REMARK INTRA:                  -0.549
REMARK UNBOUND:                -0.857
REMARK  Name = 
REMARK  5 active torsions:
REMARK  status: ('A' for Active; 'I' for Inactive)
REMARK    1  A    between atoms: C_2  and  C_4
REMARK    2  A    between atoms: C_8  and  O_9
REMARK    3  A    between atoms: O_9  and  C_10
REMARK    4  A    between atoms: C_10  and  C_11
REMARK    5  A    between atoms: C_16  and  C_17
REMARK                            x       y       z     vdW  Elec       q    Type
REMARK                         _______ _______ _______ _____ _____    ______ ____
ROOT
ATOM      1  C   UNL     1      44.546   5.846  11.817  0.00  0.00    +0.000 A 
ATOM      2  C   UNL     1      43.384   5.224  12.253  0.00  0.00    +0.000 A 
ATOM      3  F   UNL     1      42.669   5.743  13.260  0.00  0.00    +0.000 F 
ATOM      4  C   UNL     1      42.962   4.068  11.623  0.00  0.00    +0.000 A 
ATOM      5  N   UNL     1      43.623   3.490  10.593  0.00  0.00    +0.000 NA
ATOM      6  C   UNL     1      44.773   4.087  10.162  0.00  0.00    +0.000 A 
ATOM      7  C   UNL     1      45.251   5.254  10.768  0.00  0.00    +0.000 A 
ATOM      8  F   UNL     1      46.393   5.831  10.363  0.00  0.00    +0.000 F 
ENDROOT
BRANCH   6   9
ATOM      9  C   UNL     1      45.458   3.418   9.036  0.00  0.00    +0.000 A 
ATOM     10  C   UNL     1      45.664   2.026   9.001  0.00  0.00    +0.000 A 
ATOM     11  C   UNL     1      46.296   1.406   7.920  0.00  0.00    +0.000 A 
ATOM     12  C   UNL     1      46.750   2.170   6.848  0.00  0.00    +0.000 A 
ATOM     13  C   UNL     1      46.574   3.548   6.862  0.00  0.00    +0.000 A 
ATOM     14  C   UNL     1      45.939   4.164   7.942  0.00  0.00    +0.000 A 
ENDBRANCH   6   9
BRANCH   1  15
ATOM     15  C   UNL     1      45.047   7.099  12.457  0.00  0.00    +0.000 C 
BRANCH  15  16
ATOM     16  O   UNL     1      45.354   8.045  11.435  0.00  0.00    +0.000 OA
BRANCH  16  21
ATOM     17  C   UNL     1      42.518  10.381  10.981  0.00  0.00    +0.000 A 
ATOM     18  C   UNL     1      43.195  11.539  11.335  0.00  0.00    +0.000 A 
ATOM     19  N   UNL     1      44.492  11.555  11.727  0.00  0.00    +0.000 NA
ATOM     20  C   UNL     1      45.135  10.361  11.738  0.00  0.00    +0.000 A 
ATOM     21  C   UNL     1      44.554   9.150  11.375  0.00  0.00    +0.000 A 
ATOM     22  C   UNL     1      43.218   9.171  10.984  0.00  0.00    +0.000 A 
BRANCH  17  24
ATOM     23  N   UNL     1      40.230   9.629  11.258  0.00  0.00    +0.000 N 
ATOM     24  C   UNL     1      41.095  10.459  10.599  0.00  0.00    +0.000 C 
ATOM     25  O   UNL     1      40.699  11.253   9.758  0.00  0.00    +0.000 OA
ATOM     26  H   UNL     1      39.245   9.768  11.068  0.00  0.00    +0.000 HD
ATOM     27  H   UNL     1      40.471   9.173  12.129  0.00  0.00    +0.000 HD
ENDBRANCH  17  24
ENDBRANCH  16  21
ENDBRANCH  15  16
ENDBRANCH   1  15
TORSDOF 5
ENDMDL
MODEL 5
REMARK VINA RESULT:    -7.411      2.328      2.586
REMARK INTER + INTRA:         -10.434
REMARK INTER:                  -9.698
REMARK INTRA:                  -0.736
REMARK UNBOUND:                -0.857
REMARK  Name = 
REMARK  5 active torsions:
REMARK  status: ('A' for Active; 'I' for Inactive)
REMARK    1  A    between atoms: C_2  and  C_4
REMARK    2  A    between atoms: C_8  and  O_9
REMARK    3  A    between atoms: O_9  and  C_10
REMARK    4  A    between atoms: C_10  and  C_11
REMARK    5  A    between atoms: C_16  and  C_17
REMARK                            x       y       z     vdW  Elec       q    Type
REMARK                         _______ _______ _______ _____ _____    ______ ____
ROOT
ATOM      1  C   UNL     1      44.457   4.897  11.789  0.00  0.00    +0.000 A 
ATOM      2  C   UNL     1      43.490   4.004  12.229  0.00  0.00    +0.000 A 
ATOM      3  F   UNL     1      42.781   4.259  13.337  0.00  0.00    +0.000 F 
ATOM      4  C   UNL     1      43.255   2.852  11.503  0.00  0.00    +0.000 A 
ATOM      5  N   UNL     1      43.922   2.530  10.369  0.00  0.00    +0.000 NA
ATOM      6  C   UNL     1      44.883   3.396   9.931  0.00  0.00    +0.000 A 
ATOM      7  C   UNL     1      45.168   4.573  10.632  0.00  0.00    +0.000 A 
ATOM      8  F   UNL     1      46.128   5.415  10.218  0.00  0.00    +0.000 F 
ENDROOT
BRANCH   6   9
ATOM      9  C   UNL     1      45.584   3.000   8.690  0.00  0.00    +0.000 A 
ATOM     10  C   UNL     1      45.820   3.905   7.638  0.00  0.00    +0.000 A 
ATOM     11  C   UNL     1      46.502   3.520   6.481  0.00  0.00    +0.000 A 
ATOM     12  C   UNL     1      46.955   2.211   6.343  0.00  0.00    +0.000 A 
ATOM     13  C   UNL     1      46.723   1.292   7.360  0.00  0.00    +0.000 A 
ATOM     14  C   UNL     1      46.044   1.681   8.516  0.00  0.00    +0.000 A 
ENDBRANCH   6   9
BRANCH   1  15
ATOM     15  C   UNL     1      44.750   6.159  12.531  0.00  0.00    +0.000 C 
BRANCH  15  16
ATOM     16  O   UNL     1      44.284   7.264  11.761  0.00  0.00    +0.000 OA
BRANCH  16  21
ATOM     17  C   UNL     1      45.502  10.757  11.625  0.00  0.00    +0.000 A 
ATOM     18  C   UNL     1      46.819  10.491  11.967  0.00  0.00    +0.000 A 
ATOM     19  N   UNL     1      47.278   9.249  12.253  0.00  0.00    +0.000 NA
ATOM     20  C   UNL     1      46.380   8.237  12.168  0.00  0.00    +0.000 A 
ATOM     21  C   UNL     1      45.046   8.397  11.807  0.00  0.00    +0.000 A 
ATOM     22  C   UNL     1      44.607   9.688  11.526  0.00  0.00    +0.000 A 
BRANCH  17  24
ATOM     23  N   UNL     1      45.660  12.775  10.290  0.00  0.00    +0.000 N 
ATOM     24  C   UNL     1      45.087  12.149  11.362  0.00  0.00    +0.000 C 
ATOM     25  O   UNL     1      44.243  12.707  12.049  0.00  0.00    +0.000 OA
ATOM     26  H   UNL     1      45.288  13.687  10.053  0.00  0.00    +0.000 HD
ATOM     27  H   UNL     1      46.136  12.268   9.555  0.00  0.00    +0.000 HD
ENDBRANCH  17  24
ENDBRANCH  16  21
ENDBRANCH  15  16
ENDBRANCH   1  15
TORSDOF 5
ENDMDL
MODEL 6
REMARK VINA RESULT:    -7.259      2.083      6.365
REMARK INTER + INTRA:         -10.237
REMARK INTER:                  -9.492
REMARK INTRA:                  -0.745
REMARK UNBOUND:                -0.857
REMARK  Name = 
REMARK  5 active torsions:
REMARK  status: ('A' for Active; 'I' for Inactive)
REMARK    1  A    between atoms: C_2  and  C_4
REMARK    2  A    between atoms: C_8  and  O_9
REMARK    3  A    between atoms: O_9  and  C_10
REMARK    4  A    between atoms: C_10  and  C_11
REMARK    5  A    between atoms: C_16  and  C_17
REMARK                            x       y       z     vdW  Elec       q    Type
REMARK                         _______ _______ _______ _____ _____    ______ ____
ROOT
ATOM      1  C   UNL     1      45.459   5.909  12.615  0.00  0.00    +0.000 A 
ATOM      2  C   UNL     1      45.993   4.916  13.423  0.00  0.00    +0.000 A 
ATOM      3  F   UNL     1      45.222   3.922  13.882  0.00  0.00    +0.000 F 
ATOM      4  C   UNL     1      47.339   4.955  13.737  0.00  0.00    +0.000 A 
ATOM      5  N   UNL     1      48.184   5.920  13.302  0.00  0.00    +0.000 NA
ATOM      6  C   UNL     1      47.667   6.908  12.515  0.00  0.00    +0.000 A 
ATOM      7  C   UNL     1      46.311   6.922  12.173  0.00  0.00    +0.000 A 
ATOM      8  F   UNL     1      45.794   7.905  11.418  0.00  0.00    +0.000 F 
ENDROOT
BRANCH   6   9
ATOM      9  C   UNL     1      48.629   7.938  12.067  0.00  0.00    +0.000 A 
ATOM     10  C   UNL     1      49.931   7.616  11.641  0.00  0.00    +0.000 A 
ATOM     11  C   UNL     1      50.821   8.600  11.202  0.00  0.00    +0.000 A 
ATOM     12  C   UNL     1      50.431   9.936  11.189  0.00  0.00    +0.000 A 
ATOM     13  C   UNL     1      49.156  10.284  11.618  0.00  0.00    +0.000 A 
ATOM     14  C   UNL     1      48.267   9.299  12.053  0.00  0.00    +0.000 A 
ENDBRANCH   6   9
BRANCH   1  15
ATOM     15  C   UNL     1      44.013   5.916  12.239  0.00  0.00    +0.000 C 
BRANCH  15  16
ATOM     16  O   UNL     1      43.908   5.881  10.818  0.00  0.00    +0.000 OA
BRANCH  16  21
ATOM     17  C   UNL     1      45.380   3.288   8.623  0.00  0.00    +0.000 A 
ATOM     18  C   UNL     1      44.743   2.198   9.198  0.00  0.00    +0.000 A 
ATOM     19  N   UNL     1      43.905   2.298  10.258  0.00  0.00    +0.000 NA
ATOM     20  C   UNL     1      43.683   3.546  10.739  0.00  0.00    +0.000 A 
ATOM     21  C   UNL     1      44.251   4.704  10.215  0.00  0.00    +0.000 A 
ATOM     22  C   UNL     1      45.112   4.563   9.130  0.00  0.00    +0.000 A 
BRANCH  17  24
ATOM     23  N   UNL     1      46.932   1.864   7.422  0.00  0.00    +0.000 N 
ATOM     24  C   UNL     1      46.302   3.076   7.491  0.00  0.00    +0.000 C 
ATOM     25  O   UNL     1      46.472   3.931   6.633  0.00  0.00    +0.000 OA
ATOM     26  H   UNL     1      47.474   1.688   6.585  0.00  0.00    +0.000 HD
ATOM     27  H   UNL     1      46.613   1.056   7.941  0.00  0.00    +0.000 HD
ENDBRANCH  17  24
ENDBRANCH  16  21
ENDBRANCH  15  16
ENDBRANCH   1  15
TORSDOF 5
ENDMDL
MODEL 7
REMARK VINA RESULT:    -6.855      3.704      6.033
REMARK INTER + INTRA:          -9.715
REMARK INTER:                  -8.581
REMARK INTRA:                  -1.135
REMARK UNBOUND:                -0.857
REMARK  Name = 
REMARK  5 active torsions:
REMARK  status: ('A' for Active; 'I' for Inactive)
REMARK    1  A    between atoms: C_2  and  C_4
REMARK    2  A    between atoms: C_8  and  O_9
REMARK    3  A    between atoms: O_9  and  C_10
REMARK    4  A    between atoms: C_10  and  C_11
REMARK    5  A    between atoms: C_16  and  C_17
REMARK                            x       y       z     vdW  Elec       q    Type
REMARK                         _______ _______ _______ _____ _____    ______ ____
ROOT
ATOM      1  C   UNL     1      47.648   7.528  13.470  0.00  0.00    +0.000 A 
ATOM      2  C   UNL     1      47.021   8.740  13.220  0.00  0.00    +0.000 A 
ATOM      3  F   UNL     1      47.604   9.895  13.569  0.00  0.00    +0.000 F 
ATOM      4  C   UNL     1      45.790   8.745  12.590  0.00  0.00    +0.000 A 
ATOM      5  N   UNL     1      45.143   7.622  12.197  0.00  0.00    +0.000 NA
ATOM      6  C   UNL     1      45.746   6.422  12.447  0.00  0.00    +0.000 A 
ATOM      7  C   UNL     1      46.988   6.359  13.089  0.00  0.00    +0.000 A 
ATOM      8  F   UNL     1      47.573   5.181  13.358  0.00  0.00    +0.000 F 
ENDROOT
BRANCH   6   9
ATOM      9  C   UNL     1      45.001   5.226  12.001  0.00  0.00    +0.000 A 
ATOM     10  C   UNL     1      44.962   4.824  10.653  0.00  0.00    +0.000 A 
ATOM     11  C   UNL     1      44.269   3.679  10.250  0.00  0.00    +0.000 A 
ATOM     12  C   UNL     1      43.586   2.912  11.191  0.00  0.00    +0.000 A 
ATOM     13  C   UNL     1      43.595   3.294  12.527  0.00  0.00    +0.000 A 
ATOM     14  C   UNL     1      44.291   4.436  12.926  0.00  0.00    +0.000 A 
ENDBRANCH   6   9
BRANCH   1  15
ATOM     15  C   UNL     1      48.979   7.463  14.143  0.00  0.00    +0.000 C 
BRANCH  15  16
ATOM     16  O   UNL     1      48.782   7.504  15.555  0.00  0.00    +0.000 OA
BRANCH  16  21
ATOM     17  C   UNL     1      48.698   4.329  17.457  0.00  0.00    +0.000 A 
ATOM     18  C   UNL     1      50.069   4.182  17.603  0.00  0.00    +0.000 A 
ATOM     19  N   UNL     1      50.971   5.052  17.087  0.00  0.00    +0.000 NA
ATOM     20  C   UNL     1      50.469   6.120  16.420  0.00  0.00    +0.000 A 
ATOM     21  C   UNL     1      49.111   6.371  16.244  0.00  0.00    +0.000 A 
ATOM     22  C   UNL     1      48.213   5.453  16.782  0.00  0.00    +0.000 A 
BRANCH  17  24
ATOM     23  N   UNL     1      48.109   2.825  19.266  0.00  0.00    +0.000 N 
ATOM     24  C   UNL     1      47.794   3.311  18.027  0.00  0.00    +0.000 C 
ATOM     25  O   UNL     1      46.788   2.943  17.435  0.00  0.00    +0.000 OA
ATOM     26  H   UNL     1      47.425   2.213  19.693  0.00  0.00    +0.000 HD
ATOM     27  H   UNL     1      48.756   3.296  19.886  0.00  0.00    +0.000 HD
ENDBRANCH  17  24
ENDBRANCH  16  21
ENDBRANCH  15  16
ENDBRANCH   1  15
TORSDOF 5
ENDMDL
MODEL 8
REMARK VINA RESULT:    -6.690      3.301      7.537
REMARK INTER + INTRA:          -9.503
REMARK INTER:                  -8.678
REMARK INTRA:                  -0.825
REMARK UNBOUND:                -0.857
REMARK  Name = 
REMARK  5 active torsions:
REMARK  status: ('A' for Active; 'I' for Inactive)
REMARK    1  A    between atoms: C_2  and  C_4
REMARK    2  A    between atoms: C_8  and  O_9
REMARK    3  A    between atoms: O_9  and  C_10
REMARK    4  A    between atoms: C_10  and  C_11
REMARK    5  A    between atoms: C_16  and  C_17
REMARK                            x       y       z     vdW  Elec       q    Type
REMARK                         _______ _______ _______ _____ _____    ______ ____
ROOT
ATOM      1  C   UNL     1      47.720   7.155  13.140  0.00  0.00    +0.000 A 
ATOM      2  C   UNL     1      48.256   8.369  13.546  0.00  0.00    +0.000 A 
ATOM      3  F   UNL     1      48.254   9.425  12.723  0.00  0.00    +0.000 F 
ATOM      4  C   UNL     1      48.781   8.482  14.820  0.00  0.00    +0.000 A 
ATOM      5  N   UNL     1      48.810   7.464  15.713  0.00  0.00    +0.000 NA
ATOM      6  C   UNL     1      48.294   6.262  15.321  0.00  0.00    +0.000 A 
ATOM      7  C   UNL     1      47.758   6.089  14.040  0.00  0.00    +0.000 A 
ATOM      8  F   UNL     1      47.271   4.903  13.643  0.00  0.00    +0.000 F 
ENDROOT
BRANCH   6   9
ATOM      9  C   UNL     1      48.349   5.182  16.330  0.00  0.00    +0.000 A 
ATOM     10  C   UNL     1      49.452   5.010  17.188  0.00  0.00    +0.000 A 
ATOM     11  C   UNL     1      49.480   3.997  18.150  0.00  0.00    +0.000 A 
ATOM     12  C   UNL     1      48.405   3.121  18.269  0.00  0.00    +0.000 A 
ATOM     13  C   UNL     1      47.309   3.257  17.425  0.00  0.00    +0.000 A 
ATOM     14  C   UNL     1      47.283   4.273  16.467  0.00  0.00    +0.000 A 
ENDBRANCH   6   9
BRANCH   1  15
ATOM     15  C   UNL     1      47.136   6.977  11.777  0.00  0.00    +0.000 C 
BRANCH  15  16
ATOM     16  O   UNL     1      45.718   7.088  11.868  0.00  0.00    +0.000 OA
BRANCH  16  21
ATOM     17  C   UNL     1      44.357   3.991  10.363  0.00  0.00    +0.000 A 
ATOM     18  C   UNL     1      43.411   3.728  11.342  0.00  0.00    +0.000 A 
ATOM     19  N   UNL     1      43.244   4.500  12.444  0.00  0.00    +0.000 NA
ATOM     20  C   UNL     1      44.046   5.588  12.548  0.00  0.00    +0.000 A 
ATOM     21  C   UNL     1      45.005   5.952  11.607  0.00  0.00    +0.000 A 
ATOM     22  C   UNL     1      45.153   5.133  10.491  0.00  0.00    +0.000 A 
BRANCH  17  24
ATOM     23  N   UNL     1      44.368   3.622   7.967  0.00  0.00    +0.000 N 
ATOM     24  C   UNL     1      44.487   3.074   9.214  0.00  0.00    +0.000 C 
ATOM     25  O   UNL     1      44.727   1.884   9.367  0.00  0.00    +0.000 OA
ATOM     26  H   UNL     1      44.568   3.008   7.187  0.00  0.00    +0.000 HD
ATOM     27  H   UNL     1      44.447   4.617   7.800  0.00  0.00    +0.000 HD
ENDBRANCH  17  24
ENDBRANCH  16  21
ENDBRANCH  15  16
ENDBRANCH   1  15
TORSDOF 5
ENDMDL
MODEL 9
REMARK VINA RESULT:    -6.561      4.153      6.165
REMARK INTER + INTRA:          -9.336
REMARK INTER:                  -8.370
REMARK INTRA:                  -0.966
REMARK UNBOUND:                -0.857
REMARK  Name = 
REMARK  5 active torsions:
REMARK  status: ('A' for Active; 'I' for Inactive)
REMARK    1  A    between atoms: C_2  and  C_4
REMARK    2  A    between atoms: C_8  and  O_9
REMARK    3  A    between atoms: O_9  and  C_10
REMARK    4  A    between atoms: C_10  and  C_11
REMARK    5  A    between atoms: C_16  and  C_17
REMARK                            x       y       z     vdW  Elec       q    Type
REMARK                         _______ _______ _______ _____ _____    ______ ____
ROOT
ATOM      1  C   UNL     1      47.890   7.155  14.143  0.00  0.00    +0.000 A 
ATOM      2  C   UNL     1      47.442   8.451  13.934  0.00  0.00    +0.000 A 
ATOM      3  F   UNL     1      48.005   9.480  14.582  0.00  0.00    +0.000 F 
ATOM      4  C   UNL     1      46.416   8.673  13.035  0.00  0.00    +0.000 A 
ATOM      5  N   UNL     1      45.805   7.687  12.334  0.00  0.00    +0.000 NA
ATOM      6  C   UNL     1      46.231   6.406  12.539  0.00  0.00    +0.000 A 
ATOM      7  C   UNL     1      47.260   6.124  13.444  0.00  0.00    +0.000 A 
ATOM      8  F   UNL     1      47.665   4.864  13.666  0.00  0.00    +0.000 F 
ENDROOT
BRANCH   6   9
ATOM      9  C   UNL     1      45.533   5.367  11.753  0.00  0.00    +0.000 A 
ATOM     10  C   UNL     1      45.474   5.400  10.347  0.00  0.00    +0.000 A 
ATOM     11  C   UNL     1      44.828   4.398   9.618  0.00  0.00    +0.000 A 
ATOM     12  C   UNL     1      44.211   3.341  10.282  0.00  0.00    +0.000 A 
ATOM     13  C   UNL     1      44.241   3.291  11.671  0.00  0.00    +0.000 A 
ATOM     14  C   UNL     1      44.891   4.291  12.397  0.00  0.00    +0.000 A 
ENDBRANCH   6   9
BRANCH   1  15
ATOM     15  C   UNL     1      48.998   6.857  15.099  0.00  0.00    +0.000 C 
BRANCH  15  16
ATOM     16  O   UNL     1      48.435   6.548  16.372  0.00  0.00    +0.000 OA
BRANCH  16  21
ATOM     17  C   UNL     1      49.471   3.109  17.273  0.00  0.00    +0.000 A 
ATOM     18  C   UNL     1      48.199   2.597  17.478  0.00  0.00    +0.000 A 
ATOM     19  N   UNL     1      47.069   3.336  17.358  0.00  0.00    +0.000 NA
ATOM     20  C   UNL     1      47.230   4.632  16.995  0.00  0.00    +0.000 A 
ATOM     21  C   UNL     1      48.460   5.232  16.740  0.00  0.00    +0.000 A 
ATOM     22  C   UNL     1      49.599   4.444  16.879  0.00  0.00    +0.000 A 
BRANCH  17  24
ATOM     23  N   UNL     1      51.621   2.680  18.308  0.00  0.00    +0.000 N 
ATOM     24  C   UNL     1      50.645   2.235  17.460  0.00  0.00    +0.000 C 
ATOM     25  O   UNL     1      50.728   1.145  16.910  0.00  0.00    +0.000 OA
ATOM     26  H   UNL     1      52.366   2.026  18.515  0.00  0.00    +0.000 HD
ATOM     27  H   UNL     1      51.463   3.423  18.977  0.00  0.00    +0.000 HD
ENDBRANCH  17  24
ENDBRANCH  16  21
ENDBRANCH  15  16
ENDBRANCH   1  15
TORSDOF 5
ENDMDL
