MODEL 1
REMARK VINA RESULT:    -8.248      0.000      0.000
REMARK INTER + INTRA:         -11.551
REMARK INTER:                 -10.659
REMARK INTRA:                  -0.892
REMARK UNBOUND:                -0.892
REMARK  Name = 
REMARK  5 active torsions:
REMARK  status: ('A' for Active; 'I' for Inactive)
REMARK    1  A    between atoms: C_2  and  C_4
REMARK    2  A    between atoms: C_9  and  O_10
REMARK    3  A    between atoms: O_10  and  C_11
REMARK    4  A    between atoms: C_11  and  C_12
REMARK    5  A    between atoms: C_16  and  C_17
REMARK                            x       y       z     vdW  Elec       q    Type
REMARK                         _______ _______ _______ _____ _____    ______ ____
ROOT
ATOM      1  O   UNL     1      43.879   6.341  12.218  0.00  0.00    +0.000 OA
ENDROOT
BRANCH   1   7
ATOM      2  C   UNL     1      46.974   5.226  13.949  0.00  0.00    +0.000 A 
ATOM      3  C   UNL     1      47.901   6.042  13.297  0.00  0.00    +0.000 A 
ATOM      4  C   UNL     1      47.450   6.922  12.321  0.00  0.00    +0.000 A 
ATOM      5  F   UNL     1      48.333   7.708  11.693  0.00  0.00    +0.000 F 
ATOM      6  C   UNL     1      46.102   7.003  11.986  0.00  0.00    +0.000 A 
ATOM      7  C   UNL     1      45.175   6.180  12.625  0.00  0.00    +0.000 A 
ATOM      8  C   UNL     1      45.615   5.285  13.602  0.00  0.00    +0.000 A 
BRANCH   2  10
ATOM      9  N   UNL     1      47.514   4.760  16.276  0.00  0.00    +0.000 N 
ATOM     10  C   UNL     1      47.376   4.269  15.009  0.00  0.00    +0.000 C 
ATOM     11  O   UNL     1      47.528   3.078  14.769  0.00  0.00    +0.000 OA
ATOM     12  H   UNL     1      47.669   4.075  17.005  0.00  0.00    +0.000 HD
ATOM     13  H   UNL     1      47.156   5.663  16.553  0.00  0.00    +0.000 HD
ENDBRANCH   2  10
ENDBRANCH   1   7
BRANCH   1  14
ATOM     14  C   UNL     1      43.616   6.145  10.828  0.00  0.00    +0.000 C 
BRANCH  14  15
ATOM     15  C   UNL     1      43.878   4.702  10.494  0.00  0.00    +0.000 A 
ATOM     16  C   UNL     1      43.351   3.675  11.274  0.00  0.00    +0.000 A 
ATOM     17  C   UNL     1      43.629   2.369  10.914  0.00  0.00    +0.000 A 
ATOM     18  N   UNL     1      44.397   2.025   9.857  0.00  0.00    +0.000 NA
ATOM     19  C   UNL     1      44.941   3.023   9.113  0.00  0.00    +0.000 A 
ATOM     20  C   UNL     1      44.688   4.363   9.405  0.00  0.00    +0.000 A 
BRANCH  19  21
ATOM     21  C   UNL     1      45.809   2.601   7.992  0.00  0.00    +0.000 A 
ATOM     22  C   UNL     1      46.012   3.436   6.878  0.00  0.00    +0.000 A 
ATOM     23  C   UNL     1      46.836   3.052   5.815  0.00  0.00    +0.000 A 
ATOM     24  C   UNL     1      47.476   1.817   5.841  0.00  0.00    +0.000 A 
ATOM     25  C   UNL     1      47.286   0.964   6.924  0.00  0.00    +0.000 A 
ATOM     26  C   UNL     1      46.460   1.351   7.983  0.00  0.00    +0.000 A 
ENDBRANCH  19  21
ENDBRANCH  14  15
ENDBRANCH   1  14
TORSDOF 5
ENDMDL
MODEL 2
REMARK VINA RESULT:    -7.763      1.788      2.231
REMARK INTER + INTRA:         -10.924
REMARK INTER:                 -10.121
REMARK INTRA:                  -0.803
REMARK UNBOUND:                -0.892
REMARK  Name = 
REMARK  5 active torsions:
REMARK  status: ('A' for Active; 'I' for Inactive)
REMARK    1  A    between atoms: C_2  and  C_4
REMARK    2  A    between atoms: C_9  and  O_10
REMARK    3  A    between atoms: O_10  and  C_11
REMARK    4  A    between atoms: C_11  and  C_12
REMARK    5  A    between atoms: C_16  and  C_17
REMARK                            x       y       z     vdW  Elec       q    Type
REMARK                         _______ _______ _______ _____ _____    ______ ____
ROOT
ATOM      1  O   UNL     1      46.632   5.701  12.877  0.00  0.00    +0.000 OA
ENDROOT
BRANCH   1   7
ATOM      2  C   UNL     1      47.816   4.622  16.233  0.00  0.00    +0.000 A 
ATOM      3  C   UNL     1      48.723   5.651  16.491  0.00  0.00    +0.000 A 
ATOM      4  C   UNL     1      48.890   6.652  15.541  0.00  0.00    +0.000 A 
ATOM      5  F   UNL     1      49.758   7.642  15.783  0.00  0.00    +0.000 F 
ATOM      6  C   UNL     1      48.176   6.644  14.348  0.00  0.00    +0.000 A 
ATOM      7  C   UNL     1      47.279   5.610  14.079  0.00  0.00    +0.000 A 
ATOM      8  C   UNL     1      47.106   4.594  15.022  0.00  0.00    +0.000 A 
BRANCH   2  10
ATOM      9  N   UNL     1      48.639   3.088  17.934  0.00  0.00    +0.000 N 
ATOM     10  C   UNL     1      47.573   3.525  17.202  0.00  0.00    +0.000 C 
ATOM     11  O   UNL     1      46.451   3.065  17.376  0.00  0.00    +0.000 OA
ATOM     12  H   UNL     1      48.433   2.428  18.672  0.00  0.00    +0.000 HD
ATOM     13  H   UNL     1      49.504   3.606  18.000  0.00  0.00    +0.000 HD
ENDBRANCH   2  10
ENDBRANCH   1   7
BRANCH   1  14
ATOM     14  C   UNL     1      45.204   5.691  12.918  0.00  0.00    +0.000 C 
BRANCH  14  15
ATOM     15  C   UNL     1      44.712   4.587  12.022  0.00  0.00    +0.000 A 
ATOM     16  C   UNL     1      43.598   3.824  12.365  0.00  0.00    +0.000 A 
ATOM     17  C   UNL     1      43.197   2.824  11.498  0.00  0.00    +0.000 A 
ATOM     18  N   UNL     1      43.830   2.528  10.342  0.00  0.00    +0.000 NA
ATOM     19  C   UNL     1      44.936   3.247  10.019  0.00  0.00    +0.000 A 
ATOM     20  C   UNL     1      45.388   4.284  10.835  0.00  0.00    +0.000 A 
BRANCH  19  21
ATOM     21  C   UNL     1      45.622   2.861   8.766  0.00  0.00    +0.000 A 
ATOM     22  C   UNL     1      45.911   3.817   7.775  0.00  0.00    +0.000 A 
ATOM     23  C   UNL     1      46.566   3.466   6.589  0.00  0.00    +0.000 A 
ATOM     24  C   UNL     1      46.944   2.146   6.366  0.00  0.00    +0.000 A 
ATOM     25  C   UNL     1      46.661   1.177   7.323  0.00  0.00    +0.000 A 
ATOM     26  C   UNL     1      46.005   1.531   8.506  0.00  0.00    +0.000 A 
ENDBRANCH  19  21
ENDBRANCH  14  15
ENDBRANCH   1  14
TORSDOF 5
ENDMDL
MODEL 3
REMARK VINA RESULT:    -7.643      2.108      2.695
REMARK INTER + INTRA:         -10.768
REMARK INTER:                  -9.886
REMARK INTRA:                  -0.883
REMARK UNBOUND:                -0.892
REMARK  Name = 
REMARK  5 active torsions:
REMARK  status: ('A' for Active; 'I' for Inactive)
REMARK    1  A    between atoms: C_2  and  C_4
REMARK    2  A    between atoms: C_9  and  O_10
REMARK    3  A    between atoms: O_10  and  C_11
REMARK    4  A    between atoms: C_11  and  C_12
REMARK    5  A    between atoms: C_16  and  C_17
REMARK                            x       y       z     vdW  Elec       q    Type
REMARK                         _______ _______ _______ _____ _____    ______ ____
ROOT
ATOM      1  O   UNL     1      44.753   6.606  12.618  0.00  0.00    +0.000 OA
ENDROOT
BRANCH   1   7
ATOM      2  C   UNL     1      48.156   8.073  12.310  0.00  0.00    +0.000 A 
ATOM      3  C   UNL     1      47.806   9.415  12.150  0.00  0.00    +0.000 A 
ATOM      4  C   UNL     1      46.461   9.764  12.157  0.00  0.00    +0.000 A 
ATOM      5  F   UNL     1      46.120  11.049  12.004  0.00  0.00    +0.000 F 
ATOM      6  C   UNL     1      45.466   8.806  12.319  0.00  0.00    +0.000 A 
ATOM      7  C   UNL     1      45.809   7.462  12.466  0.00  0.00    +0.000 A 
ATOM      8  C   UNL     1      47.157   7.096  12.454  0.00  0.00    +0.000 A 
BRANCH   2  10
ATOM      9  N   UNL     1      50.108   7.293  13.536  0.00  0.00    +0.000 N 
ATOM     10  C   UNL     1      49.569   7.624  12.326  0.00  0.00    +0.000 C 
ATOM     11  O   UNL     1      50.212   7.505  11.290  0.00  0.00    +0.000 OA
ATOM     12  H   UNL     1      51.030   6.875  13.514  0.00  0.00    +0.000 HD
ATOM     13  H   UNL     1      49.545   7.137  14.360  0.00  0.00    +0.000 HD
ENDBRANCH   2  10
ENDBRANCH   1   7
BRANCH   1  14
ATOM     14  C   UNL     1      43.890   6.450  11.491  0.00  0.00    +0.000 C 
BRANCH  14  15
ATOM     15  C   UNL     1      43.936   5.011  11.054  0.00  0.00    +0.000 A 
ATOM     16  C   UNL     1      43.235   4.025  11.746  0.00  0.00    +0.000 A 
ATOM     17  C   UNL     1      43.319   2.722  11.293  0.00  0.00    +0.000 A 
ATOM     18  N   UNL     1      44.055   2.339  10.226  0.00  0.00    +0.000 NA
ATOM     19  C   UNL     1      44.767   3.290   9.569  0.00  0.00    +0.000 A 
ATOM     20  C   UNL     1      44.715   4.630   9.956  0.00  0.00    +0.000 A 
BRANCH  19  21
ATOM     21  C   UNL     1      45.591   2.820   8.434  0.00  0.00    +0.000 A 
ATOM     22  C   UNL     1      46.154   1.531   8.433  0.00  0.00    +0.000 A 
ATOM     23  C   UNL     1      46.929   1.071   7.362  0.00  0.00    +0.000 A 
ATOM     24  C   UNL     1      47.162   1.896   6.266  0.00  0.00    +0.000 A 
ATOM     25  C   UNL     1      46.628   3.180   6.244  0.00  0.00    +0.000 A 
ATOM     26  C   UNL     1      45.856   3.636   7.317  0.00  0.00    +0.000 A 
ENDBRANCH  19  21
ENDBRANCH  14  15
ENDBRANCH   1  14
TORSDOF 5
ENDMDL
MODEL 4
REMARK VINA RESULT:    -7.505      2.650      3.452
REMARK INTER + INTRA:         -10.590
REMARK INTER:                  -9.726
REMARK INTRA:                  -0.865
REMARK UNBOUND:                -0.892
REMARK  Name = 
REMARK  5 active torsions:
REMARK  status: ('A' for Active; 'I' for Inactive)
REMARK    1  A    between atoms: C_2  and  C_4
REMARK    2  A    between atoms: C_9  and  O_10
REMARK    3  A    between atoms: O_10  and  C_11
REMARK    4  A    between atoms: C_11  and  C_12
REMARK    5  A    between atoms: C_16  and  C_17
REMARK                            x       y       z     vdW  Elec       q    Type
REMARK                         _______ _______ _______ _____ _____    ______ ____
ROOT
ATOM      1  O   UNL     1      45.655   6.404  12.837  0.00  0.00    +0.000 OA
ENDROOT
BRANCH   1   7
ATOM      2  C   UNL     1      47.201   9.706  12.109  0.00  0.00    +0.000 A 
ATOM      3  C   UNL     1      48.471   9.276  11.718  0.00  0.00    +0.000 A 
ATOM      4  C   UNL     1      48.746   7.915  11.712  0.00  0.00    +0.000 A 
ATOM      5  F   UNL     1      49.962   7.496  11.338  0.00  0.00    +0.000 F 
ATOM      6  C   UNL     1      47.785   6.981  12.086  0.00  0.00    +0.000 A 
ATOM      7  C   UNL     1      46.520   7.405  12.490  0.00  0.00    +0.000 A 
ATOM      8  C   UNL     1      46.232   8.771  12.508  0.00  0.00    +0.000 A 
BRANCH   2  10
ATOM      9  N   UNL     1      45.495  11.442  12.102  0.00  0.00    +0.000 N 
ATOM     10  C   UNL     1      46.827  11.141  12.130  0.00  0.00    +0.000 C 
ATOM     11  O   UNL     1      47.675  12.020  12.221  0.00  0.00    +0.000 OA
ATOM     12  H   UNL     1      45.255  12.416  12.240  0.00  0.00    +0.000 HD
ATOM     13  H   UNL     1      44.777  10.755  12.282  0.00  0.00    +0.000 HD
ENDBRANCH   2  10
ENDBRANCH   1   7
BRANCH   1  14
ATOM     14  C   UNL     1      44.399   6.380  12.158  0.00  0.00    +0.000 C 
BRANCH  14  15
ATOM     15  C   UNL     1      44.223   5.023  11.532  0.00  0.00    +0.000 A 
ATOM     16  C   UNL     1      43.347   4.087  12.077  0.00  0.00    +0.000 A 
ATOM     17  C   UNL     1      43.231   2.858  11.454  0.00  0.00    +0.000 A 
ATOM     18  N   UNL     1      43.930   2.500  10.354  0.00  0.00    +0.000 NA
ATOM     19  C   UNL     1      44.812   3.396   9.840  0.00  0.00    +0.000 A 
ATOM     20  C   UNL     1      44.967   4.663  10.403  0.00  0.00    +0.000 A 
BRANCH  19  21
ATOM     21  C   UNL     1      45.587   2.946   8.663  0.00  0.00    +0.000 A 
ATOM     22  C   UNL     1      45.929   3.844   7.634  0.00  0.00    +0.000 A 
ATOM     23  C   UNL     1      46.668   3.433   6.520  0.00  0.00    +0.000 A 
ATOM     24  C   UNL     1      47.079   2.108   6.407  0.00  0.00    +0.000 A 
ATOM     25  C   UNL     1      46.746   1.195   7.402  0.00  0.00    +0.000 A 
ATOM     26  C   UNL     1      46.006   1.610   8.513  0.00  0.00    +0.000 A 
ENDBRANCH  19  21
ENDBRANCH  14  15
ENDBRANCH   1  14
TORSDOF 5
ENDMDL
MODEL 5
REMARK VINA RESULT:    -7.230      2.388      2.855
REMARK INTER + INTRA:         -10.235
REMARK INTER:                  -9.558
REMARK INTRA:                  -0.678
REMARK UNBOUND:                -0.892
REMARK  Name = 
REMARK  5 active torsions:
REMARK  status: ('A' for Active; 'I' for Inactive)
REMARK    1  A    between atoms: C_2  and  C_4
REMARK    2  A    between atoms: C_9  and  O_10
REMARK    3  A    between atoms: O_10  and  C_11
REMARK    4  A    between atoms: C_11  and  C_12
REMARK    5  A    between atoms: C_16  and  C_17
REMARK                            x       y       z     vdW  Elec       q    Type
REMARK                         _______ _______ _______ _____ _____    ______ ____
ROOT
ATOM      1  O   UNL     1      45.910   6.888  10.989  0.00  0.00    +0.000 OA
ENDROOT
BRANCH   1   7
ATOM      2  C   UNL     1      49.094   7.685  12.735  0.00  0.00    +0.000 A 
ATOM      3  C   UNL     1      48.920   6.910  13.882  0.00  0.00    +0.000 A 
ATOM      4  C   UNL     1      47.758   6.159  14.015  0.00  0.00    +0.000 A 
ATOM      5  F   UNL     1      47.585   5.412  15.113  0.00  0.00    +0.000 F 
ATOM      6  C   UNL     1      46.774   6.169  13.031  0.00  0.00    +0.000 A 
ATOM      7  C   UNL     1      46.937   6.953  11.890  0.00  0.00    +0.000 A 
ATOM      8  C   UNL     1      48.097   7.718  11.747  0.00  0.00    +0.000 A 
BRANCH   2  10
ATOM      9  N   UNL     1      51.514   7.932  12.818  0.00  0.00    +0.000 N 
ATOM     10  C   UNL     1      50.312   8.504  12.516  0.00  0.00    +0.000 C 
ATOM     11  O   UNL     1      50.246   9.628  12.035  0.00  0.00    +0.000 OA
ATOM     12  H   UNL     1      52.337   8.456  12.549  0.00  0.00    +0.000 HD
ATOM     13  H   UNL     1      51.623   6.939  12.971  0.00  0.00    +0.000 HD
ENDBRANCH   2  10
ENDBRANCH   1   7
BRANCH   1  14
ATOM     14  C   UNL     1      44.669   6.371  11.471  0.00  0.00    +0.000 C 
BRANCH  14  15
ATOM     15  C   UNL     1      44.506   4.968  10.954  0.00  0.00    +0.000 A 
ATOM     16  C   UNL     1      43.663   4.059  11.590  0.00  0.00    +0.000 A 
ATOM     17  C   UNL     1      43.558   2.785  11.064  0.00  0.00    +0.000 A 
ATOM     18  N   UNL     1      44.238   2.358   9.977  0.00  0.00    +0.000 NA
ATOM     19  C   UNL     1      45.087   3.229   9.374  0.00  0.00    +0.000 A 
ATOM     20  C   UNL     1      45.229   4.538   9.837  0.00  0.00    +0.000 A 
BRANCH  19  21
ATOM     21  C   UNL     1      45.842   2.707   8.214  0.00  0.00    +0.000 A 
ATOM     22  C   UNL     1      46.087   3.512   7.087  0.00  0.00    +0.000 A 
ATOM     23  C   UNL     1      46.806   3.032   5.987  0.00  0.00    +0.000 A 
ATOM     24  C   UNL     1      47.295   1.730   5.988  0.00  0.00    +0.000 A 
ATOM     25  C   UNL     1      47.058   0.906   7.084  0.00  0.00    +0.000 A 
ATOM     26  C   UNL     1      46.337   1.389   8.180  0.00  0.00    +0.000 A 
ENDBRANCH  19  21
ENDBRANCH  14  15
ENDBRANCH   1  14
TORSDOF 5
ENDMDL
MODEL 6
REMARK VINA RESULT:    -7.176      3.269      7.068
REMARK INTER + INTRA:         -10.165
REMARK INTER:                  -9.340
REMARK INTRA:                  -0.824
REMARK UNBOUND:                -0.892
REMARK  Name = 
REMARK  5 active torsions:
REMARK  status: ('A' for Active; 'I' for Inactive)
REMARK    1  A    between atoms: C_2  and  C_4
REMARK    2  A    between atoms: C_9  and  O_10
REMARK    3  A    between atoms: O_10  and  C_11
REMARK    4  A    between atoms: C_11  and  C_12
REMARK    5  A    between atoms: C_16  and  C_17
REMARK                            x       y       z     vdW  Elec       q    Type
REMARK                         _______ _______ _______ _____ _____    ______ ____
ROOT
ATOM      1  O   UNL     1      45.372   5.754   9.715  0.00  0.00    +0.000 OA
ENDROOT
BRANCH   1   7
ATOM      2  C   UNL     1      46.381   2.957   7.483  0.00  0.00    +0.000 A 
ATOM      3  C   UNL     1      45.610   1.936   8.042  0.00  0.00    +0.000 A 
ATOM      4  C   UNL     1      44.792   2.230   9.126  0.00  0.00    +0.000 A 
ATOM      5  F   UNL     1      44.050   1.256   9.666  0.00  0.00    +0.000 F 
ATOM      6  C   UNL     1      44.731   3.513   9.659  0.00  0.00    +0.000 A 
ATOM      7  C   UNL     1      45.510   4.533   9.113  0.00  0.00    +0.000 A 
ATOM      8  C   UNL     1      46.341   4.250   8.028  0.00  0.00    +0.000 A 
BRANCH   2  10
ATOM      9  N   UNL     1      48.499   2.186   6.565  0.00  0.00    +0.000 N 
ATOM     10  C   UNL     1      47.269   2.725   6.317  0.00  0.00    +0.000 C 
ATOM     11  O   UNL     1      46.896   2.958   5.175  0.00  0.00    +0.000 OA
ATOM     12  H   UNL     1      49.042   1.922   5.752  0.00  0.00    +0.000 HD
ATOM     13  H   UNL     1      48.738   1.753   7.445  0.00  0.00    +0.000 HD
ENDBRANCH   2  10
ENDBRANCH   1   7
BRANCH   1  14
ATOM     14  C   UNL     1      44.782   5.763  11.015  0.00  0.00    +0.000 C 
BRANCH  14  15
ATOM     15  C   UNL     1      45.883   5.664  12.036  0.00  0.00    +0.000 A 
ATOM     16  C   UNL     1      45.783   4.798  13.123  0.00  0.00    +0.000 A 
ATOM     17  C   UNL     1      46.830   4.755  14.025  0.00  0.00    +0.000 A 
ATOM     18  N   UNL     1      47.943   5.515  13.927  0.00  0.00    +0.000 NA
ATOM     19  C   UNL     1      48.030   6.386  12.888  0.00  0.00    +0.000 A 
ATOM     20  C   UNL     1      47.022   6.470  11.928  0.00  0.00    +0.000 A 
BRANCH  19  21
ATOM     21  C   UNL     1      49.246   7.228  12.845  0.00  0.00    +0.000 A 
ATOM     22  C   UNL     1      49.839   7.582  11.619  0.00  0.00    +0.000 A 
ATOM     23  C   UNL     1      50.983   8.384  11.564  0.00  0.00    +0.000 A 
ATOM     24  C   UNL     1      51.565   8.849  12.739  0.00  0.00    +0.000 A 
ATOM     25  C   UNL     1      51.009   8.506  13.967  0.00  0.00    +0.000 A 
ATOM     26  C   UNL     1      49.866   7.703  14.017  0.00  0.00    +0.000 A 
ENDBRANCH  19  21
ENDBRANCH  14  15
ENDBRANCH   1  14
TORSDOF 5
ENDMDL
MODEL 7
REMARK VINA RESULT:    -7.074      1.896      2.276
REMARK INTER + INTRA:         -10.033
REMARK INTER:                  -9.160
REMARK INTRA:                  -0.873
REMARK UNBOUND:                -0.892
REMARK  Name = 
REMARK  5 active torsions:
REMARK  status: ('A' for Active; 'I' for Inactive)
REMARK    1  A    between atoms: C_2  and  C_4
REMARK    2  A    between atoms: C_9  and  O_10
REMARK    3  A    between atoms: O_10  and  C_11
REMARK    4  A    between atoms: C_11  and  C_12
REMARK    5  A    between atoms: C_16  and  C_17
REMARK                            x       y       z     vdW  Elec       q    Type
REMARK                         _______ _______ _______ _____ _____    ______ ____
ROOT
ATOM      1  O   UNL     1      45.712   7.263  12.935  0.00  0.00    +0.000 OA
ENDROOT
BRANCH   1   7
ATOM      2  C   UNL     1      49.202   7.300  14.218  0.00  0.00    +0.000 A 
ATOM      3  C   UNL     1      49.824   7.954  13.153  0.00  0.00    +0.000 A 
ATOM      4  C   UNL     1      49.053   8.353  12.068  0.00  0.00    +0.000 A 
ATOM      5  F   UNL     1      49.644   8.981  11.044  0.00  0.00    +0.000 F 
ATOM      6  C   UNL     1      47.684   8.112  12.026  0.00  0.00    +0.000 A 
ATOM      7  C   UNL     1      47.060   7.447  13.081  0.00  0.00    +0.000 A 
ATOM      8  C   UNL     1      47.824   7.034  14.174  0.00  0.00    +0.000 A 
BRANCH   2  10
ATOM      9  N   UNL     1      51.027   7.608  15.798  0.00  0.00    +0.000 N 
ATOM     10  C   UNL     1      49.954   6.855  15.416  0.00  0.00    +0.000 C 
ATOM     11  O   UNL     1      49.598   5.880  16.067  0.00  0.00    +0.000 OA
ATOM     12  H   UNL     1      51.453   7.361  16.683  0.00  0.00    +0.000 HD
ATOM     13  H   UNL     1      51.193   8.540  15.445  0.00  0.00    +0.000 HD
ENDBRANCH   2  10
ENDBRANCH   1   7
BRANCH   1  14
ATOM     14  C   UNL     1      45.185   7.415  11.617  0.00  0.00    +0.000 C 
BRANCH  14  15
ATOM     15  C   UNL     1      44.678   6.078  11.151  0.00  0.00    +0.000 A 
ATOM     16  C   UNL     1      43.535   5.508  11.707  0.00  0.00    +0.000 A 
ATOM     17  C   UNL     1      43.120   4.276  11.234  0.00  0.00    +0.000 A 
ATOM     18  N   UNL     1      43.767   3.580  10.273  0.00  0.00    +0.000 NA
ATOM     19  C   UNL     1      44.901   4.115   9.752  0.00  0.00    +0.000 A 
ATOM     20  C   UNL     1      45.368   5.363  10.166  0.00  0.00    +0.000 A 
BRANCH  19  21
ATOM     21  C   UNL     1      45.600   3.299   8.735  0.00  0.00    +0.000 A 
ATOM     22  C   UNL     1      46.203   3.899   7.614  0.00  0.00    +0.000 A 
ATOM     23  C   UNL     1      46.873   3.140   6.649  0.00  0.00    +0.000 A 
ATOM     24  C   UNL     1      46.952   1.757   6.782  0.00  0.00    +0.000 A 
ATOM     25  C   UNL     1      46.355   1.134   7.873  0.00  0.00    +0.000 A 
ATOM     26  C   UNL     1      45.685   1.897   8.835  0.00  0.00    +0.000 A 
ENDBRANCH  19  21
ENDBRANCH  14  15
ENDBRANCH   1  14
TORSDOF 5
ENDMDL
MODEL 8
REMARK VINA RESULT:    -6.794      2.970      4.827
REMARK INTER + INTRA:          -9.672
REMARK INTER:                  -8.859
REMARK INTRA:                  -0.813
REMARK UNBOUND:                -0.892
REMARK  Name = 
REMARK  5 active torsions:
REMARK  status: ('A' for Active; 'I' for Inactive)
REMARK    1  A    between atoms: C_2  and  C_4
REMARK    2  A    between atoms: C_9  and  O_10
REMARK    3  A    between atoms: O_10  and  C_11
REMARK    4  A    between atoms: C_11  and  C_12
REMARK    5  A    between atoms: C_16  and  C_17
REMARK                            x       y       z     vdW  Elec       q    Type
REMARK                         _______ _______ _______ _____ _____    ______ ____
ROOT
ATOM      1  O   UNL     1      48.447   7.469  15.038  0.00  0.00    +0.000 OA
ENDROOT
BRANCH   1   7
ATOM      2  C   UNL     1      48.615   4.528  17.307  0.00  0.00    +0.000 A 
ATOM      3  C   UNL     1      49.964   4.596  17.660  0.00  0.00    +0.000 A 
ATOM      4  C   UNL     1      50.746   5.615  17.131  0.00  0.00    +0.000 A 
ATOM      5  F   UNL     1      52.040   5.686  17.466  0.00  0.00    +0.000 F 
ATOM      6  C   UNL     1      50.211   6.561  16.263  0.00  0.00    +0.000 A 
ATOM      7  C   UNL     1      48.867   6.490  15.896  0.00  0.00    +0.000 A 
ATOM      8  C   UNL     1      48.071   5.466  16.415  0.00  0.00    +0.000 A 
BRANCH   2  10
ATOM      9  N   UNL     1      48.078   2.871  19.007  0.00  0.00    +0.000 N 
ATOM     10  C   UNL     1      47.713   3.477  17.839  0.00  0.00    +0.000 C 
ATOM     11  O   UNL     1      46.659   3.199  17.282  0.00  0.00    +0.000 OA
ATOM     12  H   UNL     1      47.396   2.246  19.418  0.00  0.00    +0.000 HD
ATOM     13  H   UNL     1      48.794   3.244  19.615  0.00  0.00    +0.000 HD
ENDBRANCH   2  10
ENDBRANCH   1   7
BRANCH   1  14
ATOM     14  C   UNL     1      48.701   7.254  13.649  0.00  0.00    +0.000 C 
BRANCH  14  15
ATOM     15  C   UNL     1      47.383   7.235  12.924  0.00  0.00    +0.000 A 
ATOM     16  C   UNL     1      46.452   8.257  13.094  0.00  0.00    +0.000 A 
ATOM     17  C   UNL     1      45.260   8.180  12.398  0.00  0.00    +0.000 A 
ATOM     18  N   UNL     1      44.933   7.163  11.571  0.00  0.00    +0.000 NA
ATOM     19  C   UNL     1      45.823   6.147  11.427  0.00  0.00    +0.000 A 
ATOM     20  C   UNL     1      47.054   6.166  12.083  0.00  0.00    +0.000 A 
BRANCH  19  21
ATOM     21  C   UNL     1      45.405   5.034  10.546  0.00  0.00    +0.000 A 
ATOM     22  C   UNL     1      44.744   3.907  11.066  0.00  0.00    +0.000 A 
ATOM     23  C   UNL     1      44.337   2.852  10.242  0.00  0.00    +0.000 A 
ATOM     24  C   UNL     1      44.588   2.900   8.875  0.00  0.00    +0.000 A 
ATOM     25  C   UNL     1      45.250   3.996   8.333  0.00  0.00    +0.000 A 
ATOM     26  C   UNL     1      45.656   5.048   9.160  0.00  0.00    +0.000 A 
ENDBRANCH  19  21
ENDBRANCH  14  15
ENDBRANCH   1  14
TORSDOF 5
ENDMDL
MODEL 9
REMARK VINA RESULT:    -6.691      2.788      7.566
REMARK INTER + INTRA:          -9.538
REMARK INTER:                  -8.605
REMARK INTRA:                  -0.934
REMARK UNBOUND:                -0.892
REMARK  Name = 
REMARK  5 active torsions:
REMARK  status: ('A' for Active; 'I' for Inactive)
REMARK    1  A    between atoms: C_2  and  C_4
REMARK    2  A    between atoms: C_9  and  O_10
REMARK    3  A    between atoms: O_10  and  C_11
REMARK    4  A    between atoms: C_11  and  C_12
REMARK    5  A    between atoms: C_16  and  C_17
REMARK                            x       y       z     vdW  Elec       q    Type
REMARK                         _______ _______ _______ _____ _____    ______ ____
ROOT
ATOM      1  O   UNL     1      46.167   7.369  11.726  0.00  0.00    +0.000 OA
ENDROOT
BRANCH   1   7
ATOM      2  C   UNL     1      44.502   4.322  10.396  0.00  0.00    +0.000 A 
ATOM      3  C   UNL     1      43.514   4.164  11.371  0.00  0.00    +0.000 A 
ATOM      4  C   UNL     1      43.450   5.079  12.414  0.00  0.00    +0.000 A 
ATOM      5  F   UNL     1      42.504   4.934  13.352  0.00  0.00    +0.000 F 
ATOM      6  C   UNL     1      44.345   6.140  12.503  0.00  0.00    +0.000 A 
ATOM      7  C   UNL     1      45.342   6.294  11.540  0.00  0.00    +0.000 A 
ATOM      8  C   UNL     1      45.423   5.377  10.490  0.00  0.00    +0.000 A 
BRANCH   2  10
ATOM      9  N   UNL     1      44.673   2.058   9.521  0.00  0.00    +0.000 N 
ATOM     10  C   UNL     1      44.628   3.394   9.246  0.00  0.00    +0.000 C 
ATOM     11  O   UNL     1      44.639   3.806   8.092  0.00  0.00    +0.000 OA
ATOM     12  H   UNL     1      44.636   1.436   8.723  0.00  0.00    +0.000 HD
ATOM     13  H   UNL     1      44.414   1.677  10.420  0.00  0.00    +0.000 HD
ENDBRANCH   2  10
ENDBRANCH   1   7
BRANCH   1  14
ATOM     14  C   UNL     1      47.567   7.096  11.795  0.00  0.00    +0.000 C 
BRANCH  14  15
ATOM     15  C   UNL     1      48.009   7.243  13.225  0.00  0.00    +0.000 A 
ATOM     16  C   UNL     1      48.534   8.445  13.697  0.00  0.00    +0.000 A 
ATOM     17  C   UNL     1      48.922   8.515  15.023  0.00  0.00    +0.000 A 
ATOM     18  N   UNL     1      48.839   7.481  15.889  0.00  0.00    +0.000 NA
ATOM     19  C   UNL     1      48.360   6.298  15.426  0.00  0.00    +0.000 A 
ATOM     20  C   UNL     1      47.931   6.159  14.105  0.00  0.00    +0.000 A 
BRANCH  19  21
ATOM     21  C   UNL     1      48.326   5.183  16.397  0.00  0.00    +0.000 A 
ATOM     22  C   UNL     1      47.292   4.230  16.371  0.00  0.00    +0.000 A 
ATOM     23  C   UNL     1      47.253   3.166  17.278  0.00  0.00    +0.000 A 
ATOM     24  C   UNL     1      48.250   3.034  18.240  0.00  0.00    +0.000 A 
ATOM     25  C   UNL     1      49.280   3.968  18.298  0.00  0.00    +0.000 A 
ATOM     26  C   UNL     1      49.314   5.030  17.390  0.00  0.00    +0.000 A 
ENDBRANCH  19  21
ENDBRANCH  14  15
ENDBRANCH   1  14
TORSDOF 5
ENDMDL
