MODEL 1
REMARK VINA RESULT:    -7.937      0.000      0.000
REMARK INTER + INTRA:          -9.608
REMARK INTER:                 -10.258
REMARK INTRA:                   0.650
REMARK UNBOUND:                 0.650
REMARK  Name = 
REMARK  5 active torsions:
REMARK  status: ('A' for Active; 'I' for Inactive)
REMARK    1  A    between atoms: C_2  and  C_3
REMARK    2  A    between atoms: C_5  and  C_6
REMARK    3  A    between atoms: N_10  and  C_11
REMARK    4  A    between atoms: C_11  and  C_12
REMARK    5  A    between atoms: C_16  and  C_17
REMARK                            x       y       z     vdW  Elec       q    Type
REMARK                         _______ _______ _______ _____ _____    ______ ____
ROOT
ATOM      1  C   UNL     1      44.524   6.683  11.558  0.00  0.00    +0.000 C 
ATOM      2  C   UNL     1      45.217   6.994  12.879  0.00  0.00    +0.000 C 
ATOM      3  C   UNL     1      45.935   7.245  11.594  0.00  0.00    +0.000 C 
ENDROOT
BRANCH   1   9
ATOM      4  C   UNL     1      42.400  10.823  10.327  0.00  0.00    +0.000 A 
ATOM      5  C   UNL     1      43.547  11.570  10.411  0.00  0.00    +0.000 A 
ATOM      6  C   UNL     1      44.664  10.856  10.757  0.00  0.00    +0.000 A 
ATOM      7  N   UNL     1      44.656   9.536  11.028  0.00  0.00    +0.000 NA
ATOM      8  C   UNL     1      43.491   8.889  10.920  0.00  0.00    +0.000 A 
ATOM      9  N   UNL     1      43.387   7.539  11.223  0.00  0.00    +0.000 N 
ATOM     10  N   UNL     1      42.355   9.495  10.554  0.00  0.00    +0.000 NA
ATOM     11  H   UNL     1      42.554   7.143  10.805  0.00  0.00    +0.000 HD
BRANCH   4  13
ATOM     12  N   UNL     1      40.132  11.917   9.694  0.00  0.00    +0.000 NA
ATOM     13  C   UNL     1      41.146  11.443  10.000  0.00  0.00    +0.000 C 
ENDBRANCH   4  13
BRANCH   6  14
ATOM     14  C   UNL     1      45.944  11.501  10.847  0.00  0.00    +0.000 C 
ATOM     15  N   UNL     1      46.999  11.980  10.932  0.00  0.00    +0.000 NA
ENDBRANCH   6  14
ENDBRANCH   1   9
BRANCH   1  16
ATOM     16  C   UNL     1      44.353   5.221  11.164  0.00  0.00    +0.000 A 
ATOM     17  C   UNL     1      43.494   4.376  11.886  0.00  0.00    +0.000 A 
ATOM     18  C   UNL     1      43.312   3.044  11.524  0.00  0.00    +0.000 A 
ATOM     19  C   UNL     1      44.009   2.519  10.438  0.00  0.00    +0.000 A 
ATOM     20  C   UNL     1      44.915   3.303   9.703  0.00  0.00    +0.000 A 
ATOM     21  C   UNL     1      45.050   4.656  10.077  0.00  0.00    +0.000 A 
BRANCH  20  22
ATOM     22  C   UNL     1      45.720   2.732   8.602  0.00  0.00    +0.000 A 
ATOM     23  C   UNL     1      46.215   3.522   7.559  0.00  0.00    +0.000 A 
ATOM     24  C   UNL     1      46.948   2.932   6.535  0.00  0.00    +0.000 A 
ATOM     25  C   UNL     1      47.169   1.564   6.572  0.00  0.00    +0.000 A 
ATOM     26  C   UNL     1      46.644   0.848   7.633  0.00  0.00    +0.000 A 
ATOM     27  F   UNL     1      46.848  -0.479   7.665  0.00  0.00    +0.000 F 
ATOM     28  N   UNL     1      45.925   1.392   8.636  0.00  0.00    +0.000 NA
ENDBRANCH  20  22
ENDBRANCH   1  16
TORSDOF 5
ENDMDL
MODEL 2
REMARK VINA RESULT:    -7.928      3.256      5.153
REMARK INTER + INTRA:          -9.596
REMARK INTER:                  -8.736
REMARK INTRA:                  -0.860
REMARK UNBOUND:                 0.650
REMARK  Name = 
REMARK  5 active torsions:
REMARK  status: ('A' for Active; 'I' for Inactive)
REMARK    1  A    between atoms: C_2  and  C_3
REMARK    2  A    between atoms: C_5  and  C_6
REMARK    3  A    between atoms: N_10  and  C_11
REMARK    4  A    between atoms: C_11  and  C_12
REMARK    5  A    between atoms: C_16  and  C_17
REMARK                            x       y       z     vdW  Elec       q    Type
REMARK                         _______ _______ _______ _____ _____    ______ ____
ROOT
ATOM      1  C   UNL     1      44.135   5.858  11.360  0.00  0.00    +0.000 C 
ATOM      2  C   UNL     1      42.896   6.688  11.051  0.00  0.00    +0.000 C 
ATOM      3  C   UNL     1      43.109   6.169  12.435  0.00  0.00    +0.000 C 
ENDROOT
BRANCH   1   9
ATOM      4  C   UNL     1      48.577   6.959  12.850  0.00  0.00    +0.000 A 
ATOM      5  C   UNL     1      48.525   6.163  13.965  0.00  0.00    +0.000 A 
ATOM      6  C   UNL     1      47.350   5.475  14.115  0.00  0.00    +0.000 A 
ATOM      7  N   UNL     1      46.306   5.579  13.269  0.00  0.00    +0.000 NA
ATOM      8  C   UNL     1      46.449   6.379  12.208  0.00  0.00    +0.000 A 
ATOM      9  N   UNL     1      45.408   6.576  11.310  0.00  0.00    +0.000 N 
ATOM     10  N   UNL     1      47.571   7.064  11.959  0.00  0.00    +0.000 NA
ATOM     11  H   UNL     1      45.758   6.937  10.432  0.00  0.00    +0.000 HD
BRANCH   4  13
ATOM     12  N   UNL     1      50.658   8.417  12.312  0.00  0.00    +0.000 NA
ATOM     13  C   UNL     1      49.738   7.760  12.578  0.00  0.00    +0.000 C 
ENDBRANCH   4  13
BRANCH   6  14
ATOM     14  C   UNL     1      47.167   4.573  15.219  0.00  0.00    +0.000 C 
ATOM     15  N   UNL     1      47.056   3.865  16.132  0.00  0.00    +0.000 NA
ENDBRANCH   6  14
ENDBRANCH   1   9
BRANCH   1  16
ATOM     16  C   UNL     1      44.194   4.430  10.828  0.00  0.00    +0.000 A 
ATOM     17  C   UNL     1      43.510   3.391  11.479  0.00  0.00    +0.000 A 
ATOM     18  C   UNL     1      43.538   2.086  10.993  0.00  0.00    +0.000 A 
ATOM     19  C   UNL     1      44.276   1.788   9.849  0.00  0.00    +0.000 A 
ATOM     20  C   UNL     1      45.017   2.778   9.179  0.00  0.00    +0.000 A 
ATOM     21  C   UNL     1      44.940   4.093   9.681  0.00  0.00    +0.000 A 
BRANCH  20  22
ATOM     22  C   UNL     1      45.869   2.453   8.015  0.00  0.00    +0.000 A 
ATOM     23  C   UNL     1      46.554   1.238   7.914  0.00  0.00    +0.000 A 
ATOM     24  C   UNL     1      47.360   0.992   6.808  0.00  0.00    +0.000 A 
ATOM     25  C   UNL     1      47.467   1.964   5.826  0.00  0.00    +0.000 A 
ATOM     26  C   UNL     1      46.763   3.143   5.998  0.00  0.00    +0.000 A 
ATOM     27  F   UNL     1      46.874   4.091   5.053  0.00  0.00    +0.000 F 
ATOM     28  N   UNL     1      45.979   3.412   7.062  0.00  0.00    +0.000 NA
ENDBRANCH  20  22
ENDBRANCH   1  16
TORSDOF 5
ENDMDL
MODEL 3
REMARK VINA RESULT:    -7.786      4.741      6.993
REMARK INTER + INTRA:          -9.413
REMARK INTER:                  -8.762
REMARK INTRA:                  -0.651
REMARK UNBOUND:                 0.650
REMARK  Name = 
REMARK  5 active torsions:
REMARK  status: ('A' for Active; 'I' for Inactive)
REMARK    1  A    between atoms: C_2  and  C_3
REMARK    2  A    between atoms: C_5  and  C_6
REMARK    3  A    between atoms: N_10  and  C_11
REMARK    4  A    between atoms: C_11  and  C_12
REMARK    5  A    between atoms: C_16  and  C_17
REMARK                            x       y       z     vdW  Elec       q    Type
REMARK                         _______ _______ _______ _____ _____    ______ ____
ROOT
ATOM      1  C   UNL     1      48.864   7.854  12.655  0.00  0.00    +0.000 C 
ATOM      2  C   UNL     1      49.876   8.269  11.595  0.00  0.00    +0.000 C 
ATOM      3  C   UNL     1      49.417   9.267  12.606  0.00  0.00    +0.000 C 
ENDROOT
BRANCH   1   9
ATOM      4  C   UNL     1      49.592   6.205  17.117  0.00  0.00    +0.000 A 
ATOM      5  C   UNL     1      49.103   7.327  17.736  0.00  0.00    +0.000 A 
ATOM      6  C   UNL     1      48.660   8.299  16.878  0.00  0.00    +0.000 A 
ATOM      7  N   UNL     1      48.718   8.197  15.535  0.00  0.00    +0.000 NA
ATOM      8  C   UNL     1      49.210   7.066  15.022  0.00  0.00    +0.000 A 
ATOM      9  N   UNL     1      49.345   6.896  13.651  0.00  0.00    +0.000 N 
ATOM     10  N   UNL     1      49.634   6.047  15.780  0.00  0.00    +0.000 NA
ATOM     11  H   UNL     1      49.428   5.915  13.419  0.00  0.00    +0.000 HD
BRANCH   4  13
ATOM     12  N   UNL     1      50.530   4.201  18.478  0.00  0.00    +0.000 NA
ATOM     13  C   UNL     1      50.116   5.114  17.891  0.00  0.00    +0.000 C 
ENDBRANCH   4  13
BRANCH   6  14
ATOM     14  C   UNL     1      48.087   9.515  17.384  0.00  0.00    +0.000 C 
ATOM     15  N   UNL     1      47.653  10.495  17.832  0.00  0.00    +0.000 NA
ENDBRANCH   6  14
ENDBRANCH   1   9
BRANCH   1  16
ATOM     16  C   UNL     1      47.417   7.643  12.223  0.00  0.00    +0.000 A 
ATOM     17  C   UNL     1      46.412   8.544  12.610  0.00  0.00    +0.000 A 
ATOM     18  C   UNL     1      45.090   8.375  12.206  0.00  0.00    +0.000 A 
ATOM     19  C   UNL     1      44.740   7.280  11.420  0.00  0.00    +0.000 A 
ATOM     20  C   UNL     1      45.693   6.321  11.037  0.00  0.00    +0.000 A 
ATOM     21  C   UNL     1      47.028   6.541  11.437  0.00  0.00    +0.000 A 
BRANCH  20  22
ATOM     22  C   UNL     1      45.315   5.113  10.273  0.00  0.00    +0.000 A 
ATOM     23  C   UNL     1      44.598   4.063  10.855  0.00  0.00    +0.000 A 
ATOM     24  C   UNL     1      44.286   2.938  10.098  0.00  0.00    +0.000 A 
ATOM     25  C   UNL     1      44.698   2.885   8.775  0.00  0.00    +0.000 A 
ATOM     26  C   UNL     1      45.407   3.961   8.270  0.00  0.00    +0.000 A 
ATOM     27  F   UNL     1      45.817   3.907   6.993  0.00  0.00    +0.000 F 
ATOM     28  N   UNL     1      45.729   5.060   8.982  0.00  0.00    +0.000 NA
ENDBRANCH  20  22
ENDBRANCH   1  16
TORSDOF 5
ENDMDL
MODEL 4
REMARK VINA RESULT:    -7.456      6.179      9.256
REMARK INTER + INTRA:          -8.986
REMARK INTER:                  -8.245
REMARK INTRA:                  -0.741
REMARK UNBOUND:                 0.650
REMARK  Name = 
REMARK  5 active torsions:
REMARK  status: ('A' for Active; 'I' for Inactive)
REMARK    1  A    between atoms: C_2  and  C_3
REMARK    2  A    between atoms: C_5  and  C_6
REMARK    3  A    between atoms: N_10  and  C_11
REMARK    4  A    between atoms: C_11  and  C_12
REMARK    5  A    between atoms: C_16  and  C_17
REMARK                            x       y       z     vdW  Elec       q    Type
REMARK                         _______ _______ _______ _____ _____    ______ ____
ROOT
ATOM      1  C   UNL     1      49.601   7.931  15.817  0.00  0.00    +0.000 C 
ATOM      2  C   UNL     1      49.661   9.365  16.330  0.00  0.00    +0.000 C 
ATOM      3  C   UNL     1      48.526   8.483  16.736  0.00  0.00    +0.000 C 
ENDROOT
BRANCH   1   9
ATOM      4  C   UNL     1      51.273   3.780  17.587  0.00  0.00    +0.000 A 
ATOM      5  C   UNL     1      50.038   3.193  17.689  0.00  0.00    +0.000 A 
ATOM      6  C   UNL     1      49.000   3.980  17.264  0.00  0.00    +0.000 A 
ATOM      7  N   UNL     1      49.151   5.239  16.809  0.00  0.00    +0.000 NA
ATOM      8  C   UNL     1      50.393   5.728  16.744  0.00  0.00    +0.000 A 
ATOM      9  N   UNL     1      50.633   7.031  16.329  0.00  0.00    +0.000 N 
ATOM     10  N   UNL     1      51.472   5.022  17.104  0.00  0.00    +0.000 NA
ATOM     11  H   UNL     1      51.597   7.142  16.042  0.00  0.00    +0.000 HD
BRANCH   4  13
ATOM     12  N   UNL     1      53.375   2.490  18.401  0.00  0.00    +0.000 NA
ATOM     13  C   UNL     1      52.451   3.083  18.021  0.00  0.00    +0.000 C 
ENDBRANCH   4  13
BRANCH   6  14
ATOM     14  C   UNL     1      47.653   3.482  17.278  0.00  0.00    +0.000 C 
ATOM     15  N   UNL     1      46.548   3.124  17.286  0.00  0.00    +0.000 NA
ENDBRANCH   6  14
ENDBRANCH   1   9
BRANCH   1  16
ATOM     16  C   UNL     1      49.236   7.707  14.353  0.00  0.00    +0.000 A 
ATOM     17  C   UNL     1      50.054   8.200  13.324  0.00  0.00    +0.000 A 
ATOM     18  C   UNL     1      49.744   7.985  11.984  0.00  0.00    +0.000 A 
ATOM     19  C   UNL     1      48.588   7.286  11.643  0.00  0.00    +0.000 A 
ATOM     20  C   UNL     1      47.707   6.806  12.628  0.00  0.00    +0.000 A 
ATOM     21  C   UNL     1      48.069   7.014  13.975  0.00  0.00    +0.000 A 
BRANCH  20  22
ATOM     22  C   UNL     1      46.438   6.137  12.273  0.00  0.00    +0.000 A 
ATOM     23  C   UNL     1      45.520   5.727  13.246  0.00  0.00    +0.000 A 
ATOM     24  C   UNL     1      44.349   5.081  12.861  0.00  0.00    +0.000 A 
ATOM     25  C   UNL     1      44.121   4.856  11.512  0.00  0.00    +0.000 A 
ATOM     26  C   UNL     1      45.077   5.286  10.609  0.00  0.00    +0.000 A 
ATOM     27  F   UNL     1      44.863   5.059   9.303  0.00  0.00    +0.000 F 
ATOM     28  N   UNL     1      46.223   5.909  10.954  0.00  0.00    +0.000 NA
ENDBRANCH  20  22
ENDBRANCH   1  16
TORSDOF 5
ENDMDL
MODEL 5
REMARK VINA RESULT:    -7.427      4.317      7.074
REMARK INTER + INTRA:          -8.948
REMARK INTER:                  -8.975
REMARK INTRA:                   0.027
REMARK UNBOUND:                 0.650
REMARK  Name = 
REMARK  5 active torsions:
REMARK  status: ('A' for Active; 'I' for Inactive)
REMARK    1  A    between atoms: C_2  and  C_3
REMARK    2  A    between atoms: C_5  and  C_6
REMARK    3  A    between atoms: N_10  and  C_11
REMARK    4  A    between atoms: C_11  and  C_12
REMARK    5  A    between atoms: C_16  and  C_17
REMARK                            x       y       z     vdW  Elec       q    Type
REMARK                         _______ _______ _______ _____ _____    ______ ____
ROOT
ATOM      1  C   UNL     1      48.733   8.447  12.760  0.00  0.00    +0.000 C 
ATOM      2  C   UNL     1      49.865   7.951  11.869  0.00  0.00    +0.000 C 
ATOM      3  C   UNL     1      49.594   9.416  11.968  0.00  0.00    +0.000 C 
ENDROOT
BRANCH   1   9
ATOM      4  C   UNL     1      48.646   6.000  16.903  0.00  0.00    +0.000 A 
ATOM      5  C   UNL     1      48.036   4.894  16.371  0.00  0.00    +0.000 A 
ATOM      6  C   UNL     1      47.774   4.982  15.029  0.00  0.00    +0.000 A 
ATOM      7  N   UNL     1      48.054   6.067  14.280  0.00  0.00    +0.000 NA
ATOM      8  C   UNL     1      48.650   7.099  14.885  0.00  0.00    +0.000 A 
ATOM      9  N   UNL     1      48.935   8.270  14.198  0.00  0.00    +0.000 N 
ATOM     10  N   UNL     1      48.977   7.091  16.184  0.00  0.00    +0.000 NA
ATOM     11  H   UNL     1      49.639   8.808  14.686  0.00  0.00    +0.000 HD
BRANCH   4  13
ATOM     12  N   UNL     1      49.226   6.154  19.430  0.00  0.00    +0.000 NA
ATOM     13  C   UNL     1      48.956   6.060  18.305  0.00  0.00    +0.000 C 
ENDBRANCH   4  13
BRANCH   6  14
ATOM     14  C   UNL     1      47.171   3.883  14.328  0.00  0.00    +0.000 C 
ATOM     15  N   UNL     1      46.667   3.025  13.729  0.00  0.00    +0.000 NA
ENDBRANCH   6  14
ENDBRANCH   1   9
BRANCH   1  16
ATOM     16  C   UNL     1      47.300   8.225  12.291  0.00  0.00    +0.000 A 
ATOM     17  C   UNL     1      46.337   9.240  12.414  0.00  0.00    +0.000 A 
ATOM     18  C   UNL     1      45.030   9.058  11.971  0.00  0.00    +0.000 A 
ATOM     19  C   UNL     1      44.650   7.840  11.412  0.00  0.00    +0.000 A 
ATOM     20  C   UNL     1      45.557   6.772  11.301  0.00  0.00    +0.000 A 
ATOM     21  C   UNL     1      46.881   7.002  11.731  0.00  0.00    +0.000 A 
BRANCH  20  22
ATOM     22  C   UNL     1      45.141   5.451  10.786  0.00  0.00    +0.000 A 
ATOM     23  C   UNL     1      45.457   5.028   9.491  0.00  0.00    +0.000 A 
ATOM     24  C   UNL     1      45.022   3.783   9.047  0.00  0.00    +0.000 A 
ATOM     25  C   UNL     1      44.278   2.988   9.905  0.00  0.00    +0.000 A 
ATOM     26  C   UNL     1      44.001   3.476  11.170  0.00  0.00    +0.000 A 
ATOM     27  F   UNL     1      43.272   2.712  11.998  0.00  0.00    +0.000 F 
ATOM     28  N   UNL     1      44.405   4.680  11.625  0.00  0.00    +0.000 NA
ENDBRANCH  20  22
ENDBRANCH   1  16
TORSDOF 5
ENDMDL
MODEL 6
REMARK VINA RESULT:    -7.382      5.526      8.199
REMARK INTER + INTRA:          -8.890
REMARK INTER:                  -8.418
REMARK INTRA:                  -0.472
REMARK UNBOUND:                 0.650
REMARK  Name = 
REMARK  5 active torsions:
REMARK  status: ('A' for Active; 'I' for Inactive)
REMARK    1  A    between atoms: C_2  and  C_3
REMARK    2  A    between atoms: C_5  and  C_6
REMARK    3  A    between atoms: N_10  and  C_11
REMARK    4  A    between atoms: C_11  and  C_12
REMARK    5  A    between atoms: C_16  and  C_17
REMARK                            x       y       z     vdW  Elec       q    Type
REMARK                         _______ _______ _______ _____ _____    ______ ____
ROOT
ATOM      1  C   UNL     1      48.560   8.345  12.552  0.00  0.00    +0.000 C 
ATOM      2  C   UNL     1      49.262   9.394  11.700  0.00  0.00    +0.000 C 
ATOM      3  C   UNL     1      49.694   7.967  11.616  0.00  0.00    +0.000 C 
ENDROOT
BRANCH   1   9
ATOM      4  C   UNL     1      44.511   5.744  12.518  0.00  0.00    +0.000 A 
ATOM      5  C   UNL     1      45.056   4.673  13.177  0.00  0.00    +0.000 A 
ATOM      6  C   UNL     1      46.373   4.831  13.522  0.00  0.00    +0.000 A 
ATOM      7  N   UNL     1      47.100   5.925  13.223  0.00  0.00    +0.000 NA
ATOM      8  C   UNL     1      46.483   6.920  12.579  0.00  0.00    +0.000 A 
ATOM      9  N   UNL     1      47.170   8.064  12.195  0.00  0.00    +0.000 N 
ATOM     10  N   UNL     1      45.192   6.871  12.231  0.00  0.00    +0.000 NA
ATOM     11  H   UNL     1      46.525   8.822  12.011  0.00  0.00    +0.000 HD
BRANCH   4  13
ATOM     12  N   UNL     1      42.049   5.631  11.699  0.00  0.00    +0.000 NA
ATOM     13  C   UNL     1      43.146   5.709  12.070  0.00  0.00    +0.000 C 
ENDBRANCH   4  13
BRANCH   6  14
ATOM     14  C   UNL     1      47.066   3.804  14.249  0.00  0.00    +0.000 C 
ATOM     15  N   UNL     1      47.651   3.008  14.859  0.00  0.00    +0.000 NA
ENDBRANCH   6  14
ENDBRANCH   1   9
BRANCH   1  16
ATOM     16  C   UNL     1      48.842   8.329  14.050  0.00  0.00    +0.000 A 
ATOM     17  C   UNL     1      48.482   9.417  14.862  0.00  0.00    +0.000 A 
ATOM     18  C   UNL     1      48.715   9.409  16.234  0.00  0.00    +0.000 A 
ATOM     19  C   UNL     1      49.339   8.312  16.825  0.00  0.00    +0.000 A 
ATOM     20  C   UNL     1      49.762   7.212  16.058  0.00  0.00    +0.000 A 
ATOM     21  C   UNL     1      49.481   7.241  14.676  0.00  0.00    +0.000 A 
BRANCH  20  22
ATOM     22  C   UNL     1      50.499   6.082  16.663  0.00  0.00    +0.000 A 
ATOM     23  C   UNL     1      51.871   6.147  16.922  0.00  0.00    +0.000 A 
ATOM     24  C   UNL     1      52.522   5.047  17.473  0.00  0.00    +0.000 A 
ATOM     25  C   UNL     1      51.788   3.904  17.752  0.00  0.00    +0.000 A 
ATOM     26  C   UNL     1      50.434   3.914  17.464  0.00  0.00    +0.000 A 
ATOM     27  F   UNL     1      49.724   2.805  17.723  0.00  0.00    +0.000 F 
ATOM     28  N   UNL     1      49.779   4.962  16.925  0.00  0.00    +0.000 NA
ENDBRANCH  20  22
ENDBRANCH   1  16
TORSDOF 5
ENDMDL
MODEL 7
REMARK VINA RESULT:    -7.206      3.260      3.990
REMARK INTER + INTRA:          -8.662
REMARK INTER:                  -8.126
REMARK INTRA:                  -0.537
REMARK UNBOUND:                 0.650
REMARK  Name = 
REMARK  5 active torsions:
REMARK  status: ('A' for Active; 'I' for Inactive)
REMARK    1  A    between atoms: C_2  and  C_3
REMARK    2  A    between atoms: C_5  and  C_6
REMARK    3  A    between atoms: N_10  and  C_11
REMARK    4  A    between atoms: C_11  and  C_12
REMARK    5  A    between atoms: C_16  and  C_17
REMARK                            x       y       z     vdW  Elec       q    Type
REMARK                         _______ _______ _______ _____ _____    ______ ____
ROOT
ATOM      1  C   UNL     1      46.294   5.870  13.180  0.00  0.00    +0.000 C 
ATOM      2  C   UNL     1      46.312   5.098  14.493  0.00  0.00    +0.000 C 
ATOM      3  C   UNL     1      47.487   5.019  13.576  0.00  0.00    +0.000 C 
ENDROOT
BRANCH   1   9
ATOM      4  C   UNL     1      48.178  10.240  12.468  0.00  0.00    +0.000 A 
ATOM      5  C   UNL     1      49.319   9.777  11.865  0.00  0.00    +0.000 A 
ATOM      6  C   UNL     1      49.380   8.414  11.741  0.00  0.00    +0.000 A 
ATOM      7  N   UNL     1      48.427   7.576  12.194  0.00  0.00    +0.000 NA
ATOM      8  C   UNL     1      47.349   8.119  12.768  0.00  0.00    +0.000 A 
ATOM      9  N   UNL     1      46.341   7.327  13.299  0.00  0.00    +0.000 N 
ATOM     10  N   UNL     1      47.184   9.441  12.902  0.00  0.00    +0.000 NA
ATOM     11  H   UNL     1      45.487   7.859  13.405  0.00  0.00    +0.000 HD
BRANCH   4  13
ATOM     12  N   UNL     1      47.884  12.792  12.857  0.00  0.00    +0.000 NA
ATOM     13  C   UNL     1      47.988  11.647  12.689  0.00  0.00    +0.000 C 
ENDBRANCH   4  13
BRANCH   6  14
ATOM     14  C   UNL     1      50.501   7.789  11.096  0.00  0.00    +0.000 C 
ATOM     15  N   UNL     1      51.403   7.315  10.538  0.00  0.00    +0.000 NA
ENDBRANCH   6  14
ENDBRANCH   1   9
BRANCH   1  16
ATOM     16  C   UNL     1      45.398   5.357  12.058  0.00  0.00    +0.000 A 
ATOM     17  C   UNL     1      44.004   5.512  12.122  0.00  0.00    +0.000 A 
ATOM     18  C   UNL     1      43.175   5.067  11.095  0.00  0.00    +0.000 A 
ATOM     19  C   UNL     1      43.727   4.432   9.985  0.00  0.00    +0.000 A 
ATOM     20  C   UNL     1      45.112   4.209   9.884  0.00  0.00    +0.000 A 
ATOM     21  C   UNL     1      45.923   4.701  10.927  0.00  0.00    +0.000 A 
BRANCH  20  22
ATOM     22  C   UNL     1      45.696   3.463   8.749  0.00  0.00    +0.000 A 
ATOM     23  C   UNL     1      46.138   4.106   7.589  0.00  0.00    +0.000 A 
ATOM     24  C   UNL     1      46.660   3.355   6.540  0.00  0.00    +0.000 A 
ATOM     25  C   UNL     1      46.728   1.977   6.672  0.00  0.00    +0.000 A 
ATOM     26  C   UNL     1      46.268   1.411   7.849  0.00  0.00    +0.000 A 
ATOM     27  F   UNL     1      46.324   0.076   7.974  0.00  0.00    +0.000 F 
ATOM     28  N   UNL     1      45.752   2.113   8.878  0.00  0.00    +0.000 NA
ENDBRANCH  20  22
ENDBRANCH   1  16
TORSDOF 5
ENDMDL
MODEL 8
REMARK VINA RESULT:    -7.113      6.612      8.488
REMARK INTER + INTRA:          -8.542
REMARK INTER:                  -8.243
REMARK INTRA:                  -0.300
REMARK UNBOUND:                 0.650
REMARK  Name = 
REMARK  5 active torsions:
REMARK  status: ('A' for Active; 'I' for Inactive)
REMARK    1  A    between atoms: C_2  and  C_3
REMARK    2  A    between atoms: C_5  and  C_6
REMARK    3  A    between atoms: N_10  and  C_11
REMARK    4  A    between atoms: C_11  and  C_12
REMARK    5  A    between atoms: C_16  and  C_17
REMARK                            x       y       z     vdW  Elec       q    Type
REMARK                         _______ _______ _______ _____ _____    ______ ____
ROOT
ATOM      1  C   UNL     1      47.791   4.498  17.112  0.00  0.00    +0.000 C 
ATOM      2  C   UNL     1      47.544   3.002  17.265  0.00  0.00    +0.000 C 
ATOM      3  C   UNL     1      48.931   3.538  17.402  0.00  0.00    +0.000 C 
ENDROOT
BRANCH   1   9
ATOM      4  C   UNL     1      47.993   7.818  20.589  0.00  0.00    +0.000 A 
ATOM      5  C   UNL     1      49.356   7.959  20.535  0.00  0.00    +0.000 A 
ATOM      6  C   UNL     1      49.969   7.175  19.593  0.00  0.00    +0.000 A 
ATOM      7  N   UNL     1      49.313   6.308  18.797  0.00  0.00    +0.000 NA
ATOM      8  C   UNL     1      47.984   6.240  18.920  0.00  0.00    +0.000 A 
ATOM      9  N   UNL     1      47.237   5.343  18.169  0.00  0.00    +0.000 N 
ATOM     10  N   UNL     1      47.294   6.991  19.787  0.00  0.00    +0.000 NA
ATOM     11  H   UNL     1      46.264   5.622  18.145  0.00  0.00    +0.000 HD
BRANCH   4  13
ATOM     12  N   UNL     1      46.565   9.172  22.285  0.00  0.00    +0.000 NA
ATOM     13  C   UNL     1      47.220   8.558  21.548  0.00  0.00    +0.000 C 
ENDBRANCH   4  13
BRANCH   6  14
ATOM     14  C   UNL     1      51.390   7.244  19.398  0.00  0.00    +0.000 C 
ATOM     15  N   UNL     1      52.544   7.259  19.265  0.00  0.00    +0.000 NA
ENDBRANCH   6  14
ENDBRANCH   1   9
BRANCH   1  16
ATOM     16  C   UNL     1      47.710   5.100  15.714  0.00  0.00    +0.000 A 
ATOM     17  C   UNL     1      48.534   6.176  15.345  0.00  0.00    +0.000 A 
ATOM     18  C   UNL     1      48.485   6.722  14.065  0.00  0.00    +0.000 A 
ATOM     19  C   UNL     1      47.588   6.215  13.128  0.00  0.00    +0.000 A 
ATOM     20  C   UNL     1      46.707   5.168  13.451  0.00  0.00    +0.000 A 
ATOM     21  C   UNL     1      46.806   4.617  14.746  0.00  0.00    +0.000 A 
BRANCH  20  22
ATOM     22  C   UNL     1      45.696   4.679  12.490  0.00  0.00    +0.000 A 
ATOM     23  C   UNL     1      45.481   5.307  11.259  0.00  0.00    +0.000 A 
ATOM     24  C   UNL     1      44.501   4.821  10.399  0.00  0.00    +0.000 A 
ATOM     25  C   UNL     1      43.755   3.719  10.788  0.00  0.00    +0.000 A 
ATOM     26  C   UNL     1      44.023   3.154  12.022  0.00  0.00    +0.000 A 
ATOM     27  F   UNL     1      43.294   2.094  12.405  0.00  0.00    +0.000 F 
ATOM     28  N   UNL     1      44.961   3.608  12.878  0.00  0.00    +0.000 NA
ENDBRANCH  20  22
ENDBRANCH   1  16
TORSDOF 5
ENDMDL
MODEL 9
REMARK VINA RESULT:    -6.871      7.049      9.655
REMARK INTER + INTRA:          -8.230
REMARK INTER:                  -8.223
REMARK INTRA:                  -0.007
REMARK UNBOUND:                 0.650
REMARK  Name = 
REMARK  5 active torsions:
REMARK  status: ('A' for Active; 'I' for Inactive)
REMARK    1  A    between atoms: C_2  and  C_3
REMARK    2  A    between atoms: C_5  and  C_6
REMARK    3  A    between atoms: N_10  and  C_11
REMARK    4  A    between atoms: C_11  and  C_12
REMARK    5  A    between atoms: C_16  and  C_17
REMARK                            x       y       z     vdW  Elec       q    Type
REMARK                         _______ _______ _______ _____ _____    ______ ____
ROOT
ATOM      1  C   UNL     1      48.182   4.738  16.671  0.00  0.00    +0.000 C 
ATOM      2  C   UNL     1      47.018   4.234  17.515  0.00  0.00    +0.000 C 
ATOM      3  C   UNL     1      47.937   3.252  16.866  0.00  0.00    +0.000 C 
ENDROOT
BRANCH   1   9
ATOM      4  C   UNL     1      52.520   5.105  18.720  0.00  0.00    +0.000 A 
ATOM      5  C   UNL     1      52.860   3.794  18.508  0.00  0.00    +0.000 A 
ATOM      6  C   UNL     1      51.903   3.060  17.857  0.00  0.00    +0.000 A 
ATOM      7  N   UNL     1      50.709   3.554  17.475  0.00  0.00    +0.000 NA
ATOM      8  C   UNL     1      50.466   4.845  17.724  0.00  0.00    +0.000 A 
ATOM      9  N   UNL     1      49.246   5.423  17.403  0.00  0.00    +0.000 N 
ATOM     10  N   UNL     1      51.353   5.650  18.323  0.00  0.00    +0.000 NA
ATOM     11  H   UNL     1      49.329   6.431  17.362  0.00  0.00    +0.000 HD
BRANCH   4  13
ATOM     12  N   UNL     1      54.132   6.674  20.020  0.00  0.00    +0.000 NA
ATOM     13  C   UNL     1      53.415   5.988  19.416  0.00  0.00    +0.000 C 
ENDBRANCH   4  13
BRANCH   6  14
ATOM     14  C   UNL     1      52.136   1.680  17.534  0.00  0.00    +0.000 C 
ATOM     15  N   UNL     1      52.302   0.552  17.313  0.00  0.00    +0.000 NA
ENDBRANCH   6  14
ENDBRANCH   1   9
BRANCH   1  16
ATOM     16  C   UNL     1      47.871   5.334  15.302  0.00  0.00    +0.000 A 
ATOM     17  C   UNL     1      48.502   6.511  14.870  0.00  0.00    +0.000 A 
ATOM     18  C   UNL     1      48.244   7.055  13.614  0.00  0.00    +0.000 A 
ATOM     19  C   UNL     1      47.324   6.440  12.768  0.00  0.00    +0.000 A 
ATOM     20  C   UNL     1      46.628   5.283  13.162  0.00  0.00    +0.000 A 
ATOM     21  C   UNL     1      46.938   4.742  14.427  0.00  0.00    +0.000 A 
BRANCH  20  22
ATOM     22  C   UNL     1      45.590   4.672  12.304  0.00  0.00    +0.000 A 
ATOM     23  C   UNL     1      45.287   5.177  11.036  0.00  0.00    +0.000 A 
ATOM     24  C   UNL     1      44.286   4.579  10.277  0.00  0.00    +0.000 A 
ATOM     25  C   UNL     1      43.607   3.490  10.802  0.00  0.00    +0.000 A 
ATOM     26  C   UNL     1      43.961   3.050  12.066  0.00  0.00    +0.000 A 
ATOM     27  F   UNL     1      43.298   2.002  12.581  0.00  0.00    +0.000 F 
ATOM     28  N   UNL     1      44.922   3.614  12.826  0.00  0.00    +0.000 NA
ENDBRANCH  20  22
ENDBRANCH   1  16
TORSDOF 5
ENDMDL
