MODEL 1
REMARK VINA RESULT:    -7.174      0.000      0.000
REMARK INTER + INTRA:         -10.025
REMARK INTER:                  -9.271
REMARK INTRA:                  -0.754
REMARK UNBOUND:                -0.754
REMARK  Name = 
REMARK  8 active torsions:
REMARK  status: ('A' for Active; 'I' for Inactive)
REMARK    1  A    between atoms: C_1  and  C_2
REMARK    2  A    between atoms: C_4  and  O_5
REMARK    3  A    between atoms: O_5  and  C_6
REMARK    4  A    between atoms: C_6  and  C_7
REMARK    5  A    between atoms: C_7  and  C_8
REMARK    6  A    between atoms: C_17  and  C_18
REMARK    7  A    between atoms: N_20  and  C_21
REMARK    8  A    between atoms: N_20  and  C_22
REMARK                            x       y       z     vdW  Elec       q    Type
REMARK                         _______ _______ _______ _____ _____    ______ ____
ROOT
ATOM      1  C   UNL     1      45.457   8.416  12.652  0.00  0.00    +0.000 C 
ATOM      2  C   UNL     1      45.726   6.976  12.928  0.00  0.00    +0.000 A 
ATOM      3  N   UNL     1      44.580   6.242  12.823  0.00  0.00    +0.000 NA
ATOM      4  C   UNL     1      44.633   4.902  12.914  0.00  0.00    +0.000 A 
ATOM      5  C   UNL     1      45.786   4.219  13.179  0.00  0.00    +0.000 A 
ATOM      6  C   UNL     1      46.958   4.970  13.331  0.00  0.00    +0.000 A 
ATOM      7  C   UNL     1      46.959   6.379  13.201  0.00  0.00    +0.000 A 
ENDROOT
BRANCH   7   8
ATOM      8  C   UNL     1      48.330   6.982  13.180  0.00  0.00    +0.000 C 
ATOM      9  O   UNL     1      48.781   7.195  12.048  0.00  0.00    +0.000 OA
ATOM     10  N   UNL     1      49.121   7.225  14.305  0.00  0.00    +0.000 N 
ATOM     11  C   UNL     1      48.738   7.122  15.696  0.00  0.00    +0.000 C 
ATOM     12  C   UNL     1      50.487   7.700  14.091  0.00  0.00    +0.000 C 
ENDBRANCH   7   8
BRANCH   4  13
ATOM     13  O   UNL     1      43.462   4.183  12.718  0.00  0.00    +0.000 OA
BRANCH  13  14
ATOM     14  C   UNL     1      43.560   3.329  11.567  0.00  0.00    +0.000 C 
BRANCH  14  15
ATOM     15  C   UNL     1      43.706   4.167  10.297  0.00  0.00    +0.000 C 
BRANCH  15  16
ATOM     16  C   UNL     1      44.734   3.574   9.358  0.00  0.00    +0.000 A 
ATOM     17  C   UNL     1      45.453   4.400   8.484  0.00  0.00    +0.000 A 
ATOM     18  C   UNL     1      46.383   3.855   7.596  0.00  0.00    +0.000 A 
ATOM     19  C   UNL     1      46.596   2.477   7.575  0.00  0.00    +0.000 A 
ATOM     20 CL   UNL     1      47.746   1.808   6.483  0.00  0.00    +0.000 Cl
ATOM     21  C   UNL     1      45.879   1.640   8.426  0.00  0.00    +0.000 A 
ATOM     22  C   UNL     1      44.949   2.188   9.315  0.00  0.00    +0.000 A 
ENDBRANCH  15  16
ENDBRANCH  14  15
ENDBRANCH  13  14
ENDBRANCH   4  13
TORSDOF 5
ENDMDL
MODEL 2
REMARK VINA RESULT:    -6.810      0.979      1.898
REMARK INTER + INTRA:          -9.555
REMARK INTER:                  -8.683
REMARK INTRA:                  -0.872
REMARK UNBOUND:                -0.754
REMARK  Name = 
REMARK  8 active torsions:
REMARK  status: ('A' for Active; 'I' for Inactive)
REMARK    1  A    between atoms: C_1  and  C_2
REMARK    2  A    between atoms: C_4  and  O_5
REMARK    3  A    between atoms: O_5  and  C_6
REMARK    4  A    between atoms: C_6  and  C_7
REMARK    5  A    between atoms: C_7  and  C_8
REMARK    6  A    between atoms: C_17  and  C_18
REMARK    7  A    between atoms: N_20  and  C_21
REMARK    8  A    between atoms: N_20  and  C_22
REMARK                            x       y       z     vdW  Elec       q    Type
REMARK                         _______ _______ _______ _____ _____    ______ ____
ROOT
ATOM      1  C   UNL     1      47.279   4.669  15.025  0.00  0.00    +0.000 C 
ATOM      2  C   UNL     1      46.786   5.398  13.821  0.00  0.00    +0.000 A 
ATOM      3  N   UNL     1      45.475   5.103  13.582  0.00  0.00    +0.000 NA
ATOM      4  C   UNL     1      44.809   5.753  12.613  0.00  0.00    +0.000 A 
ATOM      5  C   UNL     1      45.400   6.667  11.789  0.00  0.00    +0.000 A 
ATOM      6  C   UNL     1      46.757   6.943  12.001  0.00  0.00    +0.000 A 
ATOM      7  C   UNL     1      47.488   6.315  13.036  0.00  0.00    +0.000 A 
ENDROOT
BRANCH   7   8
ATOM      8  C   UNL     1      48.855   6.892  13.246  0.00  0.00    +0.000 C 
ATOM      9  O   UNL     1      49.661   6.647  12.341  0.00  0.00    +0.000 OA
ATOM     10  N   UNL     1      49.272   7.581  14.387  0.00  0.00    +0.000 N 
ATOM     11  C   UNL     1      48.459   8.031  15.497  0.00  0.00    +0.000 C 
ATOM     12  C   UNL     1      50.680   7.964  14.478  0.00  0.00    +0.000 C 
ENDBRANCH   7   8
BRANCH   4  13
ATOM     13  O   UNL     1      43.456   5.489  12.454  0.00  0.00    +0.000 OA
BRANCH  13  14
ATOM     14  C   UNL     1      43.167   5.018  11.128  0.00  0.00    +0.000 C 
BRANCH  14  15
ATOM     15  C   UNL     1      43.571   3.551  10.988  0.00  0.00    +0.000 C 
BRANCH  15  16
ATOM     16  C   UNL     1      44.477   3.337   9.795  0.00  0.00    +0.000 A 
ATOM     17  C   UNL     1      44.860   2.042   9.421  0.00  0.00    +0.000 A 
ATOM     18  C   UNL     1      45.718   1.841   8.338  0.00  0.00    +0.000 A 
ATOM     19  C   UNL     1      46.202   2.937   7.623  0.00  0.00    +0.000 A 
ATOM     20 CL   UNL     1      47.254   2.687   6.286  0.00  0.00    +0.000 Cl
ATOM     21  C   UNL     1      45.842   4.231   7.991  0.00  0.00    +0.000 A 
ATOM     22  C   UNL     1      44.983   4.430   9.076  0.00  0.00    +0.000 A 
ENDBRANCH  15  16
ENDBRANCH  14  15
ENDBRANCH  13  14
ENDBRANCH   4  13
TORSDOF 5
ENDMDL
MODEL 3
REMARK VINA RESULT:    -6.490      1.702      2.198
REMARK INTER + INTRA:          -9.142
REMARK INTER:                  -8.269
REMARK INTRA:                  -0.873
REMARK UNBOUND:                -0.754
REMARK  Name = 
REMARK  8 active torsions:
REMARK  status: ('A' for Active; 'I' for Inactive)
REMARK    1  A    between atoms: C_1  and  C_2
REMARK    2  A    between atoms: C_4  and  O_5
REMARK    3  A    between atoms: O_5  and  C_6
REMARK    4  A    between atoms: C_6  and  C_7
REMARK    5  A    between atoms: C_7  and  C_8
REMARK    6  A    between atoms: C_17  and  C_18
REMARK    7  A    between atoms: N_20  and  C_21
REMARK    8  A    between atoms: N_20  and  C_22
REMARK                            x       y       z     vdW  Elec       q    Type
REMARK                         _______ _______ _______ _____ _____    ______ ____
ROOT
ATOM      1  C   UNL     1      47.961   6.167  14.217  0.00  0.00    +0.000 C 
ATOM      2  C   UNL     1      46.966   6.357  13.123  0.00  0.00    +0.000 A 
ATOM      3  N   UNL     1      46.097   5.305  13.073  0.00  0.00    +0.000 NA
ATOM      4  C   UNL     1      45.048   5.344  12.233  0.00  0.00    +0.000 A 
ATOM      5  C   UNL     1      44.834   6.370  11.357  0.00  0.00    +0.000 A 
ATOM      6  C   UNL     1      45.747   7.432  11.373  0.00  0.00    +0.000 A 
ATOM      7  C   UNL     1      46.841   7.455  12.269  0.00  0.00    +0.000 A 
ENDROOT
BRANCH   7   8
ATOM      8  C   UNL     1      47.576   8.761  12.290  0.00  0.00    +0.000 C 
ATOM      9  O   UNL     1      46.895   9.728  12.649  0.00  0.00    +0.000 OA
ATOM     10  N   UNL     1      48.893   8.951  11.867  0.00  0.00    +0.000 N 
ATOM     11  C   UNL     1      49.861   7.939  11.499  0.00  0.00    +0.000 C 
ATOM     12  C   UNL     1      49.411  10.318  11.835  0.00  0.00    +0.000 C 
ENDBRANCH   7   8
BRANCH   4  13
ATOM     13  O   UNL     1      44.139   4.297  12.270  0.00  0.00    +0.000 OA
BRANCH  13  14
ATOM     14  C   UNL     1      44.666   3.124  11.628  0.00  0.00    +0.000 C 
BRANCH  14  15
ATOM     15  C   UNL     1      43.991   2.914  10.273  0.00  0.00    +0.000 C 
BRANCH  15  16
ATOM     16  C   UNL     1      45.010   2.790   9.161  0.00  0.00    +0.000 A 
ATOM     17  C   UNL     1      45.414   3.924   8.443  0.00  0.00    +0.000 A 
ATOM     18  C   UNL     1      46.332   3.811   7.398  0.00  0.00    +0.000 A 
ATOM     19  C   UNL     1      46.850   2.561   7.060  0.00  0.00    +0.000 A 
ATOM     20 CL   UNL     1      47.986   2.425   5.775  0.00  0.00    +0.000 Cl
ATOM     21  C   UNL     1      46.447   1.422   7.754  0.00  0.00    +0.000 A 
ATOM     22  C   UNL     1      45.528   1.537   8.801  0.00  0.00    +0.000 A 
ENDBRANCH  15  16
ENDBRANCH  14  15
ENDBRANCH  13  14
ENDBRANCH   4  13
TORSDOF 5
ENDMDL
MODEL 4
REMARK VINA RESULT:    -6.466      2.549      3.366
REMARK INTER + INTRA:          -9.110
REMARK INTER:                  -8.457
REMARK INTRA:                  -0.653
REMARK UNBOUND:                -0.754
REMARK  Name = 
REMARK  8 active torsions:
REMARK  status: ('A' for Active; 'I' for Inactive)
REMARK    1  A    between atoms: C_1  and  C_2
REMARK    2  A    between atoms: C_4  and  O_5
REMARK    3  A    between atoms: O_5  and  C_6
REMARK    4  A    between atoms: C_6  and  C_7
REMARK    5  A    between atoms: C_7  and  C_8
REMARK    6  A    between atoms: C_17  and  C_18
REMARK    7  A    between atoms: N_20  and  C_21
REMARK    8  A    between atoms: N_20  and  C_22
REMARK                            x       y       z     vdW  Elec       q    Type
REMARK                         _______ _______ _______ _____ _____    ______ ____
ROOT
ATOM      1  C   UNL     1      47.788   3.437  17.614  0.00  0.00    +0.000 C 
ATOM      2  C   UNL     1      47.757   4.270  16.377  0.00  0.00    +0.000 A 
ATOM      3  N   UNL     1      46.968   3.691  15.425  0.00  0.00    +0.000 NA
ATOM      4  C   UNL     1      46.712   4.347  14.280  0.00  0.00    +0.000 A 
ATOM      5  C   UNL     1      47.263   5.559  13.978  0.00  0.00    +0.000 A 
ATOM      6  C   UNL     1      48.108   6.139  14.932  0.00  0.00    +0.000 A 
ATOM      7  C   UNL     1      48.373   5.506  16.169  0.00  0.00    +0.000 A 
ENDROOT
BRANCH   7   8
ATOM      8  C   UNL     1      49.119   6.369  17.141  0.00  0.00    +0.000 C 
ATOM      9  O   UNL     1      48.517   7.392  17.486  0.00  0.00    +0.000 OA
ATOM     10  N   UNL     1      50.421   6.138  17.590  0.00  0.00    +0.000 N 
ATOM     11  C   UNL     1      51.241   4.967  17.366  0.00  0.00    +0.000 C 
ATOM     12  C   UNL     1      51.042   7.153  18.439  0.00  0.00    +0.000 C 
ENDBRANCH   7   8
BRANCH   4  13
ATOM     13  O   UNL     1      45.837   3.766  13.372  0.00  0.00    +0.000 OA
BRANCH  13  14
ATOM     14  C   UNL     1      44.795   4.680  12.993  0.00  0.00    +0.000 C 
BRANCH  14  15
ATOM     15  C   UNL     1      43.827   4.005  12.023  0.00  0.00    +0.000 C 
BRANCH  15  16
ATOM     16  C   UNL     1      44.456   3.809  10.660  0.00  0.00    +0.000 A 
ATOM     17  C   UNL     1      45.106   4.873  10.021  0.00  0.00    +0.000 A 
ATOM     18  C   UNL     1      45.663   4.705   8.753  0.00  0.00    +0.000 A 
ATOM     19  C   UNL     1      45.570   3.471   8.112  0.00  0.00    +0.000 A 
ATOM     20 CL   UNL     1      46.263   3.264   6.550  0.00  0.00    +0.000 Cl
ATOM     21  C   UNL     1      44.914   2.406   8.726  0.00  0.00    +0.000 A 
ATOM     22  C   UNL     1      44.358   2.576   9.997  0.00  0.00    +0.000 A 
ENDBRANCH  15  16
ENDBRANCH  14  15
ENDBRANCH  13  14
ENDBRANCH   4  13
TORSDOF 5
ENDMDL
MODEL 5
REMARK VINA RESULT:    -6.107      1.751      2.489
REMARK INTER + INTRA:          -8.647
REMARK INTER:                  -7.814
REMARK INTRA:                  -0.832
REMARK UNBOUND:                -0.754
REMARK  Name = 
REMARK  8 active torsions:
REMARK  status: ('A' for Active; 'I' for Inactive)
REMARK    1  A    between atoms: C_1  and  C_2
REMARK    2  A    between atoms: C_4  and  O_5
REMARK    3  A    between atoms: O_5  and  C_6
REMARK    4  A    between atoms: C_6  and  C_7
REMARK    5  A    between atoms: C_7  and  C_8
REMARK    6  A    between atoms: C_17  and  C_18
REMARK    7  A    between atoms: N_20  and  C_21
REMARK    8  A    between atoms: N_20  and  C_22
REMARK                            x       y       z     vdW  Elec       q    Type
REMARK                         _______ _______ _______ _____ _____    ______ ____
ROOT
ATOM      1  C   UNL     1      48.211   5.090  17.051  0.00  0.00    +0.000 C 
ATOM      2  C   UNL     1      47.872   5.330  15.619  0.00  0.00    +0.000 A 
ATOM      3  N   UNL     1      46.843   4.524  15.224  0.00  0.00    +0.000 NA
ATOM      4  C   UNL     1      46.307   4.674  14.001  0.00  0.00    +0.000 A 
ATOM      5  C   UNL     1      46.788   5.563  13.082  0.00  0.00    +0.000 A 
ATOM      6  C   UNL     1      47.871   6.363  13.466  0.00  0.00    +0.000 A 
ATOM      7  C   UNL     1      48.441   6.270  14.757  0.00  0.00    +0.000 A 
ENDROOT
BRANCH   7   8
ATOM      8  C   UNL     1      49.440   7.347  15.055  0.00  0.00    +0.000 C 
ATOM      9  O   UNL     1      50.602   7.072  14.737  0.00  0.00    +0.000 OA
ATOM     10  N   UNL     1      49.160   8.545  15.717  0.00  0.00    +0.000 N 
ATOM     11  C   UNL     1      47.863   9.072  16.085  0.00  0.00    +0.000 C 
ATOM     12  C   UNL     1      50.281   9.426  16.039  0.00  0.00    +0.000 C 
ENDBRANCH   7   8
BRANCH   4  13
ATOM     13  O   UNL     1      45.208   3.896  13.665  0.00  0.00    +0.000 OA
BRANCH  13  14
ATOM     14  C   UNL     1      44.304   4.612  12.808  0.00  0.00    +0.000 C 
BRANCH  14  15
ATOM     15  C   UNL     1      43.639   3.652  11.822  0.00  0.00    +0.000 C 
BRANCH  15  16
ATOM     16  C   UNL     1      44.391   3.597  10.510  0.00  0.00    +0.000 A 
ATOM     17  C   UNL     1      44.987   4.753   9.988  0.00  0.00    +0.000 A 
ATOM     18  C   UNL     1      45.658   4.714   8.764  0.00  0.00    +0.000 A 
ATOM     19  C   UNL     1      45.732   3.518   8.051  0.00  0.00    +0.000 A 
ATOM     20 CL   UNL     1      46.564   3.472   6.546  0.00  0.00    +0.000 Cl
ATOM     21  C   UNL     1      45.132   2.364   8.548  0.00  0.00    +0.000 A 
ATOM     22  C   UNL     1      44.461   2.405   9.775  0.00  0.00    +0.000 A 
ENDBRANCH  15  16
ENDBRANCH  14  15
ENDBRANCH  13  14
ENDBRANCH   4  13
TORSDOF 5
ENDMDL
MODEL 6
REMARK VINA RESULT:    -5.945      3.521      4.705
REMARK INTER + INTRA:          -8.437
REMARK INTER:                  -7.929
REMARK INTRA:                  -0.508
REMARK UNBOUND:                -0.754
REMARK  Name = 
REMARK  8 active torsions:
REMARK  status: ('A' for Active; 'I' for Inactive)
REMARK    1  A    between atoms: C_1  and  C_2
REMARK    2  A    between atoms: C_4  and  O_5
REMARK    3  A    between atoms: O_5  and  C_6
REMARK    4  A    between atoms: C_6  and  C_7
REMARK    5  A    between atoms: C_7  and  C_8
REMARK    6  A    between atoms: C_17  and  C_18
REMARK    7  A    between atoms: N_20  and  C_21
REMARK    8  A    between atoms: N_20  and  C_22
REMARK                            x       y       z     vdW  Elec       q    Type
REMARK                         _______ _______ _______ _____ _____    ______ ____
ROOT
ATOM      1  C   UNL     1      49.567   6.871  16.458  0.00  0.00    +0.000 C 
ATOM      2  C   UNL     1      48.814   5.608  16.706  0.00  0.00    +0.000 A 
ATOM      3  N   UNL     1      48.004   5.313  15.648  0.00  0.00    +0.000 NA
ATOM      4  C   UNL     1      47.332   4.149  15.624  0.00  0.00    +0.000 A 
ATOM      5  C   UNL     1      47.362   3.252  16.653  0.00  0.00    +0.000 A 
ATOM      6  C   UNL     1      48.158   3.569  17.761  0.00  0.00    +0.000 A 
ATOM      7  C   UNL     1      48.915   4.762  17.813  0.00  0.00    +0.000 A 
ENDROOT
BRANCH   7   8
ATOM      8  C   UNL     1      49.865   4.824  18.970  0.00  0.00    +0.000 C 
ATOM      9  O   UNL     1      51.008   4.423  18.719  0.00  0.00    +0.000 OA
ATOM     10  N   UNL     1      49.528   5.208  20.269  0.00  0.00    +0.000 N 
ATOM     11  C   UNL     1      48.280   5.781  20.728  0.00  0.00    +0.000 C 
ATOM     12  C   UNL     1      50.551   5.087  21.306  0.00  0.00    +0.000 C 
ENDBRANCH   7   8
BRANCH   4  13
ATOM     13  O   UNL     1      46.586   3.844  14.494  0.00  0.00    +0.000 OA
BRANCH  13  14
ATOM     14  C   UNL     1      46.203   5.034  13.785  0.00  0.00    +0.000 C 
BRANCH  14  15
ATOM     15  C   UNL     1      44.839   4.840  13.124  0.00  0.00    +0.000 C 
BRANCH  15  16
ATOM     16  C   UNL     1      44.978   4.512  11.653  0.00  0.00    +0.000 A 
ATOM     17  C   UNL     1      44.630   3.242  11.176  0.00  0.00    +0.000 A 
ATOM     18  C   UNL     1      44.782   2.925   9.825  0.00  0.00    +0.000 A 
ATOM     19  C   UNL     1      45.289   3.878   8.942  0.00  0.00    +0.000 A 
ATOM     20 CL   UNL     1      45.472   3.488   7.276  0.00  0.00    +0.000 Cl
ATOM     21  C   UNL     1      45.654   5.141   9.403  0.00  0.00    +0.000 A 
ATOM     22  C   UNL     1      45.500   5.456  10.756  0.00  0.00    +0.000 A 
ENDBRANCH  15  16
ENDBRANCH  14  15
ENDBRANCH  13  14
ENDBRANCH   4  13
TORSDOF 5
ENDMDL
MODEL 7
REMARK VINA RESULT:    -5.596      3.436      5.574
REMARK INTER + INTRA:          -7.986
REMARK INTER:                  -7.247
REMARK INTRA:                  -0.739
REMARK UNBOUND:                -0.754
REMARK  Name = 
REMARK  8 active torsions:
REMARK  status: ('A' for Active; 'I' for Inactive)
REMARK    1  A    between atoms: C_1  and  C_2
REMARK    2  A    between atoms: C_4  and  O_5
REMARK    3  A    between atoms: O_5  and  C_6
REMARK    4  A    between atoms: C_6  and  C_7
REMARK    5  A    between atoms: C_7  and  C_8
REMARK    6  A    between atoms: C_17  and  C_18
REMARK    7  A    between atoms: N_20  and  C_21
REMARK    8  A    between atoms: N_20  and  C_22
REMARK                            x       y       z     vdW  Elec       q    Type
REMARK                         _______ _______ _______ _____ _____    ______ ____
ROOT
ATOM      1  C   UNL     1      47.708   3.857  16.285  0.00  0.00    +0.000 C 
ATOM      2  C   UNL     1      48.224   5.250  16.422  0.00  0.00    +0.000 A 
ATOM      3  N   UNL     1      48.489   5.789  15.196  0.00  0.00    +0.000 NA
ATOM      4  C   UNL     1      48.847   7.081  15.097  0.00  0.00    +0.000 A 
ATOM      5  C   UNL     1      49.031   7.887  16.184  0.00  0.00    +0.000 A 
ATOM      6  C   UNL     1      48.803   7.327  17.447  0.00  0.00    +0.000 A 
ATOM      7  C   UNL     1      48.383   5.985  17.598  0.00  0.00    +0.000 A 
ENDROOT
BRANCH   7   8
ATOM      8  C   UNL     1      47.983   5.632  18.999  0.00  0.00    +0.000 C 
ATOM      9  O   UNL     1      46.780   5.779  19.242  0.00  0.00    +0.000 OA
ATOM     10  N   UNL     1      48.861   5.249  20.015  0.00  0.00    +0.000 N 
ATOM     11  C   UNL     1      50.271   4.945  19.900  0.00  0.00    +0.000 C 
ATOM     12  C   UNL     1      48.314   5.065  21.358  0.00  0.00    +0.000 C 
ENDBRANCH   7   8
BRANCH   4  13
ATOM     13  O   UNL     1      49.025   7.618  13.830  0.00  0.00    +0.000 OA
BRANCH  13  14
ATOM     14  C   UNL     1      48.702   6.661  12.807  0.00  0.00    +0.000 C 
BRANCH  14  15
ATOM     15  C   UNL     1      47.506   7.146  11.989  0.00  0.00    +0.000 C 
BRANCH  15  16
ATOM     16  C   UNL     1      46.448   6.070  11.864  0.00  0.00    +0.000 A 
ATOM     17  C   UNL     1      46.115   5.276  12.969  0.00  0.00    +0.000 A 
ATOM     18  C   UNL     1      45.161   4.263  12.853  0.00  0.00    +0.000 A 
ATOM     19  C   UNL     1      44.536   4.036  11.627  0.00  0.00    +0.000 A 
ATOM     20 CL   UNL     1      43.356   2.791  11.487  0.00  0.00    +0.000 Cl
ATOM     21  C   UNL     1      44.867   4.807  10.515  0.00  0.00    +0.000 A 
ATOM     22  C   UNL     1      45.822   5.821  10.634  0.00  0.00    +0.000 A 
ENDBRANCH  15  16
ENDBRANCH  14  15
ENDBRANCH  13  14
ENDBRANCH   4  13
TORSDOF 5
ENDMDL
MODEL 8
REMARK VINA RESULT:    -5.445      5.634      8.351
REMARK INTER + INTRA:          -7.790
REMARK INTER:                  -7.012
REMARK INTRA:                  -0.779
REMARK UNBOUND:                -0.754
REMARK  Name = 
REMARK  8 active torsions:
REMARK  status: ('A' for Active; 'I' for Inactive)
REMARK    1  A    between atoms: C_1  and  C_2
REMARK    2  A    between atoms: C_4  and  O_5
REMARK    3  A    between atoms: O_5  and  C_6
REMARK    4  A    between atoms: C_6  and  C_7
REMARK    5  A    between atoms: C_7  and  C_8
REMARK    6  A    between atoms: C_17  and  C_18
REMARK    7  A    between atoms: N_20  and  C_21
REMARK    8  A    between atoms: N_20  and  C_22
REMARK                            x       y       z     vdW  Elec       q    Type
REMARK                         _______ _______ _______ _____ _____    ______ ____
ROOT
ATOM      1  C   UNL     1      39.807  12.313  13.768  0.00  0.00    +0.000 C 
ATOM      2  C   UNL     1      40.406  11.586  12.611  0.00  0.00    +0.000 A 
ATOM      3  N   UNL     1      41.763  11.740  12.594  0.00  0.00    +0.000 NA
ATOM      4  C   UNL     1      42.502  11.061  11.700  0.00  0.00    +0.000 A 
ATOM      5  C   UNL     1      41.955  10.257  10.741  0.00  0.00    +0.000 A 
ATOM      6  C   UNL     1      40.561  10.128  10.726  0.00  0.00    +0.000 A 
ATOM      7  C   UNL     1      39.745  10.790  11.673  0.00  0.00    +0.000 A 
ENDROOT
BRANCH   7   8
ATOM      8  C   UNL     1      38.309  10.363  11.636  0.00  0.00    +0.000 C 
ATOM      9  O   UNL     1      38.118   9.176  11.924  0.00  0.00    +0.000 OA
ATOM     10  N   UNL     1      37.241  11.166  11.232  0.00  0.00    +0.000 N 
ATOM     11  C   UNL     1      37.257  12.584  10.944  0.00  0.00    +0.000 C 
ATOM     12  C   UNL     1      35.919  10.548  11.133  0.00  0.00    +0.000 C 
ENDBRANCH   7   8
BRANCH   4  13
ATOM     13  O   UNL     1      43.883  11.176  11.767  0.00  0.00    +0.000 OA
BRANCH  13  14
ATOM     14  C   UNL     1      44.530   9.991  11.278  0.00  0.00    +0.000 C 
BRANCH  14  15
ATOM     15  C   UNL     1      45.320   9.318  12.401  0.00  0.00    +0.000 C 
BRANCH  15  16
ATOM     16  C   UNL     1      45.275   7.810  12.282  0.00  0.00    +0.000 A 
ATOM     17  C   UNL     1      46.220   7.019  12.950  0.00  0.00    +0.000 A 
ATOM     18  C   UNL     1      46.199   5.629  12.822  0.00  0.00    +0.000 A 
ATOM     19  C   UNL     1      45.235   5.021  12.019  0.00  0.00    +0.000 A 
ATOM     20 CL   UNL     1      45.209   3.307  11.866  0.00  0.00    +0.000 Cl
ATOM     21  C   UNL     1      44.298   5.793  11.336  0.00  0.00    +0.000 A 
ATOM     22  C   UNL     1      44.319   7.185  11.467  0.00  0.00    +0.000 A 
ENDBRANCH  15  16
ENDBRANCH  14  15
ENDBRANCH  13  14
ENDBRANCH   4  13
TORSDOF 5
ENDMDL
MODEL 9
REMARK VINA RESULT:    -5.304      3.317      7.740
REMARK INTER + INTRA:          -7.608
REMARK INTER:                  -6.703
REMARK INTRA:                  -0.905
REMARK UNBOUND:                -0.754
REMARK  Name = 
REMARK  8 active torsions:
REMARK  status: ('A' for Active; 'I' for Inactive)
REMARK    1  A    between atoms: C_1  and  C_2
REMARK    2  A    between atoms: C_4  and  O_5
REMARK    3  A    between atoms: O_5  and  C_6
REMARK    4  A    between atoms: C_6  and  C_7
REMARK    5  A    between atoms: C_7  and  C_8
REMARK    6  A    between atoms: C_17  and  C_18
REMARK    7  A    between atoms: N_20  and  C_21
REMARK    8  A    between atoms: N_20  and  C_22
REMARK                            x       y       z     vdW  Elec       q    Type
REMARK                         _______ _______ _______ _____ _____    ______ ____
ROOT
ATOM      1  C   UNL     1      46.974   3.927  13.996  0.00  0.00    +0.000 C 
ATOM      2  C   UNL     1      47.030   5.387  13.699  0.00  0.00    +0.000 A 
ATOM      3  N   UNL     1      48.241   5.907  14.055  0.00  0.00    +0.000 NA
ATOM      4  C   UNL     1      48.535   7.184  13.756  0.00  0.00    +0.000 A 
ATOM      5  C   UNL     1      47.645   8.032  13.161  0.00  0.00    +0.000 A 
ATOM      6  C   UNL     1      46.385   7.517  12.832  0.00  0.00    +0.000 A 
ATOM      7  C   UNL     1      46.045   6.168  13.089  0.00  0.00    +0.000 A 
ENDROOT
BRANCH   7   8
ATOM      8  C   UNL     1      44.745   5.746  12.477  0.00  0.00    +0.000 C 
ATOM      9  O   UNL     1      43.790   5.725  13.262  0.00  0.00    +0.000 OA
ATOM     10  N   UNL     1      44.578   5.315  11.159  0.00  0.00    +0.000 N 
ATOM     11  C   UNL     1      45.547   5.351  10.085  0.00  0.00    +0.000 C 
ATOM     12  C   UNL     1      43.261   4.817  10.764  0.00  0.00    +0.000 C 
ENDBRANCH   7   8
BRANCH   4  13
ATOM     13  O   UNL     1      49.806   7.653  14.056  0.00  0.00    +0.000 OA
BRANCH  13  14
ATOM     14  C   UNL     1      49.760   8.684  15.056  0.00  0.00    +0.000 C 
BRANCH  14  15
ATOM     15  C   UNL     1      50.576   8.271  16.280  0.00  0.00    +0.000 C 
BRANCH  15  16
ATOM     16  C   UNL     1      50.034   7.003  16.904  0.00  0.00    +0.000 A 
ATOM     17  C   UNL     1      50.809   5.835  16.919  0.00  0.00    +0.000 A 
ATOM     18  C   UNL     1      50.303   4.656  17.469  0.00  0.00    +0.000 A 
ATOM     19  C   UNL     1      49.015   4.636  18.004  0.00  0.00    +0.000 A 
ATOM     20 CL   UNL     1      48.396   3.183  18.685  0.00  0.00    +0.000 Cl
ATOM     21  C   UNL     1      48.227   5.784  17.983  0.00  0.00    +0.000 A 
ATOM     22  C   UNL     1      48.736   6.964  17.433  0.00  0.00    +0.000 A 
ENDBRANCH  15  16
ENDBRANCH  14  15
ENDBRANCH  13  14
ENDBRANCH   4  13
TORSDOF 5
ENDMDL
