MODEL 1
REMARK VINA RESULT:    -7.202      0.000      0.000
REMARK INTER + INTRA:         -10.381
REMARK INTER:                  -9.728
REMARK INTRA:                  -0.653
REMARK UNBOUND:                -0.653
REMARK  Name = 
REMARK  7 active torsions:
REMARK  status: ('A' for Active; 'I' for Inactive)
REMARK    1  A    between atoms: C_1  and  C_2
REMARK    2  A    between atoms: C_5  and  C_6
REMARK    3  A    between atoms: C_6  and  O_7
REMARK    4  A    between atoms: O_7  and  C_8
REMARK    5  A    between atoms: C_12  and  O_13
REMARK    6  A    between atoms: O_13  and  C_14
REMARK    7  A    between atoms: C_20  and  C_21
REMARK                            x       y       z     vdW  Elec       q    Type
REMARK                         _______ _______ _______ _____ _____    ______ ____
ROOT
ATOM      1  C   UNL     1      44.185   4.821   9.539  0.00  0.00    +0.000 C 
ENDROOT
BRANCH   1   6
ATOM      2  C   UNL     1      46.690  -0.005   7.568  0.00  0.00    +0.000 C 
ATOM      3  C   UNL     1      46.096   1.294   8.021  0.00  0.00    +0.000 A 
ATOM      4  C   UNL     1      45.093   1.286   8.985  0.00  0.00    +0.000 A 
ATOM      5  N   UNL     1      44.470   2.389   9.459  0.00  0.00    +0.000 NA
ATOM      6  C   UNL     1      44.853   3.588   8.964  0.00  0.00    +0.000 A 
ATOM      7  C   UNL     1      45.866   3.703   8.016  0.00  0.00    +0.000 A 
ATOM      8  C   UNL     1      46.483   2.546   7.522  0.00  0.00    +0.000 A 
BRANCH   8   9
ATOM      9  C   UNL     1      47.564   2.679   6.498  0.00  0.00    +0.000 C 
ATOM     10  N   UNL     1      47.212   3.158   5.268  0.00  0.00    +0.000 N 
ATOM     11  O   UNL     1      48.727   2.368   6.723  0.00  0.00    +0.000 OA
ATOM     12  H   UNL     1      46.257   3.267   4.960  0.00  0.00    +0.000 HD
ATOM     13  H   UNL     1      47.939   3.171   4.564  0.00  0.00    +0.000 HD
ENDBRANCH   8   9
ENDBRANCH   1   6
BRANCH   1  14
ATOM     14  O   UNL     1      44.083   4.690  10.959  0.00  0.00    +0.000 OA
BRANCH  14  15
ATOM     15  C   UNL     1      45.179   5.052  11.689  0.00  0.00    +0.000 A 
ATOM     16  C   UNL     1      46.004   6.146  11.435  0.00  0.00    +0.000 A 
ATOM     17  C   UNL     1      47.069   6.428  12.297  0.00  0.00    +0.000 A 
ATOM     18  C   UNL     1      47.319   5.617  13.409  0.00  0.00    +0.000 A 
ATOM     19  C   UNL     1      46.494   4.524  13.658  0.00  0.00    +0.000 A 
ATOM     20  C   UNL     1      45.419   4.258  12.810  0.00  0.00    +0.000 A 
BRANCH  19  21
ATOM     21  O   UNL     1      46.621   3.669  14.723  0.00  0.00    +0.000 OA
BRANCH  21  22
ATOM     22  C   UNL     1      47.614   3.954  15.732  0.00  0.00    +0.000 C 
ATOM     23  C   UNL     1      48.301   2.774  16.434  0.00  0.00    +0.000 C 
ATOM     24  O   UNL     1      47.887   3.241  17.739  0.00  0.00    +0.000 OA
ATOM     25  C   UNL     1      47.049   4.250  17.129  0.00  0.00    +0.000 C 
ENDBRANCH  21  22
ENDBRANCH  19  21
ENDBRANCH  14  15
ENDBRANCH   1  14
TORSDOF 6
ENDMDL
MODEL 2
REMARK VINA RESULT:    -6.855      2.361      7.263
REMARK INTER + INTRA:          -9.913
REMARK INTER:                 -10.219
REMARK INTRA:                   0.306
REMARK UNBOUND:                -0.653
REMARK  Name = 
REMARK  7 active torsions:
REMARK  status: ('A' for Active; 'I' for Inactive)
REMARK    1  A    between atoms: C_1  and  C_2
REMARK    2  A    between atoms: C_5  and  C_6
REMARK    3  A    between atoms: C_6  and  O_7
REMARK    4  A    between atoms: O_7  and  C_8
REMARK    5  A    between atoms: C_12  and  O_13
REMARK    6  A    between atoms: O_13  and  C_14
REMARK    7  A    between atoms: C_20  and  C_21
REMARK                            x       y       z     vdW  Elec       q    Type
REMARK                         _______ _______ _______ _____ _____    ______ ____
ROOT
ATOM      1  C   UNL     1      43.190   5.497  11.647  0.00  0.00    +0.000 C 
ENDROOT
BRANCH   1   6
ATOM      2  C   UNL     1      48.549   6.671  13.477  0.00  0.00    +0.000 C 
ATOM      3  C   UNL     1      47.158   6.296  13.064  0.00  0.00    +0.000 A 
ATOM      4  C   UNL     1      46.514   7.041  12.080  0.00  0.00    +0.000 A 
ATOM      5  N   UNL     1      45.257   6.810  11.638  0.00  0.00    +0.000 NA
ATOM      6  C   UNL     1      44.578   5.777  12.187  0.00  0.00    +0.000 A 
ATOM      7  C   UNL     1      45.145   4.957  13.158  0.00  0.00    +0.000 A 
ATOM      8  C   UNL     1      46.440   5.227  13.619  0.00  0.00    +0.000 A 
BRANCH   8   9
ATOM      9  C   UNL     1      47.038   4.345  14.668  0.00  0.00    +0.000 C 
ATOM     10  N   UNL     1      46.996   4.786  15.960  0.00  0.00    +0.000 N 
ATOM     11  O   UNL     1      47.561   3.270  14.405  0.00  0.00    +0.000 OA
ATOM     12  H   UNL     1      46.743   5.726  16.226  0.00  0.00    +0.000 HD
ATOM     13  H   UNL     1      47.471   4.214  16.647  0.00  0.00    +0.000 HD
ENDBRANCH   8   9
ENDBRANCH   1   6
BRANCH   1  14
ATOM     14  O   UNL     1      43.261   5.286  10.235  0.00  0.00    +0.000 OA
BRANCH  14  15
ATOM     15  C   UNL     1      43.941   4.181   9.812  0.00  0.00    +0.000 A 
ATOM     16  C   UNL     1      43.854   2.906  10.368  0.00  0.00    +0.000 A 
ATOM     17  C   UNL     1      44.574   1.850   9.802  0.00  0.00    +0.000 A 
ATOM     18  C   UNL     1      45.389   2.062   8.685  0.00  0.00    +0.000 A 
ATOM     19  C   UNL     1      45.476   3.337   8.133  0.00  0.00    +0.000 A 
ATOM     20  C   UNL     1      44.739   4.383   8.687  0.00  0.00    +0.000 A 
BRANCH  19  21
ATOM     21  O   UNL     1      46.220   3.668   7.030  0.00  0.00    +0.000 OA
BRANCH  21  22
ATOM     22  C   UNL     1      47.464   2.974   6.793  0.00  0.00    +0.000 C 
ATOM     23  C   UNL     1      47.803   2.553   5.357  0.00  0.00    +0.000 C 
ATOM     24  O   UNL     1      47.935   1.164   5.739  0.00  0.00    +0.000 OA
ATOM     25  C   UNL     1      47.419   1.462   7.057  0.00  0.00    +0.000 C 
ENDBRANCH  21  22
ENDBRANCH  19  21
ENDBRANCH  14  15
ENDBRANCH   1  14
TORSDOF 6
ENDMDL
MODEL 3
REMARK VINA RESULT:    -6.614      3.129      7.894
REMARK INTER + INTRA:          -9.587
REMARK INTER:                  -9.097
REMARK INTRA:                  -0.490
REMARK UNBOUND:                -0.653
REMARK  Name = 
REMARK  7 active torsions:
REMARK  status: ('A' for Active; 'I' for Inactive)
REMARK    1  A    between atoms: C_1  and  C_2
REMARK    2  A    between atoms: C_5  and  C_6
REMARK    3  A    between atoms: C_6  and  O_7
REMARK    4  A    between atoms: O_7  and  C_8
REMARK    5  A    between atoms: C_12  and  O_13
REMARK    6  A    between atoms: O_13  and  C_14
REMARK    7  A    between atoms: C_20  and  C_21
REMARK                            x       y       z     vdW  Elec       q    Type
REMARK                         _______ _______ _______ _____ _____    ______ ____
ROOT
ATOM      1  C   UNL     1      47.333   6.448  12.798  0.00  0.00    +0.000 C 
ENDROOT
BRANCH   1   6
ATOM      2  C   UNL     1      49.171   5.497  18.198  0.00  0.00    +0.000 C 
ATOM      3  C   UNL     1      48.655   5.659  16.800  0.00  0.00    +0.000 A 
ATOM      4  C   UNL     1      48.913   6.839  16.110  0.00  0.00    +0.000 A 
ATOM      5  N   UNL     1      48.486   7.107  14.855  0.00  0.00    +0.000 NA
ATOM      6  C   UNL     1      47.761   6.157  14.222  0.00  0.00    +0.000 A 
ATOM      7  C   UNL     1      47.473   4.932  14.818  0.00  0.00    +0.000 A 
ATOM      8  C   UNL     1      47.905   4.684  16.127  0.00  0.00    +0.000 A 
BRANCH   8   9
ATOM      9  C   UNL     1      47.583   3.368  16.762  0.00  0.00    +0.000 C 
ATOM     10  N   UNL     1      48.514   2.374  16.654  0.00  0.00    +0.000 N 
ATOM     11  O   UNL     1      46.530   3.160  17.350  0.00  0.00    +0.000 OA
ATOM     12  H   UNL     1      49.315   2.417  16.043  0.00  0.00    +0.000 HD
ATOM     13  H   UNL     1      48.249   1.469  17.023  0.00  0.00    +0.000 HD
ENDBRANCH   8   9
ENDBRANCH   1   6
BRANCH   1  14
ATOM     14  O   UNL     1      45.933   6.733  12.769  0.00  0.00    +0.000 OA
BRANCH  14  15
ATOM     15  C   UNL     1      45.162   5.950  11.959  0.00  0.00    +0.000 A 
ATOM     16  C   UNL     1      43.894   5.459  12.264  0.00  0.00    +0.000 A 
ATOM     17  C   UNL     1      43.195   4.705  11.317  0.00  0.00    +0.000 A 
ATOM     18  C   UNL     1      43.759   4.431  10.067  0.00  0.00    +0.000 A 
ATOM     19  C   UNL     1      45.027   4.921   9.766  0.00  0.00    +0.000 A 
ATOM     20  C   UNL     1      45.713   5.692  10.704  0.00  0.00    +0.000 A 
BRANCH  19  21
ATOM     21  O   UNL     1      45.678   4.742   8.572  0.00  0.00    +0.000 OA
BRANCH  21  22
ATOM     22  C   UNL     1      45.524   3.486   7.876  0.00  0.00    +0.000 C 
ATOM     23  C   UNL     1      45.725   2.184   8.664  0.00  0.00    +0.000 C 
ATOM     24  O   UNL     1      46.759   1.733   7.759  0.00  0.00    +0.000 OA
ATOM     25  C   UNL     1      46.766   3.021   7.101  0.00  0.00    +0.000 C 
ENDBRANCH  21  22
ENDBRANCH  19  21
ENDBRANCH  14  15
ENDBRANCH   1  14
TORSDOF 6
ENDMDL
MODEL 4
REMARK VINA RESULT:    -6.421      3.361      8.308
REMARK INTER + INTRA:          -9.327
REMARK INTER:                  -8.787
REMARK INTRA:                  -0.540
REMARK UNBOUND:                -0.653
REMARK  Name = 
REMARK  7 active torsions:
REMARK  status: ('A' for Active; 'I' for Inactive)
REMARK    1  A    between atoms: C_1  and  C_2
REMARK    2  A    between atoms: C_5  and  C_6
REMARK    3  A    between atoms: C_6  and  O_7
REMARK    4  A    between atoms: O_7  and  C_8
REMARK    5  A    between atoms: C_12  and  O_13
REMARK    6  A    between atoms: O_13  and  C_14
REMARK    7  A    between atoms: C_20  and  C_21
REMARK                            x       y       z     vdW  Elec       q    Type
REMARK                         _______ _______ _______ _____ _____    ______ ____
ROOT
ATOM      1  C   UNL     1      46.739   4.669  14.062  0.00  0.00    +0.000 C 
ENDROOT
BRANCH   1   6
ATOM      2  C   UNL     1      48.777   4.173  19.452  0.00  0.00    +0.000 C 
ATOM      3  C   UNL     1      48.300   4.380  18.046  0.00  0.00    +0.000 A 
ATOM      4  C   UNL     1      47.418   3.462  17.484  0.00  0.00    +0.000 A 
ATOM      5  N   UNL     1      46.933   3.532  16.223  0.00  0.00    +0.000 NA
ATOM      6  C   UNL     1      47.329   4.573  15.455  0.00  0.00    +0.000 A 
ATOM      7  C   UNL     1      48.187   5.558  15.936  0.00  0.00    +0.000 A 
ATOM      8  C   UNL     1      48.696   5.454  17.237  0.00  0.00    +0.000 A 
BRANCH   8   9
ATOM      9  C   UNL     1      49.623   6.512  17.742  0.00  0.00    +0.000 C 
ATOM     10  N   UNL     1      49.065   7.673  18.199  0.00  0.00    +0.000 N 
ATOM     11  O   UNL     1      50.840   6.376  17.746  0.00  0.00    +0.000 OA
ATOM     12  H   UNL     1      48.097   7.922  18.064  0.00  0.00    +0.000 HD
ATOM     13  H   UNL     1      49.709   8.407  18.466  0.00  0.00    +0.000 HD
ENDBRANCH   8   9
ENDBRANCH   1   6
BRANCH   1  14
ATOM     14  O   UNL     1      45.369   4.262  14.095  0.00  0.00    +0.000 OA
BRANCH  14  15
ATOM     15  C   UNL     1      44.617   4.548  12.993  0.00  0.00    +0.000 A 
ATOM     16  C   UNL     1      43.274   4.921  12.995  0.00  0.00    +0.000 A 
ATOM     17  C   UNL     1      42.637   5.233  11.790  0.00  0.00    +0.000 A 
ATOM     18  C   UNL     1      43.334   5.168  10.579  0.00  0.00    +0.000 A 
ATOM     19  C   UNL     1      44.675   4.794  10.580  0.00  0.00    +0.000 A 
ATOM     20  C   UNL     1      45.313   4.505  11.785  0.00  0.00    +0.000 A 
BRANCH  19  21
ATOM     21  O   UNL     1      45.470   4.715   9.466  0.00  0.00    +0.000 OA
BRANCH  21  22
ATOM     22  C   UNL     1      45.184   3.705   8.474  0.00  0.00    +0.000 C 
ATOM     23  C   UNL     1      45.474   2.238   8.820  0.00  0.00    +0.000 C 
ATOM     24  O   UNL     1      46.346   2.085   7.677  0.00  0.00    +0.000 OA
ATOM     25  C   UNL     1      46.282   3.506   7.418  0.00  0.00    +0.000 C 
ENDBRANCH  21  22
ENDBRANCH  19  21
ENDBRANCH  14  15
ENDBRANCH   1  14
TORSDOF 6
ENDMDL
MODEL 5
REMARK VINA RESULT:    -6.419      2.276      3.349
REMARK INTER + INTRA:          -9.324
REMARK INTER:                  -8.759
REMARK INTRA:                  -0.566
REMARK UNBOUND:                -0.653
REMARK  Name = 
REMARK  7 active torsions:
REMARK  status: ('A' for Active; 'I' for Inactive)
REMARK    1  A    between atoms: C_1  and  C_2
REMARK    2  A    between atoms: C_5  and  C_6
REMARK    3  A    between atoms: C_6  and  O_7
REMARK    4  A    between atoms: O_7  and  C_8
REMARK    5  A    between atoms: C_12  and  O_13
REMARK    6  A    between atoms: O_13  and  C_14
REMARK    7  A    between atoms: C_20  and  C_21
REMARK                            x       y       z     vdW  Elec       q    Type
REMARK                         _______ _______ _______ _____ _____    ______ ____
ROOT
ATOM      1  C   UNL     1      44.068   4.741   9.245  0.00  0.00    +0.000 C 
ENDROOT
BRANCH   1   6
ATOM      2  C   UNL     1      46.776  -0.085   7.567  0.00  0.00    +0.000 C 
ATOM      3  C   UNL     1      46.131   1.213   7.945  0.00  0.00    +0.000 A 
ATOM      4  C   UNL     1      45.079   1.213   8.855  0.00  0.00    +0.000 A 
ATOM      5  N   UNL     1      44.408   2.315   9.259  0.00  0.00    +0.000 NA
ATOM      6  C   UNL     1      44.792   3.507   8.746  0.00  0.00    +0.000 A 
ATOM      7  C   UNL     1      45.852   3.615   7.850  0.00  0.00    +0.000 A 
ATOM      8  C   UNL     1      46.518   2.457   7.427  0.00  0.00    +0.000 A 
BRANCH   8   9
ATOM      9  C   UNL     1      47.650   2.583   6.458  0.00  0.00    +0.000 C 
ATOM     10  N   UNL     1      47.378   3.141   5.241  0.00  0.00    +0.000 N 
ATOM     11  O   UNL     1      48.784   2.199   6.715  0.00  0.00    +0.000 OA
ATOM     12  H   UNL     1      46.446   3.316   4.898  0.00  0.00    +0.000 HD
ATOM     13  H   UNL     1      48.136   3.150   4.570  0.00  0.00    +0.000 HD
ENDBRANCH   8   9
ENDBRANCH   1   6
BRANCH   1  14
ATOM     14  O   UNL     1      43.752   4.581  10.630  0.00  0.00    +0.000 OA
BRANCH  14  15
ATOM     15  C   UNL     1      44.757   4.821  11.521  0.00  0.00    +0.000 A 
ATOM     16  C   UNL     1      45.204   3.941  12.505  0.00  0.00    +0.000 A 
ATOM     17  C   UNL     1      46.281   4.300  13.322  0.00  0.00    +0.000 A 
ATOM     18  C   UNL     1      46.909   5.540  13.168  0.00  0.00    +0.000 A 
ATOM     19  C   UNL     1      46.458   6.419  12.186  0.00  0.00    +0.000 A 
ATOM     20  C   UNL     1      45.400   6.048  11.357  0.00  0.00    +0.000 A 
BRANCH  19  21
ATOM     21  O   UNL     1      47.002   7.649  11.921  0.00  0.00    +0.000 OA
BRANCH  21  22
ATOM     22  C   UNL     1      48.234   8.023  12.576  0.00  0.00    +0.000 C 
ATOM     23  C   UNL     1      48.353   9.439  13.155  0.00  0.00    +0.000 C 
ATOM     24  O   UNL     1      49.530   9.722  12.364  0.00  0.00    +0.000 OA
ATOM     25  C   UNL     1      49.353   8.488  11.631  0.00  0.00    +0.000 C 
ENDBRANCH  21  22
ENDBRANCH  19  21
ENDBRANCH  14  15
ENDBRANCH   1  14
TORSDOF 6
ENDMDL
MODEL 6
REMARK VINA RESULT:    -6.356      3.578      7.617
REMARK INTER + INTRA:          -9.238
REMARK INTER:                  -8.583
REMARK INTRA:                  -0.656
REMARK UNBOUND:                -0.653
REMARK  Name = 
REMARK  7 active torsions:
REMARK  status: ('A' for Active; 'I' for Inactive)
REMARK    1  A    between atoms: C_1  and  C_2
REMARK    2  A    between atoms: C_5  and  C_6
REMARK    3  A    between atoms: C_6  and  O_7
REMARK    4  A    between atoms: O_7  and  C_8
REMARK    5  A    between atoms: C_12  and  O_13
REMARK    6  A    between atoms: O_13  and  C_14
REMARK    7  A    between atoms: C_20  and  C_21
REMARK                            x       y       z     vdW  Elec       q    Type
REMARK                         _______ _______ _______ _____ _____    ______ ____
ROOT
ATOM      1  C   UNL     1      45.842   6.506  12.116  0.00  0.00    +0.000 C 
ENDROOT
BRANCH   1   6
ATOM      2  C   UNL     1      50.975   7.855  14.415  0.00  0.00    +0.000 C 
ATOM      3  C   UNL     1      49.679   7.529  13.735  0.00  0.00    +0.000 A 
ATOM      4  C   UNL     1      48.613   7.051  14.491  0.00  0.00    +0.000 A 
ATOM      5  N   UNL     1      47.405   6.708  13.991  0.00  0.00    +0.000 NA
ATOM      6  C   UNL     1      47.216   6.845  12.658  0.00  0.00    +0.000 A 
ATOM      7  C   UNL     1      48.212   7.341  11.821  0.00  0.00    +0.000 A 
ATOM      8  C   UNL     1      49.464   7.668  12.357  0.00  0.00    +0.000 A 
BRANCH   8   9
ATOM      9  C   UNL     1      50.529   8.192  11.448  0.00  0.00    +0.000 C 
ATOM     10  N   UNL     1      51.384   7.284  10.890  0.00  0.00    +0.000 N 
ATOM     11  O   UNL     1      50.660   9.385  11.205  0.00  0.00    +0.000 OA
ATOM     12  H   UNL     1      51.446   6.320  11.179  0.00  0.00    +0.000 HD
ATOM     13  H   UNL     1      52.144   7.661  10.339  0.00  0.00    +0.000 HD
ENDBRANCH   8   9
ENDBRANCH   1   6
BRANCH   1  14
ATOM     14  O   UNL     1      45.902   6.408  10.691  0.00  0.00    +0.000 OA
BRANCH  14  15
ATOM     15  C   UNL     1      45.472   5.237  10.137  0.00  0.00    +0.000 A 
ATOM     16  C   UNL     1      44.594   4.329  10.726  0.00  0.00    +0.000 A 
ATOM     17  C   UNL     1      44.199   3.187  10.022  0.00  0.00    +0.000 A 
ATOM     18  C   UNL     1      44.684   2.943   8.733  0.00  0.00    +0.000 A 
ATOM     19  C   UNL     1      45.563   3.850   8.148  0.00  0.00    +0.000 A 
ATOM     20  C   UNL     1      45.936   4.999   8.844  0.00  0.00    +0.000 A 
BRANCH  19  21
ATOM     21  O   UNL     1      46.088   3.736   6.887  0.00  0.00    +0.000 OA
BRANCH  21  22
ATOM     22  C   UNL     1      46.468   2.428   6.405  0.00  0.00    +0.000 C 
ATOM     23  C   UNL     1      47.736   1.780   6.976  0.00  0.00    +0.000 C 
ATOM     24  O   UNL     1      48.320   1.640   5.660  0.00  0.00    +0.000 OA
ATOM     25  C   UNL     1      47.253   2.429   5.085  0.00  0.00    +0.000 C 
ENDBRANCH  21  22
ENDBRANCH  19  21
ENDBRANCH  14  15
ENDBRANCH   1  14
TORSDOF 6
ENDMDL
MODEL 7
REMARK VINA RESULT:    -6.331      3.032      7.985
REMARK INTER + INTRA:          -9.205
REMARK INTER:                  -8.758
REMARK INTRA:                  -0.447
REMARK UNBOUND:                -0.653
REMARK  Name = 
REMARK  7 active torsions:
REMARK  status: ('A' for Active; 'I' for Inactive)
REMARK    1  A    between atoms: C_1  and  C_2
REMARK    2  A    between atoms: C_5  and  C_6
REMARK    3  A    between atoms: C_6  and  O_7
REMARK    4  A    between atoms: O_7  and  C_8
REMARK    5  A    between atoms: C_12  and  O_13
REMARK    6  A    between atoms: O_13  and  C_14
REMARK    7  A    between atoms: C_20  and  C_21
REMARK                            x       y       z     vdW  Elec       q    Type
REMARK                         _______ _______ _______ _____ _____    ______ ____
ROOT
ATOM      1  C   UNL     1      45.341   6.147  12.077  0.00  0.00    +0.000 C 
ENDROOT
BRANCH   1   6
ATOM      2  C   UNL     1      50.605   8.021  13.569  0.00  0.00    +0.000 C 
ATOM      3  C   UNL     1      49.229   7.507  13.271  0.00  0.00    +0.000 A 
ATOM      4  C   UNL     1      48.717   7.635  11.984  0.00  0.00    +0.000 A 
ATOM      5  N   UNL     1      47.487   7.228  11.599  0.00  0.00    +0.000 NA
ATOM      6  C   UNL     1      46.698   6.647  12.532  0.00  0.00    +0.000 A 
ATOM      7  C   UNL     1      47.129   6.449  13.840  0.00  0.00    +0.000 A 
ATOM      8  C   UNL     1      48.399   6.899  14.223  0.00  0.00    +0.000 A 
BRANCH   8   9
ATOM      9  C   UNL     1      48.851   6.689  15.633  0.00  0.00    +0.000 C 
ATOM     10  N   UNL     1      48.447   7.601  16.567  0.00  0.00    +0.000 N 
ATOM     11  O   UNL     1      49.564   5.750  15.964  0.00  0.00    +0.000 OA
ATOM     12  H   UNL     1      48.012   8.483  16.340  0.00  0.00    +0.000 HD
ATOM     13  H   UNL     1      48.823   7.487  17.500  0.00  0.00    +0.000 HD
ENDBRANCH   8   9
ENDBRANCH   1   6
BRANCH   1  14
ATOM     14  O   UNL     1      45.293   6.130  10.649  0.00  0.00    +0.000 OA
BRANCH  14  15
ATOM     15  C   UNL     1      45.133   4.911  10.054  0.00  0.00    +0.000 A 
ATOM     16  C   UNL     1      44.402   3.842  10.568  0.00  0.00    +0.000 A 
ATOM     17  C   UNL     1      44.281   2.662   9.827  0.00  0.00    +0.000 A 
ATOM     18  C   UNL     1      44.895   2.542   8.576  0.00  0.00    +0.000 A 
ATOM     19  C   UNL     1      45.626   3.611   8.066  0.00  0.00    +0.000 A 
ATOM     20  C   UNL     1      45.725   4.794   8.797  0.00  0.00    +0.000 A 
BRANCH  19  21
ATOM     21  O   UNL     1      46.253   3.626   6.847  0.00  0.00    +0.000 OA
BRANCH  21  22
ATOM     22  C   UNL     1      46.537   2.369   6.193  0.00  0.00    +0.000 C 
ATOM     23  C   UNL     1      47.569   1.430   6.833  0.00  0.00    +0.000 C 
ATOM     24  O   UNL     1      48.375   1.411   5.632  0.00  0.00    +0.000 OA
ATOM     25  C   UNL     1      47.559   2.453   5.049  0.00  0.00    +0.000 C 
ENDBRANCH  21  22
ENDBRANCH  19  21
ENDBRANCH  14  15
ENDBRANCH   1  14
TORSDOF 6
ENDMDL
MODEL 8
REMARK VINA RESULT:    -6.313      4.174      8.158
REMARK INTER + INTRA:          -9.180
REMARK INTER:                  -8.435
REMARK INTRA:                  -0.746
REMARK UNBOUND:                -0.653
REMARK  Name = 
REMARK  7 active torsions:
REMARK  status: ('A' for Active; 'I' for Inactive)
REMARK    1  A    between atoms: C_1  and  C_2
REMARK    2  A    between atoms: C_5  and  C_6
REMARK    3  A    between atoms: C_6  and  O_7
REMARK    4  A    between atoms: O_7  and  C_8
REMARK    5  A    between atoms: C_12  and  O_13
REMARK    6  A    between atoms: O_13  and  C_14
REMARK    7  A    between atoms: C_20  and  C_21
REMARK                            x       y       z     vdW  Elec       q    Type
REMARK                         _______ _______ _______ _____ _____    ______ ____
ROOT
ATOM      1  C   UNL     1      49.287   7.270  14.016  0.00  0.00    +0.000 C 
ENDROOT
BRANCH   1   6
ATOM      2  C   UNL     1      50.011   4.484  19.032  0.00  0.00    +0.000 C 
ATOM      3  C   UNL     1      49.732   5.186  17.738  0.00  0.00    +0.000 A 
ATOM      4  C   UNL     1      50.780   5.787  17.048  0.00  0.00    +0.000 A 
ATOM      5  N   UNL     1      50.650   6.462  15.883  0.00  0.00    +0.000 NA
ATOM      6  C   UNL     1      49.412   6.555  15.347  0.00  0.00    +0.000 A 
ATOM      7  C   UNL     1      48.304   5.965  15.947  0.00  0.00    +0.000 A 
ATOM      8  C   UNL     1      48.457   5.290  17.165  0.00  0.00    +0.000 A 
BRANCH   8   9
ATOM      9  C   UNL     1      47.258   4.666  17.806  0.00  0.00    +0.000 C 
ATOM     10  N   UNL     1      46.581   5.409  18.731  0.00  0.00    +0.000 N 
ATOM     11  O   UNL     1      46.884   3.532  17.539  0.00  0.00    +0.000 OA
ATOM     12  H   UNL     1      46.928   6.270  19.125  0.00  0.00    +0.000 HD
ATOM     13  H   UNL     1      45.819   4.946  19.210  0.00  0.00    +0.000 HD
ENDBRANCH   8   9
ENDBRANCH   1   6
BRANCH   1  14
ATOM     14  O   UNL     1      48.559   6.448  13.100  0.00  0.00    +0.000 OA
BRANCH  14  15
ATOM     15  C   UNL     1      47.335   6.905  12.705  0.00  0.00    +0.000 A 
ATOM     16  C   UNL     1      46.805   8.164  12.979  0.00  0.00    +0.000 A 
ATOM     17  C   UNL     1      45.552   8.517  12.468  0.00  0.00    +0.000 A 
ATOM     18  C   UNL     1      44.820   7.614  11.690  0.00  0.00    +0.000 A 
ATOM     19  C   UNL     1      45.351   6.356  11.420  0.00  0.00    +0.000 A 
ATOM     20  C   UNL     1      46.611   6.015  11.911  0.00  0.00    +0.000 A 
BRANCH  19  21
ATOM     21  O   UNL     1      44.744   5.393  10.655  0.00  0.00    +0.000 OA
BRANCH  21  22
ATOM     22  C   UNL     1      44.713   4.033  11.140  0.00  0.00    +0.000 C 
ATOM     23  C   UNL     1      44.102   2.951  10.240  0.00  0.00    +0.000 C 
ATOM     24  O   UNL     1      43.144   2.572  11.255  0.00  0.00    +0.000 OA
ATOM     25  C   UNL     1      43.532   3.705  12.065  0.00  0.00    +0.000 C 
ENDBRANCH  21  22
ENDBRANCH  19  21
ENDBRANCH  14  15
ENDBRANCH   1  14
TORSDOF 6
ENDMDL
MODEL 9
REMARK VINA RESULT:    -6.219      3.328      7.428
REMARK INTER + INTRA:          -9.054
REMARK INTER:                  -8.699
REMARK INTRA:                  -0.355
REMARK UNBOUND:                -0.653
REMARK  Name = 
REMARK  7 active torsions:
REMARK  status: ('A' for Active; 'I' for Inactive)
REMARK    1  A    between atoms: C_1  and  C_2
REMARK    2  A    between atoms: C_5  and  C_6
REMARK    3  A    between atoms: C_6  and  O_7
REMARK    4  A    between atoms: O_7  and  C_8
REMARK    5  A    between atoms: C_12  and  O_13
REMARK    6  A    between atoms: O_13  and  C_14
REMARK    7  A    between atoms: C_20  and  C_21
REMARK                            x       y       z     vdW  Elec       q    Type
REMARK                         _______ _______ _______ _____ _____    ______ ____
ROOT
ATOM      1  C   UNL     1      44.033   5.766  12.105  0.00  0.00    +0.000 C 
ENDROOT
BRANCH   1   6
ATOM      2  C   UNL     1      49.218   7.103  14.290  0.00  0.00    +0.000 C 
ATOM      3  C   UNL     1      47.876   6.838  13.678  0.00  0.00    +0.000 A 
ATOM      4  C   UNL     1      47.220   5.645  13.963  0.00  0.00    +0.000 A 
ATOM      5  N   UNL     1      46.017   5.287  13.460  0.00  0.00    +0.000 NA
ATOM      6  C   UNL     1      45.404   6.155  12.622  0.00  0.00    +0.000 A 
ATOM      7  C   UNL     1      45.967   7.385  12.297  0.00  0.00    +0.000 A 
ATOM      8  C   UNL     1      47.224   7.727  12.812  0.00  0.00    +0.000 A 
BRANCH   8   9
ATOM      9  C   UNL     1      47.824   9.048  12.450  0.00  0.00    +0.000 C 
ATOM     10  N   UNL     1      47.450  10.133  13.191  0.00  0.00    +0.000 N 
ATOM     11  O   UNL     1      48.612   9.182  11.524  0.00  0.00    +0.000 OA
ATOM     12  H   UNL     1      46.682  10.129  13.846  0.00  0.00    +0.000 HD
ATOM     13  H   UNL     1      47.805  11.030  12.886  0.00  0.00    +0.000 HD
ENDBRANCH   8   9
ENDBRANCH   1   6
BRANCH   1  14
ATOM     14  O   UNL     1      44.075   5.656  10.680  0.00  0.00    +0.000 OA
BRANCH  14  15
ATOM     15  C   UNL     1      44.286   4.410  10.166  0.00  0.00    +0.000 A 
ATOM     16  C   UNL     1      43.924   3.206  10.767  0.00  0.00    +0.000 A 
ATOM     17  C   UNL     1      44.159   1.998  10.102  0.00  0.00    +0.000 A 
ATOM     18  C   UNL     1      44.762   1.986   8.840  0.00  0.00    +0.000 A 
ATOM     19  C   UNL     1      45.125   3.190   8.243  0.00  0.00    +0.000 A 
ATOM     20  C   UNL     1      44.868   4.394   8.899  0.00  0.00    +0.000 A 
BRANCH  19  21
ATOM     21  O   UNL     1      45.700   3.313   7.004  0.00  0.00    +0.000 OA
BRANCH  21  22
ATOM     22  C   UNL     1      47.078   2.915   6.833  0.00  0.00    +0.000 C 
ATOM     23  C   UNL     1      47.550   2.501   5.432  0.00  0.00    +0.000 C 
ATOM     24  O   UNL     1      47.988   1.206   5.905  0.00  0.00    +0.000 OA
ATOM     25  C   UNL     1      47.378   1.452   7.192  0.00  0.00    +0.000 C 
ENDBRANCH  21  22
ENDBRANCH  19  21
ENDBRANCH  14  15
ENDBRANCH   1  14
TORSDOF 6
ENDMDL
