MODEL 1
REMARK VINA RESULT:    -7.817      0.000      0.000
REMARK INTER + INTRA:         -11.867
REMARK INTER:                 -10.788
REMARK INTRA:                  -1.080
REMARK UNBOUND:                -1.080
REMARK  Name = 
REMARK  7 active torsions:
REMARK  status: ('A' for Active; 'I' for Inactive)
REMARK    1  A    between atoms: C_2  and  C_20
REMARK    2  A    between atoms: N_3  and  C_4
REMARK    3  A    between atoms: C_4  and  C_5
REMARK    4  A    between atoms: C_8  and  C_9
REMARK    5  A    between atoms: C_10  and  C_11
REMARK    6  A    between atoms: C_11  and  C_12
REMARK    7  A    between atoms: C_27  and  O_28
REMARK                            x       y       z     vdW  Elec       q    Type
REMARK                         _______ _______ _______ _____ _____    ______ ____
ROOT
ATOM      1  O   UNL     1      50.331   7.724  15.501  0.00  0.00    +0.000 OA
ATOM      2  C   UNL     1      49.269   7.421  16.037  0.00  0.00    +0.000 C 
ATOM      3  N   UNL     1      48.073   7.986  15.690  0.00  0.00    +0.000 N 
ATOM      4  H   UNL     1      47.219   7.609  16.086  0.00  0.00    +0.000 HD
ENDROOT
BRANCH   2   5
ATOM      5  C   UNL     1      49.205   6.451  17.123  0.00  0.00    +0.000 A 
ATOM      6  C   UNL     1      49.987   6.535  18.267  0.00  0.00    +0.000 A 
ATOM      7  N   UNL     1      49.573   5.557  19.128  0.00  0.00    +0.000 N 
ATOM      8  C   UNL     1      48.860   4.631  18.423  0.00  0.00    +0.000 A 
ATOM      9  N   UNL     1      48.567   3.390  18.841  0.00  0.00    +0.000 NA
ATOM     10  C   UNL     1      47.836   2.726  17.929  0.00  0.00    +0.000 A 
ATOM     11  N   UNL     1      47.266   3.216  16.809  0.00  0.00    +0.000 NA
ATOM     12  C   UNL     1      47.572   4.478  16.486  0.00  0.00    +0.000 A 
ATOM     13  C   UNL     1      48.478   5.223  17.229  0.00  0.00    +0.000 A 
ATOM     14  H   UNL     1      49.809   5.477  20.108  0.00  0.00    +0.000 HD
BRANCH  12  15
ATOM     15  O   UNL     1      46.908   4.972  15.400  0.00  0.00    +0.000 OA
ATOM     16  H   UNL     1      47.545   5.652  15.105  0.00  0.00    +0.000 HD
ENDBRANCH  12  15
ENDBRANCH   2   5
BRANCH   3  17
ATOM     17  C   UNL     1      47.983   8.822  14.520  0.00  0.00    +0.000 C 
BRANCH  17  18
ATOM     18  C   UNL     1      47.330   8.093  13.390  0.00  0.00    +0.000 A 
ATOM     19  C   UNL     1      46.054   8.427  12.942  0.00  0.00    +0.000 A 
ATOM     20  C   UNL     1      45.462   7.684  11.919  0.00  0.00    +0.000 A 
ATOM     21  C   UNL     1      46.194   6.615  11.400  0.00  0.00    +0.000 A 
ATOM     22  N   UNL     1      47.420   6.267  11.800  0.00  0.00    +0.000 NA
ATOM     23  C   UNL     1      47.969   7.015  12.788  0.00  0.00    +0.000 A 
BRANCH  21  24
ATOM     24  C   UNL     1      45.615   5.749  10.429  0.00  0.00    +0.000 C 
ATOM     25  C   UNL     1      45.119   4.904   9.568  0.00  0.00    +0.000 C 
BRANCH  25  26
ATOM     26  C   UNL     1      44.540   3.920   8.565  0.00  0.00    +0.000 C 
BRANCH  26  27
ATOM     27  C   UNL     1      45.622   3.038   8.012  0.00  0.00    +0.000 A 
ATOM     28  C   UNL     1      46.461   3.468   6.980  0.00  0.00    +0.000 A 
ATOM     29  C   UNL     1      47.423   2.603   6.466  0.00  0.00    +0.000 A 
ATOM     30  C   UNL     1      47.512   1.328   7.000  0.00  0.00    +0.000 A 
ATOM     31  N   UNL     1      46.714   0.873   7.990  0.00  0.00    +0.000 NA
ATOM     32  C   UNL     1      45.787   1.733   8.467  0.00  0.00    +0.000 A 
ENDBRANCH  26  27
ENDBRANCH  25  26
ENDBRANCH  21  24
ENDBRANCH  17  18
ENDBRANCH   3  17
TORSDOF 7
ENDMDL
MODEL 2
REMARK VINA RESULT:    -7.492      2.094      2.339
REMARK INTER + INTRA:         -11.418
REMARK INTER:                 -10.644
REMARK INTRA:                  -0.773
REMARK UNBOUND:                -1.080
REMARK  Name = 
REMARK  7 active torsions:
REMARK  status: ('A' for Active; 'I' for Inactive)
REMARK    1  A    between atoms: C_2  and  C_20
REMARK    2  A    between atoms: N_3  and  C_4
REMARK    3  A    between atoms: C_4  and  C_5
REMARK    4  A    between atoms: C_8  and  C_9
REMARK    5  A    between atoms: C_10  and  C_11
REMARK    6  A    between atoms: C_11  and  C_12
REMARK    7  A    between atoms: C_27  and  O_28
REMARK                            x       y       z     vdW  Elec       q    Type
REMARK                         _______ _______ _______ _____ _____    ______ ____
ROOT
ATOM      1  O   UNL     1      48.371   6.164  17.726  0.00  0.00    +0.000 OA
ATOM      2  C   UNL     1      49.424   5.979  17.122  0.00  0.00    +0.000 C 
ATOM      3  N   UNL     1      49.672   6.502  15.884  0.00  0.00    +0.000 N 
ATOM      4  H   UNL     1      50.602   6.412  15.491  0.00  0.00    +0.000 HD
ENDROOT
BRANCH   2   5
ATOM      5  C   UNL     1      50.488   5.148  17.670  0.00  0.00    +0.000 A 
ATOM      6  C   UNL     1      51.596   5.664  18.328  0.00  0.00    +0.000 A 
ATOM      7  N   UNL     1      52.311   4.612  18.830  0.00  0.00    +0.000 N 
ATOM      8  C   UNL     1      51.924   3.475  18.181  0.00  0.00    +0.000 A 
ATOM      9  N   UNL     1      52.603   2.318  18.167  0.00  0.00    +0.000 NA
ATOM     10  C   UNL     1      51.955   1.379  17.456  0.00  0.00    +0.000 A 
ATOM     11  N   UNL     1      50.705   1.438  16.953  0.00  0.00    +0.000 NA
ATOM     12  C   UNL     1      50.076   2.616  17.049  0.00  0.00    +0.000 A 
ATOM     13  C   UNL     1      50.702   3.736  17.581  0.00  0.00    +0.000 A 
ATOM     14  H   UNL     1      53.055   4.660  19.512  0.00  0.00    +0.000 HD
BRANCH  12  15
ATOM     15  O   UNL     1      48.782   2.616  16.615  0.00  0.00    +0.000 OA
ATOM     16  H   UNL     1      48.826   3.331  15.950  0.00  0.00    +0.000 HD
ENDBRANCH  12  15
ENDBRANCH   2   5
BRANCH   3  17
ATOM     17  C   UNL     1      48.775   7.478  15.319  0.00  0.00    +0.000 C 
BRANCH  17  18
ATOM     18  C   UNL     1      47.924   6.869  14.251  0.00  0.00    +0.000 A 
ATOM     19  C   UNL     1      47.496   5.545  14.321  0.00  0.00    +0.000 A 
ATOM     20  C   UNL     1      46.749   5.003  13.274  0.00  0.00    +0.000 A 
ATOM     21  C   UNL     1      46.477   5.834  12.185  0.00  0.00    +0.000 A 
ATOM     22  N   UNL     1      46.867   7.107  12.085  0.00  0.00    +0.000 NA
ATOM     23  C   UNL     1      47.582   7.605  13.122  0.00  0.00    +0.000 A 
BRANCH  21  24
ATOM     24  C   UNL     1      45.811   5.320  11.036  0.00  0.00    +0.000 C 
ATOM     25  C   UNL     1      45.247   4.801   9.981  0.00  0.00    +0.000 C 
BRANCH  25  26
ATOM     26  C   UNL     1      44.589   4.196   8.752  0.00  0.00    +0.000 C 
BRANCH  26  27
ATOM     27  C   UNL     1      45.491   3.171   8.126  0.00  0.00    +0.000 A 
ATOM     28  C   UNL     1      46.228   3.451   6.972  0.00  0.00    +0.000 A 
ATOM     29  C   UNL     1      47.019   2.460   6.399  0.00  0.00    +0.000 A 
ATOM     30  C   UNL     1      47.042   1.211   6.998  0.00  0.00    +0.000 A 
ATOM     31  N   UNL     1      46.338   0.898   8.106  0.00  0.00    +0.000 NA
ATOM     32  C   UNL     1      45.577   1.880   8.640  0.00  0.00    +0.000 A 
ENDBRANCH  26  27
ENDBRANCH  25  26
ENDBRANCH  21  24
ENDBRANCH  17  18
ENDBRANCH   3  17
TORSDOF 7
ENDMDL
MODEL 3
REMARK VINA RESULT:    -7.327      2.112      2.542
REMARK INTER + INTRA:         -11.191
REMARK INTER:                 -10.237
REMARK INTRA:                  -0.954
REMARK UNBOUND:                -1.080
REMARK  Name = 
REMARK  7 active torsions:
REMARK  status: ('A' for Active; 'I' for Inactive)
REMARK    1  A    between atoms: C_2  and  C_20
REMARK    2  A    between atoms: N_3  and  C_4
REMARK    3  A    between atoms: C_4  and  C_5
REMARK    4  A    between atoms: C_8  and  C_9
REMARK    5  A    between atoms: C_10  and  C_11
REMARK    6  A    between atoms: C_11  and  C_12
REMARK    7  A    between atoms: C_27  and  O_28
REMARK                            x       y       z     vdW  Elec       q    Type
REMARK                         _______ _______ _______ _____ _____    ______ ____
ROOT
ATOM      1  O   UNL     1      49.124  10.492  16.696  0.00  0.00    +0.000 OA
ATOM      2  C   UNL     1      48.275   9.625  16.885  0.00  0.00    +0.000 C 
ATOM      3  N   UNL     1      47.619   8.992  15.867  0.00  0.00    +0.000 N 
ATOM      4  H   UNL     1      47.018   8.205  16.084  0.00  0.00    +0.000 HD
ENDROOT
BRANCH   2   5
ATOM      5  C   UNL     1      47.871   9.225  18.227  0.00  0.00    +0.000 A 
ATOM      6  C   UNL     1      47.614  10.131  19.247  0.00  0.00    +0.000 A 
ATOM      7  N   UNL     1      47.126   9.430  20.315  0.00  0.00    +0.000 N 
ATOM      8  C   UNL     1      47.445   8.112  20.151  0.00  0.00    +0.000 A 
ATOM      9  N   UNL     1      47.422   7.180  21.115  0.00  0.00    +0.000 NA
ATOM     10  C   UNL     1      47.770   5.972  20.637  0.00  0.00    +0.000 A 
ATOM     11  N   UNL     1      47.948   5.612  19.350  0.00  0.00    +0.000 NA
ATOM     12  C   UNL     1      47.909   6.595  18.443  0.00  0.00    +0.000 A 
ATOM     13  C   UNL     1      47.758   7.925  18.814  0.00  0.00    +0.000 A 
ATOM     14  H   UNL     1      46.672   9.814  21.132  0.00  0.00    +0.000 HD
BRANCH  12  15
ATOM     15  O   UNL     1      47.999   6.185  17.144  0.00  0.00    +0.000 OA
ATOM     16  H   UNL     1      48.866   6.568  16.904  0.00  0.00    +0.000 HD
ENDBRANCH  12  15
ENDBRANCH   2   5
BRANCH   3  17
ATOM     17  C   UNL     1      48.054   9.174  14.505  0.00  0.00    +0.000 C 
BRANCH  17  18
ATOM     18  C   UNL     1      47.404   8.179  13.597  0.00  0.00    +0.000 A 
ATOM     19  C   UNL     1      47.794   6.842  13.578  0.00  0.00    +0.000 A 
ATOM     20  C   UNL     1      47.196   5.960  12.675  0.00  0.00    +0.000 A 
ATOM     21  C   UNL     1      46.228   6.483  11.816  0.00  0.00    +0.000 A 
ATOM     22  N   UNL     1      45.826   7.757  11.808  0.00  0.00    +0.000 NA
ATOM     23  C   UNL     1      46.419   8.584  12.703  0.00  0.00    +0.000 A 
BRANCH  21  24
ATOM     24  C   UNL     1      45.651   5.668  10.800  0.00  0.00    +0.000 C 
ATOM     25  C   UNL     1      45.097   4.882   9.919  0.00  0.00    +0.000 C 
BRANCH  25  26
ATOM     26  C   UNL     1      44.451   3.967   8.892  0.00  0.00    +0.000 C 
BRANCH  26  27
ATOM     27  C   UNL     1      45.479   3.058   8.282  0.00  0.00    +0.000 A 
ATOM     28  C   UNL     1      46.364   3.509   7.298  0.00  0.00    +0.000 A 
ATOM     29  C   UNL     1      47.272   2.623   6.726  0.00  0.00    +0.000 A 
ATOM     30  C   UNL     1      47.262   1.306   7.154  0.00  0.00    +0.000 A 
ATOM     31  N   UNL     1      46.418   0.829   8.094  0.00  0.00    +0.000 NA
ATOM     32  C   UNL     1      45.545   1.712   8.630  0.00  0.00    +0.000 A 
ENDBRANCH  26  27
ENDBRANCH  25  26
ENDBRANCH  21  24
ENDBRANCH  17  18
ENDBRANCH   3  17
TORSDOF 7
ENDMDL
MODEL 4
REMARK VINA RESULT:    -7.277      2.971      9.083
REMARK INTER + INTRA:         -11.122
REMARK INTER:                 -10.209
REMARK INTRA:                  -0.913
REMARK UNBOUND:                -1.080
REMARK  Name = 
REMARK  7 active torsions:
REMARK  status: ('A' for Active; 'I' for Inactive)
REMARK    1  A    between atoms: C_2  and  C_20
REMARK    2  A    between atoms: N_3  and  C_4
REMARK    3  A    between atoms: C_4  and  C_5
REMARK    4  A    between atoms: C_8  and  C_9
REMARK    5  A    between atoms: C_10  and  C_11
REMARK    6  A    between atoms: C_11  and  C_12
REMARK    7  A    between atoms: C_27  and  O_28
REMARK                            x       y       z     vdW  Elec       q    Type
REMARK                         _______ _______ _______ _____ _____    ______ ____
ROOT
ATOM      1  O   UNL     1      43.381   5.030   9.930  0.00  0.00    +0.000 OA
ATOM      2  C   UNL     1      44.530   4.597   9.907  0.00  0.00    +0.000 C 
ATOM      3  N   UNL     1      45.609   5.329  10.318  0.00  0.00    +0.000 N 
ATOM      4  H   UNL     1      46.513   4.875  10.386  0.00  0.00    +0.000 HD
ENDROOT
BRANCH   2   5
ATOM      5  C   UNL     1      44.840   3.267   9.398  0.00  0.00    +0.000 A 
ATOM      6  C   UNL     1      44.262   2.107   9.896  0.00  0.00    +0.000 A 
ATOM      7  N   UNL     1      44.664   1.067   9.105  0.00  0.00    +0.000 N 
ATOM      8  C   UNL     1      45.766   1.459   8.400  0.00  0.00    +0.000 A 
ATOM      9  N   UNL     1      46.621   0.638   7.772  0.00  0.00    +0.000 NA
ATOM     10  C   UNL     1      47.595   1.327   7.151  0.00  0.00    +0.000 A 
ATOM     11  N   UNL     1      47.677   2.660   6.967  0.00  0.00    +0.000 NA
ATOM     12  C   UNL     1      46.757   3.407   7.589  0.00  0.00    +0.000 A 
ATOM     13  C   UNL     1      45.807   2.844   8.432  0.00  0.00    +0.000 A 
ATOM     14  H   UNL     1      44.272   0.136   9.087  0.00  0.00    +0.000 HD
BRANCH  12  15
ATOM     15  O   UNL     1      46.812   4.742   7.308  0.00  0.00    +0.000 OA
ATOM     16  H   UNL     1      47.082   4.708   6.370  0.00  0.00    +0.000 HD
ENDBRANCH  12  15
ENDBRANCH   2   5
BRANCH   3  17
ATOM     17  C   UNL     1      45.412   6.583  11.001  0.00  0.00    +0.000 C 
BRANCH  17  18
ATOM     18  C   UNL     1      46.406   6.754  12.104  0.00  0.00    +0.000 A 
ATOM     19  C   UNL     1      46.953   7.998  12.411  0.00  0.00    +0.000 A 
ATOM     20  C   UNL     1      47.918   8.102  13.414  0.00  0.00    +0.000 A 
ATOM     21  C   UNL     1      48.299   6.923  14.059  0.00  0.00    +0.000 A 
ATOM     22  N   UNL     1      47.795   5.715  13.795  0.00  0.00    +0.000 NA
ATOM     23  C   UNL     1      46.853   5.651  12.823  0.00  0.00    +0.000 A 
BRANCH  21  24
ATOM     24  C   UNL     1      49.351   6.935  15.019  0.00  0.00    +0.000 C 
ATOM     25  C   UNL     1      50.290   6.887  15.922  0.00  0.00    +0.000 C 
BRANCH  25  26
ATOM     26  C   UNL     1      51.385   6.832  16.975  0.00  0.00    +0.000 C 
BRANCH  26  27
ATOM     27  C   UNL     1      51.735   5.406  17.293  0.00  0.00    +0.000 A 
ATOM     28  C   UNL     1      50.749   4.429  17.454  0.00  0.00    +0.000 A 
ATOM     29  C   UNL     1      51.113   3.129  17.791  0.00  0.00    +0.000 A 
ATOM     30  C   UNL     1      52.458   2.848  17.964  0.00  0.00    +0.000 A 
ATOM     31  N   UNL     1      53.439   3.765  17.826  0.00  0.00    +0.000 NA
ATOM     32  C   UNL     1      53.056   5.021  17.501  0.00  0.00    +0.000 A 
ENDBRANCH  26  27
ENDBRANCH  25  26
ENDBRANCH  21  24
ENDBRANCH  17  18
ENDBRANCH   3  17
TORSDOF 7
ENDMDL
MODEL 5
REMARK VINA RESULT:    -6.941      2.864      5.110
REMARK INTER + INTRA:         -10.658
REMARK INTER:                  -9.636
REMARK INTRA:                  -1.022
REMARK UNBOUND:                -1.080
REMARK  Name = 
REMARK  7 active torsions:
REMARK  status: ('A' for Active; 'I' for Inactive)
REMARK    1  A    between atoms: C_2  and  C_20
REMARK    2  A    between atoms: N_3  and  C_4
REMARK    3  A    between atoms: C_4  and  C_5
REMARK    4  A    between atoms: C_8  and  C_9
REMARK    5  A    between atoms: C_10  and  C_11
REMARK    6  A    between atoms: C_11  and  C_12
REMARK    7  A    between atoms: C_27  and  O_28
REMARK                            x       y       z     vdW  Elec       q    Type
REMARK                         _______ _______ _______ _____ _____    ______ ____
ROOT
ATOM      1  O   UNL     1      45.533   6.735  12.440  0.00  0.00    +0.000 OA
ATOM      2  C   UNL     1      45.566   5.589  12.880  0.00  0.00    +0.000 C 
ATOM      3  N   UNL     1      44.740   4.596  12.434  0.00  0.00    +0.000 N 
ATOM      4  H   UNL     1      44.897   3.647  12.751  0.00  0.00    +0.000 HD
ENDROOT
BRANCH   2   5
ATOM      5  C   UNL     1      46.477   5.203  13.951  0.00  0.00    +0.000 A 
ATOM      6  C   UNL     1      46.238   4.137  14.807  0.00  0.00    +0.000 A 
ATOM      7  N   UNL     1      47.349   3.970  15.587  0.00  0.00    +0.000 N 
ATOM      8  C   UNL     1      48.091   5.115  15.535  0.00  0.00    +0.000 A 
ATOM      9  N   UNL     1      49.063   5.452  16.396  0.00  0.00    +0.000 NA
ATOM     10  C   UNL     1      49.620   6.632  16.068  0.00  0.00    +0.000 A 
ATOM     11  N   UNL     1      49.428   7.353  14.945  0.00  0.00    +0.000 NA
ATOM     12  C   UNL     1      48.472   6.923  14.113  0.00  0.00    +0.000 A 
ATOM     13  C   UNL     1      47.674   5.829  14.422  0.00  0.00    +0.000 A 
ATOM     14  H   UNL     1      47.562   3.173  16.169  0.00  0.00    +0.000 HD
BRANCH  12  15
ATOM     15  O   UNL     1      48.367   7.621  12.945  0.00  0.00    +0.000 OA
ATOM     16  H   UNL     1      49.142   8.211  13.029  0.00  0.00    +0.000 HD
ENDBRANCH  12  15
ENDBRANCH   2   5
BRANCH   3  17
ATOM     17  C   UNL     1      43.924   4.808  11.264  0.00  0.00    +0.000 C 
BRANCH  17  18
ATOM     18  C   UNL     1      44.521   4.141  10.067  0.00  0.00    +0.000 A 
ATOM     19  C   UNL     1      44.421   2.765   9.869  0.00  0.00    +0.000 A 
ATOM     20  C   UNL     1      45.040   2.178   8.764  0.00  0.00    +0.000 A 
ATOM     21  C   UNL     1      45.752   3.020   7.907  0.00  0.00    +0.000 A 
ATOM     22  N   UNL     1      45.866   4.342   8.062  0.00  0.00    +0.000 NA
ATOM     23  C   UNL     1      45.246   4.881   9.139  0.00  0.00    +0.000 A 
BRANCH  21  24
ATOM     24  C   UNL     1      46.495   2.480   6.819  0.00  0.00    +0.000 C 
ATOM     25  C   UNL     1      47.135   1.930   5.824  0.00  0.00    +0.000 C 
BRANCH  25  26
ATOM     26  C   UNL     1      47.880   1.290   4.665  0.00  0.00    +0.000 C 
BRANCH  26  27
ATOM     27  C   UNL     1      46.919   0.599   3.741  0.00  0.00    +0.000 A 
ATOM     28  C   UNL     1      45.915   1.302   3.069  0.00  0.00    +0.000 A 
ATOM     29  C   UNL     1      45.018   0.616   2.256  0.00  0.00    +0.000 A 
ATOM     30  C   UNL     1      45.149  -0.758   2.146  0.00  0.00    +0.000 A 
ATOM     31  N   UNL     1      46.098  -1.474   2.786  0.00  0.00    +0.000 NA
ATOM     32  C   UNL     1      46.955  -0.782   3.571  0.00  0.00    +0.000 A 
ENDBRANCH  26  27
ENDBRANCH  25  26
ENDBRANCH  21  24
ENDBRANCH  17  18
ENDBRANCH   3  17
TORSDOF 7
ENDMDL
MODEL 6
REMARK VINA RESULT:    -6.886      1.477      2.410
REMARK INTER + INTRA:         -10.582
REMARK INTER:                  -9.820
REMARK INTRA:                  -0.761
REMARK UNBOUND:                -1.080
REMARK  Name = 
REMARK  7 active torsions:
REMARK  status: ('A' for Active; 'I' for Inactive)
REMARK    1  A    between atoms: C_2  and  C_20
REMARK    2  A    between atoms: N_3  and  C_4
REMARK    3  A    between atoms: C_4  and  C_5
REMARK    4  A    between atoms: C_8  and  C_9
REMARK    5  A    between atoms: C_10  and  C_11
REMARK    6  A    between atoms: C_11  and  C_12
REMARK    7  A    between atoms: C_27  and  O_28
REMARK                            x       y       z     vdW  Elec       q    Type
REMARK                         _______ _______ _______ _____ _____    ______ ____
ROOT
ATOM      1  O   UNL     1      50.215   6.189  15.923  0.00  0.00    +0.000 OA
ATOM      2  C   UNL     1      49.161   6.388  16.520  0.00  0.00    +0.000 C 
ATOM      3  N   UNL     1      48.250   7.330  16.128  0.00  0.00    +0.000 N 
ATOM      4  H   UNL     1      47.349   7.364  16.591  0.00  0.00    +0.000 HD
ENDROOT
BRANCH   2   5
ATOM      5  C   UNL     1      48.811   5.653  17.729  0.00  0.00    +0.000 A 
ATOM      6  C   UNL     1      47.545   5.135  17.967  0.00  0.00    +0.000 A 
ATOM      7  N   UNL     1      47.607   4.391  19.113  0.00  0.00    +0.000 N 
ATOM      8  C   UNL     1      48.731   4.748  19.802  0.00  0.00    +0.000 A 
ATOM      9  N   UNL     1      48.968   4.481  21.095  0.00  0.00    +0.000 NA
ATOM     10  C   UNL     1      50.170   4.946  21.478  0.00  0.00    +0.000 A 
ATOM     11  N   UNL     1      51.148   5.453  20.700  0.00  0.00    +0.000 NA
ATOM     12  C   UNL     1      50.846   5.646  19.410  0.00  0.00    +0.000 A 
ATOM     13  C   UNL     1      49.573   5.398  18.913  0.00  0.00    +0.000 A 
ATOM     14  H   UNL     1      46.911   3.739  19.446  0.00  0.00    +0.000 HD
BRANCH  12  15
ATOM     15  O   UNL     1      51.884   6.072  18.633  0.00  0.00    +0.000 OA
ATOM     16  H   UNL     1      51.389   6.520  17.919  0.00  0.00    +0.000 HD
ENDBRANCH  12  15
ENDBRANCH   2   5
BRANCH   3  17
ATOM     17  C   UNL     1      48.400   7.993  14.857  0.00  0.00    +0.000 C 
BRANCH  17  18
ATOM     18  C   UNL     1      47.656   7.265  13.783  0.00  0.00    +0.000 A 
ATOM     19  C   UNL     1      47.137   5.989  13.987  0.00  0.00    +0.000 A 
ATOM     20  C   UNL     1      46.497   5.326  12.938  0.00  0.00    +0.000 A 
ATOM     21  C   UNL     1      46.423   5.991  11.713  0.00  0.00    +0.000 A 
ATOM     22  N   UNL     1      46.904   7.215  11.481  0.00  0.00    +0.000 NA
ATOM     23  C   UNL     1      47.511   7.834  12.522  0.00  0.00    +0.000 A 
BRANCH  21  24
ATOM     24  C   UNL     1      45.878   5.337  10.571  0.00  0.00    +0.000 C 
ATOM     25  C   UNL     1      45.330   4.713   9.565  0.00  0.00    +0.000 C 
BRANCH  25  26
ATOM     26  C   UNL     1      44.692   3.985   8.393  0.00  0.00    +0.000 C 
BRANCH  26  27
ATOM     27  C   UNL     1      45.628   2.944   7.851  0.00  0.00    +0.000 A 
ATOM     28  C   UNL     1      46.365   3.159   6.682  0.00  0.00    +0.000 A 
ATOM     29  C   UNL     1      47.189   2.151   6.189  0.00  0.00    +0.000 A 
ATOM     30  C   UNL     1      47.244   0.952   6.880  0.00  0.00    +0.000 A 
ATOM     31  N   UNL     1      46.541   0.702   8.006  0.00  0.00    +0.000 NA
ATOM     32  C   UNL     1      45.747   1.698   8.460  0.00  0.00    +0.000 A 
ENDBRANCH  26  27
ENDBRANCH  25  26
ENDBRANCH  21  24
ENDBRANCH  17  18
ENDBRANCH   3  17
TORSDOF 7
ENDMDL
MODEL 7
REMARK VINA RESULT:    -6.599      3.514      4.856
REMARK INTER + INTRA:         -10.186
REMARK INTER:                  -9.203
REMARK INTRA:                  -0.983
REMARK UNBOUND:                -1.080
REMARK  Name = 
REMARK  7 active torsions:
REMARK  status: ('A' for Active; 'I' for Inactive)
REMARK    1  A    between atoms: C_2  and  C_20
REMARK    2  A    between atoms: N_3  and  C_4
REMARK    3  A    between atoms: C_4  and  C_5
REMARK    4  A    between atoms: C_8  and  C_9
REMARK    5  A    between atoms: C_10  and  C_11
REMARK    6  A    between atoms: C_11  and  C_12
REMARK    7  A    between atoms: C_27  and  O_28
REMARK                            x       y       z     vdW  Elec       q    Type
REMARK                         _______ _______ _______ _____ _____    ______ ____
ROOT
ATOM      1  O   UNL     1      47.365   6.868  19.194  0.00  0.00    +0.000 OA
ATOM      2  C   UNL     1      47.928   7.628  18.411  0.00  0.00    +0.000 C 
ATOM      3  N   UNL     1      48.778   7.194  17.434  0.00  0.00    +0.000 N 
ATOM      4  H   UNL     1      49.116   7.857  16.746  0.00  0.00    +0.000 HD
ENDROOT
BRANCH   2   5
ATOM      5  C   UNL     1      47.757   9.074  18.488  0.00  0.00    +0.000 A 
ATOM      6  C   UNL     1      47.947   9.921  17.405  0.00  0.00    +0.000 A 
ATOM      7  N   UNL     1      47.568  11.179  17.788  0.00  0.00    +0.000 N 
ATOM      8  C   UNL     1      47.536  11.226  19.152  0.00  0.00    +0.000 A 
ATOM      9  N   UNL     1      47.522  12.345  19.891  0.00  0.00    +0.000 NA
ATOM     10  C   UNL     1      47.473  12.063  21.205  0.00  0.00    +0.000 A 
ATOM     11  N   UNL     1      47.269  10.863  21.787  0.00  0.00    +0.000 NA
ATOM     12  C   UNL     1      47.249   9.800  20.973  0.00  0.00    +0.000 A 
ATOM     13  C   UNL     1      47.490   9.919  19.611  0.00  0.00    +0.000 A 
ATOM     14  H   UNL     1      47.408  11.971  17.181  0.00  0.00    +0.000 HD
BRANCH  12  15
ATOM     15  O   UNL     1      46.950   8.615  21.581  0.00  0.00    +0.000 OA
ATOM     16  H   UNL     1      47.705   8.545  22.198  0.00  0.00    +0.000 HD
ENDBRANCH  12  15
ENDBRANCH   2   5
BRANCH   3  17
ATOM     17  C   UNL     1      48.888   5.785  17.147  0.00  0.00    +0.000 C 
BRANCH  17  18
ATOM     18  C   UNL     1      48.133   5.430  15.907  0.00  0.00    +0.000 A 
ATOM     19  C   UNL     1      48.132   6.259  14.787  0.00  0.00    +0.000 A 
ATOM     20  C   UNL     1      47.369   5.913  13.670  0.00  0.00    +0.000 A 
ATOM     21  C   UNL     1      46.621   4.736  13.746  0.00  0.00    +0.000 A 
ATOM     22  N   UNL     1      46.600   3.916  14.800  0.00  0.00    +0.000 NA
ATOM     23  C   UNL     1      47.359   4.275  15.863  0.00  0.00    +0.000 A 
BRANCH  21  24
ATOM     24  C   UNL     1      45.739   4.374  12.689  0.00  0.00    +0.000 C 
ATOM     25  C   UNL     1      44.986   4.026  11.682  0.00  0.00    +0.000 C 
BRANCH  25  26
ATOM     26  C   UNL     1      44.107   3.621  10.510  0.00  0.00    +0.000 C 
BRANCH  26  27
ATOM     27  C   UNL     1      44.952   3.280   9.316  0.00  0.00    +0.000 A 
ATOM     28  C   UNL     1      45.405   1.977   9.088  0.00  0.00    +0.000 A 
ATOM     29  C   UNL     1      46.222   1.712   7.994  0.00  0.00    +0.000 A 
ATOM     30  C   UNL     1      46.566   2.763   7.161  0.00  0.00    +0.000 A 
ATOM     31  N   UNL     1      46.157   4.036   7.352  0.00  0.00    +0.000 NA
ATOM     32  C   UNL     1      45.367   4.265   8.425  0.00  0.00    +0.000 A 
ENDBRANCH  26  27
ENDBRANCH  25  26
ENDBRANCH  21  24
ENDBRANCH  17  18
ENDBRANCH   3  17
TORSDOF 7
ENDMDL
MODEL 8
REMARK VINA RESULT:    -6.445      2.793      3.439
REMARK INTER + INTRA:          -9.974
REMARK INTER:                  -9.099
REMARK INTRA:                  -0.875
REMARK UNBOUND:                -1.080
REMARK  Name = 
REMARK  7 active torsions:
REMARK  status: ('A' for Active; 'I' for Inactive)
REMARK    1  A    between atoms: C_2  and  C_20
REMARK    2  A    between atoms: N_3  and  C_4
REMARK    3  A    between atoms: C_4  and  C_5
REMARK    4  A    between atoms: C_8  and  C_9
REMARK    5  A    between atoms: C_10  and  C_11
REMARK    6  A    between atoms: C_11  and  C_12
REMARK    7  A    between atoms: C_27  and  O_28
REMARK                            x       y       z     vdW  Elec       q    Type
REMARK                         _______ _______ _______ _____ _____    ______ ____
ROOT
ATOM      1  O   UNL     1      53.059   6.685  16.405  0.00  0.00    +0.000 OA
ATOM      2  C   UNL     1      52.301   5.943  17.024  0.00  0.00    +0.000 C 
ATOM      3  N   UNL     1      50.984   6.239  17.241  0.00  0.00    +0.000 N 
ATOM      4  H   UNL     1      50.384   5.535  17.654  0.00  0.00    +0.000 HD
ENDROOT
BRANCH   2   5
ATOM      5  C   UNL     1      52.761   4.693  17.615  0.00  0.00    +0.000 A 
ATOM      6  C   UNL     1      54.024   4.531  18.168  0.00  0.00    +0.000 A 
ATOM      7  N   UNL     1      54.069   3.295  18.751  0.00  0.00    +0.000 N 
ATOM      8  C   UNL     1      53.051   2.538  18.245  0.00  0.00    +0.000 A 
ATOM      9  N   UNL     1      52.959   1.203  18.328  0.00  0.00    +0.000 NA
ATOM     10  C   UNL     1      51.831   0.754  17.749  0.00  0.00    +0.000 A 
ATOM     11  N   UNL     1      50.789   1.478  17.293  0.00  0.00    +0.000 NA
ATOM     12  C   UNL     1      50.943   2.808  17.288  0.00  0.00    +0.000 A 
ATOM     13  C   UNL     1      52.137   3.407  17.670  0.00  0.00    +0.000 A 
ATOM     14  H   UNL     1      54.773   2.956  19.393  0.00  0.00    +0.000 HD
BRANCH  12  15
ATOM     15  O   UNL     1      49.838   3.515  16.909  0.00  0.00    +0.000 OA
ATOM     16  H   UNL     1      50.083   3.732  15.988  0.00  0.00    +0.000 HD
ENDBRANCH  12  15
ENDBRANCH   2   5
BRANCH   3  17
ATOM     17  C   UNL     1      50.374   7.354  16.561  0.00  0.00    +0.000 C 
BRANCH  17  18
ATOM     18  C   UNL     1      49.476   6.884  15.461  0.00  0.00    +0.000 A 
ATOM     19  C   UNL     1      49.616   7.346  14.154  0.00  0.00    +0.000 A 
ATOM     20  C   UNL     1      48.721   6.921  13.171  0.00  0.00    +0.000 A 
ATOM     21  C   UNL     1      47.706   6.047  13.565  0.00  0.00    +0.000 A 
ATOM     22  N   UNL     1      47.543   5.580  14.805  0.00  0.00    +0.000 NA
ATOM     23  C   UNL     1      48.435   6.005  15.733  0.00  0.00    +0.000 A 
BRANCH  21  24
ATOM     24  C   UNL     1      46.695   5.653  12.641  0.00  0.00    +0.000 C 
ATOM     25  C   UNL     1      45.730   5.279  11.849  0.00  0.00    +0.000 C 
BRANCH  25  26
ATOM     26  C   UNL     1      44.605   4.842  10.924  0.00  0.00    +0.000 C 
BRANCH  26  27
ATOM     27  C   UNL     1      45.146   4.012   9.796  0.00  0.00    +0.000 A 
ATOM     28  C   UNL     1      45.733   4.599   8.671  0.00  0.00    +0.000 A 
ATOM     29  C   UNL     1      46.183   3.795   7.628  0.00  0.00    +0.000 A 
ATOM     30  C   UNL     1      46.024   2.423   7.741  0.00  0.00    +0.000 A 
ATOM     31  N   UNL     1      45.455   1.820   8.806  0.00  0.00    +0.000 NA
ATOM     32  C   UNL     1      45.025   2.625   9.803  0.00  0.00    +0.000 A 
ENDBRANCH  26  27
ENDBRANCH  25  26
ENDBRANCH  21  24
ENDBRANCH  17  18
ENDBRANCH   3  17
TORSDOF 7
ENDMDL
MODEL 9
REMARK VINA RESULT:    -5.876      1.516      2.062
REMARK INTER + INTRA:          -9.188
REMARK INTER:                  -8.044
REMARK INTRA:                  -1.144
REMARK UNBOUND:                -1.080
REMARK  Name = 
REMARK  7 active torsions:
REMARK  status: ('A' for Active; 'I' for Inactive)
REMARK    1  A    between atoms: C_2  and  C_20
REMARK    2  A    between atoms: N_3  and  C_4
REMARK    3  A    between atoms: C_4  and  C_5
REMARK    4  A    between atoms: C_8  and  C_9
REMARK    5  A    between atoms: C_10  and  C_11
REMARK    6  A    between atoms: C_11  and  C_12
REMARK    7  A    between atoms: C_27  and  O_28
REMARK                            x       y       z     vdW  Elec       q    Type
REMARK                         _______ _______ _______ _____ _____    ______ ____
ROOT
ATOM      1  O   UNL     1      52.059   7.344  15.716  0.00  0.00    +0.000 OA
ATOM      2  C   UNL     1      51.092   7.525  16.450  0.00  0.00    +0.000 C 
ATOM      3  N   UNL     1      50.086   8.400  16.152  0.00  0.00    +0.000 N 
ATOM      4  H   UNL     1      49.260   8.417  16.739  0.00  0.00    +0.000 HD
ENDROOT
BRANCH   2   5
ATOM      5  C   UNL     1      50.960   6.840  17.730  0.00  0.00    +0.000 A 
ATOM      6  C   UNL     1      51.999   6.727  18.644  0.00  0.00    +0.000 A 
ATOM      7  N   UNL     1      51.495   6.158  19.781  0.00  0.00    +0.000 N 
ATOM      8  C   UNL     1      50.308   5.555  19.475  0.00  0.00    +0.000 A 
ATOM      9  N   UNL     1      49.683   4.640  20.231  0.00  0.00    +0.000 NA
ATOM     10  C   UNL     1      48.526   4.249  19.669  0.00  0.00    +0.000 A 
ATOM     11  N   UNL     1      47.905   4.781  18.597  0.00  0.00    +0.000 NA
ATOM     12  C   UNL     1      48.577   5.723  17.923  0.00  0.00    +0.000 A 
ATOM     13  C   UNL     1      49.872   6.086  18.272  0.00  0.00    +0.000 A 
ATOM     14  H   UNL     1      51.944   6.117  20.685  0.00  0.00    +0.000 HD
BRANCH  12  15
ATOM     15  O   UNL     1      47.885   6.305  16.901  0.00  0.00    +0.000 OA
ATOM     16  H   UNL     1      48.614   6.464  16.270  0.00  0.00    +0.000 HD
ENDBRANCH  12  15
ENDBRANCH   2   5
BRANCH   3  17
ATOM     17  C   UNL     1      50.015   9.000  14.843  0.00  0.00    +0.000 C 
BRANCH  17  18
ATOM     18  C   UNL     1      48.972   8.334  14.004  0.00  0.00    +0.000 A 
ATOM     19  C   UNL     1      47.655   8.786  13.979  0.00  0.00    +0.000 A 
ATOM     20  C   UNL     1      46.702   8.100  13.222  0.00  0.00    +0.000 A 
ATOM     21  C   UNL     1      47.132   6.967  12.528  0.00  0.00    +0.000 A 
ATOM     22  N   UNL     1      48.386   6.507  12.526  0.00  0.00    +0.000 NA
ATOM     23  C   UNL     1      49.287   7.201  13.262  0.00  0.00    +0.000 A 
BRANCH  21  24
ATOM     24  C   UNL     1      46.197   6.159  11.821  0.00  0.00    +0.000 C 
ATOM     25  C   UNL     1      45.346   5.462  11.120  0.00  0.00    +0.000 C 
BRANCH  25  26
ATOM     26  C   UNL     1      44.354   4.649  10.304  0.00  0.00    +0.000 C 
BRANCH  26  27
ATOM     27  C   UNL     1      45.073   3.830   9.271  0.00  0.00    +0.000 A 
ATOM     28  C   UNL     1      45.109   2.434   9.338  0.00  0.00    +0.000 A 
ATOM     29  C   UNL     1      45.823   1.715   8.385  0.00  0.00    +0.000 A 
ATOM     30  C   UNL     1      46.486   2.418   7.392  0.00  0.00    +0.000 A 
ATOM     31  N   UNL     1      46.482   3.765   7.298  0.00  0.00    +0.000 NA
ATOM     32  C   UNL     1      45.783   4.438   8.240  0.00  0.00    +0.000 A 
ENDBRANCH  26  27
ENDBRANCH  25  26
ENDBRANCH  21  24
ENDBRANCH  17  18
ENDBRANCH   3  17
TORSDOF 7
ENDMDL
