MODEL 1
REMARK VINA RESULT:    -7.861      0.000      0.000
REMARK INTER + INTRA:         -13.020
REMARK INTER:                 -11.997
REMARK INTRA:                  -1.023
REMARK UNBOUND:                -1.023
REMARK  Name = 
REMARK  13 active torsions:
REMARK  status: ('A' for Active; 'I' for Inactive)
REMARK    1  A    between atoms: C_1  and  C_2
REMARK    2  A    between atoms: C_4  and  C_5
REMARK    3  A    between atoms: C_5  and  C_6
REMARK    4  A    between atoms: C_5  and  C_7
REMARK    5  A    between atoms: C_7  and  O_8
REMARK    6  A    between atoms: O_8  and  C_9
REMARK    7  A    between atoms: C_12  and  C_13
REMARK    8  A    between atoms: C_19  and  C_20
REMARK    9  A    between atoms: C_20  and  C_21
REMARK   10  A    between atoms: C_24  and  C_25
REMARK   11  A    between atoms: C_25  and  N_26
REMARK   12  A    between atoms: N_26  and  C_27
REMARK   13  A    between atoms: N_26  and  C_28
REMARK                            x       y       z     vdW  Elec       q    Type
REMARK                         _______ _______ _______ _____ _____    ______ ____
ROOT
ATOM      1  C   UNL     1      48.124   7.378  11.638  0.00  0.00    +0.000 C 
ATOM      2  C   UNL     1      47.398   6.366  12.471  0.00  0.00    +0.000 A 
ATOM      3  C   UNL     1      46.158   5.875  12.067  0.00  0.00    +0.000 A 
ATOM      4  C   UNL     1      45.445   4.986  12.882  0.00  0.00    +0.000 A 
ATOM      5  C   UNL     1      46.078   4.595  14.071  0.00  0.00    +0.000 A 
ATOM      6  C   UNL     1      47.306   5.159  14.437  0.00  0.00    +0.000 A 
ATOM      7  N   UNL     1      47.967   6.027  13.646  0.00  0.00    +0.000 NA
ENDROOT
BRANCH   4   8
ATOM      8  C   UNL     1      44.051   4.477  12.486  0.00  0.00    +0.000 C 
ATOM      9  C   UNL     1      43.132   5.586  11.933  0.00  0.00    +0.000 C 
BRANCH   8  10
ATOM     10  C   UNL     1      44.070   3.355  11.413  0.00  0.00    +0.000 C 
BRANCH  10  11
ATOM     11  O   UNL     1      43.915   3.901  10.097  0.00  0.00    +0.000 OA
BRANCH  11  12
ATOM     12  C   UNL     1      44.875   3.439   9.222  0.00  0.00    +0.000 A 
ATOM     13  C   UNL     1      45.157   2.076   9.228  0.00  0.00    +0.000 A 
ATOM     14  N   UNL     1      46.038   1.503   8.370  0.00  0.00    +0.000 NA
ATOM     15  C   UNL     1      46.628   2.379   7.499  0.00  0.00    +0.000 A 
ATOM     16  C   UNL     1      46.362   3.738   7.509  0.00  0.00    +0.000 A 
ATOM     17  N   UNL     1      45.477   4.298   8.371  0.00  0.00    +0.000 NA
BRANCH  15  18
ATOM     18  C   UNL     1      47.559   1.819   6.479  0.00  0.00    +0.000 C 
ATOM     19  N   UNL     1      48.695   2.545   6.257  0.00  0.00    +0.000 N 
ATOM     20  O   UNL     1      47.336   0.767   5.900  0.00  0.00    +0.000 OA
ATOM     21  H   UNL     1      48.867   3.395   6.782  0.00  0.00    +0.000 HD
ATOM     22  H   UNL     1      49.391   2.195   5.612  0.00  0.00    +0.000 HD
ENDBRANCH  15  18
ENDBRANCH  11  12
ENDBRANCH  10  11
ENDBRANCH   8  10
ENDBRANCH   4   8
BRANCH   6  23
ATOM     23  C   UNL     1      47.837   4.990  15.837  0.00  0.00    +0.000 C 
BRANCH  23  24
ATOM     24  C   UNL     1      47.982   3.536  16.256  0.00  0.00    +0.000 C 
ATOM     25  C   UNL     1      47.028   3.255  17.429  0.00  0.00    +0.000 C 
ATOM     26  O   UNL     1      48.100   2.841  18.289  0.00  0.00    +0.000 OA
ATOM     27  C   UNL     1      49.067   2.931  17.206  0.00  0.00    +0.000 C 
BRANCH  27  28
ATOM     28  C   UNL     1      50.339   3.679  17.635  0.00  0.00    +0.000 C 
BRANCH  28  29
ATOM     29  N   UNL     1      51.626   2.960  17.450  0.00  0.00    +0.000 NA
ATOM     30  C   UNL     1      52.659   3.362  18.399  0.00  0.00    +0.000 C 
ATOM     31  C   UNL     1      51.482   1.508  17.423  0.00  0.00    +0.000 C 
ENDBRANCH  28  29
ENDBRANCH  27  28
ENDBRANCH  23  24
ENDBRANCH   6  23
TORSDOF 9
ENDMDL
MODEL 2
REMARK VINA RESULT:    -7.573      2.104      2.891
REMARK INTER + INTRA:         -12.581
REMARK INTER:                 -11.546
REMARK INTRA:                  -1.035
REMARK UNBOUND:                -1.023
REMARK  Name = 
REMARK  13 active torsions:
REMARK  status: ('A' for Active; 'I' for Inactive)
REMARK    1  A    between atoms: C_1  and  C_2
REMARK    2  A    between atoms: C_4  and  C_5
REMARK    3  A    between atoms: C_5  and  C_6
REMARK    4  A    between atoms: C_5  and  C_7
REMARK    5  A    between atoms: C_7  and  O_8
REMARK    6  A    between atoms: O_8  and  C_9
REMARK    7  A    between atoms: C_12  and  C_13
REMARK    8  A    between atoms: C_19  and  C_20
REMARK    9  A    between atoms: C_20  and  C_21
REMARK   10  A    between atoms: C_24  and  C_25
REMARK   11  A    between atoms: C_25  and  N_26
REMARK   12  A    between atoms: N_26  and  C_27
REMARK   13  A    between atoms: N_26  and  C_28
REMARK                            x       y       z     vdW  Elec       q    Type
REMARK                         _______ _______ _______ _____ _____    ______ ____
ROOT
ATOM      1  C   UNL     1      45.379  10.036  11.807  0.00  0.00    +0.000 C 
ATOM      2  C   UNL     1      45.775   8.594  11.913  0.00  0.00    +0.000 A 
ATOM      3  C   UNL     1      44.837   7.585  11.707  0.00  0.00    +0.000 A 
ATOM      4  C   UNL     1      45.189   6.240  11.880  0.00  0.00    +0.000 A 
ATOM      5  C   UNL     1      46.529   5.989  12.211  0.00  0.00    +0.000 A 
ATOM      6  C   UNL     1      47.410   7.052  12.445  0.00  0.00    +0.000 A 
ATOM      7  N   UNL     1      47.045   8.341  12.291  0.00  0.00    +0.000 NA
ENDROOT
BRANCH   4   8
ATOM      8  C   UNL     1      44.158   5.114  11.715  0.00  0.00    +0.000 C 
ATOM      9  C   UNL     1      42.890   5.318  12.570  0.00  0.00    +0.000 C 
BRANCH   8  10
ATOM     10  C   UNL     1      43.668   4.914  10.255  0.00  0.00    +0.000 C 
BRANCH  10  11
ATOM     11  O   UNL     1      43.670   3.526   9.899  0.00  0.00    +0.000 OA
BRANCH  11  12
ATOM     12  C   UNL     1      44.731   3.194   9.086  0.00  0.00    +0.000 A 
ATOM     13  C   UNL     1      45.147   1.865   9.071  0.00  0.00    +0.000 A 
ATOM     14  N   UNL     1      46.141   1.415   8.264  0.00  0.00    +0.000 NA
ATOM     15  C   UNL     1      46.702   2.376   7.469  0.00  0.00    +0.000 A 
ATOM     16  C   UNL     1      46.302   3.702   7.501  0.00  0.00    +0.000 A 
ATOM     17  N   UNL     1      45.305   4.140   8.310  0.00  0.00    +0.000 NA
BRANCH  15  18
ATOM     18  C   UNL     1      47.756   1.950   6.507  0.00  0.00    +0.000 C 
ATOM     19  N   UNL     1      48.767   2.845   6.304  0.00  0.00    +0.000 N 
ATOM     20  O   UNL     1      47.733   0.860   5.955  0.00  0.00    +0.000 OA
ATOM     21  H   UNL     1      48.775   3.727   6.807  0.00  0.00    +0.000 HD
ATOM     22  H   UNL     1      49.539   2.597   5.699  0.00  0.00    +0.000 HD
ENDBRANCH  15  18
ENDBRANCH  11  12
ENDBRANCH  10  11
ENDBRANCH   8  10
ENDBRANCH   4   8
BRANCH   6  23
ATOM     23  C   UNL     1      48.745   6.807  13.100  0.00  0.00    +0.000 C 
BRANCH  23  24
ATOM     24  C   UNL     1      48.786   7.225  14.560  0.00  0.00    +0.000 C 
ATOM     25  C   UNL     1      50.245   7.210  15.045  0.00  0.00    +0.000 C 
ATOM     26  O   UNL     1      49.958   6.267  16.089  0.00  0.00    +0.000 OA
ATOM     27  C   UNL     1      48.531   6.320  15.809  0.00  0.00    +0.000 C 
BRANCH  27  28
ATOM     28  C   UNL     1      47.911   4.916  15.734  0.00  0.00    +0.000 C 
BRANCH  28  29
ATOM     29  N   UNL     1      47.247   4.418  16.967  0.00  0.00    +0.000 NA
ATOM     30  C   UNL     1      47.439   2.989  17.194  0.00  0.00    +0.000 C 
ATOM     31  C   UNL     1      47.587   5.184  18.161  0.00  0.00    +0.000 C 
ENDBRANCH  28  29
ENDBRANCH  27  28
ENDBRANCH  23  24
ENDBRANCH   6  23
TORSDOF 9
ENDMDL
MODEL 3
REMARK VINA RESULT:    -7.531      2.002      2.495
REMARK INTER + INTRA:         -12.516
REMARK INTER:                 -11.531
REMARK INTRA:                  -0.985
REMARK UNBOUND:                -1.023
REMARK  Name = 
REMARK  13 active torsions:
REMARK  status: ('A' for Active; 'I' for Inactive)
REMARK    1  A    between atoms: C_1  and  C_2
REMARK    2  A    between atoms: C_4  and  C_5
REMARK    3  A    between atoms: C_5  and  C_6
REMARK    4  A    between atoms: C_5  and  C_7
REMARK    5  A    between atoms: C_7  and  O_8
REMARK    6  A    between atoms: O_8  and  C_9
REMARK    7  A    between atoms: C_12  and  C_13
REMARK    8  A    between atoms: C_19  and  C_20
REMARK    9  A    between atoms: C_20  and  C_21
REMARK   10  A    between atoms: C_24  and  C_25
REMARK   11  A    between atoms: C_25  and  N_26
REMARK   12  A    between atoms: N_26  and  C_27
REMARK   13  A    between atoms: N_26  and  C_28
REMARK                            x       y       z     vdW  Elec       q    Type
REMARK                         _______ _______ _______ _____ _____    ______ ____
ROOT
ATOM      1  C   UNL     1      48.162   7.707  12.948  0.00  0.00    +0.000 C 
ATOM      2  C   UNL     1      47.406   6.455  13.276  0.00  0.00    +0.000 A 
ATOM      3  C   UNL     1      46.281   6.093  12.538  0.00  0.00    +0.000 A 
ATOM      4  C   UNL     1      45.530   4.964  12.892  0.00  0.00    +0.000 A 
ATOM      5  C   UNL     1      46.013   4.216  13.976  0.00  0.00    +0.000 A 
ATOM      6  C   UNL     1      47.126   4.660  14.701  0.00  0.00    +0.000 A 
ATOM      7  N   UNL     1      47.823   5.760  14.354  0.00  0.00    +0.000 NA
ENDROOT
BRANCH   4   8
ATOM      8  C   UNL     1      44.254   4.579  12.129  0.00  0.00    +0.000 C 
ATOM      9  C   UNL     1      42.962   5.068  12.815  0.00  0.00    +0.000 C 
BRANCH   8  10
ATOM     10  C   UNL     1      44.201   5.116  10.673  0.00  0.00    +0.000 C 
BRANCH  10  11
ATOM     11  O   UNL     1      43.736   4.104   9.770  0.00  0.00    +0.000 OA
BRANCH  11  12
ATOM     12  C   UNL     1      44.752   3.580   9.002  0.00  0.00    +0.000 A 
ATOM     13  C   UNL     1      45.011   2.216   9.109  0.00  0.00    +0.000 A 
ATOM     14  N   UNL     1      45.945   1.583   8.357  0.00  0.00    +0.000 NA
ATOM     15  C   UNL     1      46.615   2.397   7.485  0.00  0.00    +0.000 A 
ATOM     16  C   UNL     1      46.371   3.758   7.394  0.00  0.00    +0.000 A 
ATOM     17  N   UNL     1      45.432   4.379   8.150  0.00  0.00    +0.000 NA
BRANCH  15  18
ATOM     18  C   UNL     1      47.612   1.767   6.575  0.00  0.00    +0.000 C 
ATOM     19  N   UNL     1      48.779   2.457   6.410  0.00  0.00    +0.000 N 
ATOM     20  O   UNL     1      47.412   0.691   6.034  0.00  0.00    +0.000 OA
ATOM     21  H   UNL     1      48.928   3.331   6.905  0.00  0.00    +0.000 HD
ATOM     22  H   UNL     1      49.516   2.060   5.844  0.00  0.00    +0.000 HD
ENDBRANCH  15  18
ENDBRANCH  11  12
ENDBRANCH  10  11
ENDBRANCH   8  10
ENDBRANCH   4   8
BRANCH   6  23
ATOM     23  C   UNL     1      47.459   4.049  16.038  0.00  0.00    +0.000 C 
BRANCH  23  24
ATOM     24  C   UNL     1      48.622   4.731  16.739  0.00  0.00    +0.000 C 
ATOM     25  C   UNL     1      49.488   3.663  17.427  0.00  0.00    +0.000 C 
ATOM     26  O   UNL     1      49.318   4.263  18.721  0.00  0.00    +0.000 OA
ATOM     27  C   UNL     1      48.610   5.400  18.152  0.00  0.00    +0.000 C 
BRANCH  27  28
ATOM     28  C   UNL     1      47.328   5.725  18.933  0.00  0.00    +0.000 C 
BRANCH  28  29
ATOM     29  N   UNL     1      47.427   6.801  19.953  0.00  0.00    +0.000 NA
ATOM     30  C   UNL     1      47.322   6.313  21.325  0.00  0.00    +0.000 C 
ATOM     31  C   UNL     1      48.603   7.649  19.792  0.00  0.00    +0.000 C 
ENDBRANCH  28  29
ENDBRANCH  27  28
ENDBRANCH  23  24
ENDBRANCH   6  23
TORSDOF 9
ENDMDL
MODEL 4
REMARK VINA RESULT:    -7.090      4.302      7.400
REMARK INTER + INTRA:         -11.845
REMARK INTER:                 -10.763
REMARK INTRA:                  -1.081
REMARK UNBOUND:                -1.023
REMARK  Name = 
REMARK  13 active torsions:
REMARK  status: ('A' for Active; 'I' for Inactive)
REMARK    1  A    between atoms: C_1  and  C_2
REMARK    2  A    between atoms: C_4  and  C_5
REMARK    3  A    between atoms: C_5  and  C_6
REMARK    4  A    between atoms: C_5  and  C_7
REMARK    5  A    between atoms: C_7  and  O_8
REMARK    6  A    between atoms: O_8  and  C_9
REMARK    7  A    between atoms: C_12  and  C_13
REMARK    8  A    between atoms: C_19  and  C_20
REMARK    9  A    between atoms: C_20  and  C_21
REMARK   10  A    between atoms: C_24  and  C_25
REMARK   11  A    between atoms: C_25  and  N_26
REMARK   12  A    between atoms: N_26  and  C_27
REMARK   13  A    between atoms: N_26  and  C_28
REMARK                            x       y       z     vdW  Elec       q    Type
REMARK                         _______ _______ _______ _____ _____    ______ ____
ROOT
ATOM      1  C   UNL     1      48.953   7.470  11.799  0.00  0.00    +0.000 C 
ATOM      2  C   UNL     1      47.464   7.480  11.964  0.00  0.00    +0.000 A 
ATOM      3  C   UNL     1      46.732   6.299  11.861  0.00  0.00    +0.000 A 
ATOM      4  C   UNL     1      45.333   6.318  11.940  0.00  0.00    +0.000 A 
ATOM      5  C   UNL     1      44.746   7.569  12.180  0.00  0.00    +0.000 A 
ATOM      6  C   UNL     1      45.537   8.724  12.231  0.00  0.00    +0.000 A 
ATOM      7  N   UNL     1      46.881   8.684  12.134  0.00  0.00    +0.000 NA
ENDROOT
BRANCH   4   8
ATOM      8  C   UNL     1      44.503   5.038  11.772  0.00  0.00    +0.000 C 
ATOM      9  C   UNL     1      43.468   4.831  12.897  0.00  0.00    +0.000 C 
BRANCH   8  10
ATOM     10  C   UNL     1      43.712   4.967  10.438  0.00  0.00    +0.000 C 
BRANCH  10  11
ATOM     11  O   UNL     1      43.596   3.613   9.981  0.00  0.00    +0.000 OA
BRANCH  11  12
ATOM     12  C   UNL     1      44.645   3.242   9.169  0.00  0.00    +0.000 A 
ATOM     13  C   UNL     1      45.032   1.904   9.177  0.00  0.00    +0.000 A 
ATOM     14  N   UNL     1      46.011   1.417   8.373  0.00  0.00    +0.000 NA
ATOM     15  C   UNL     1      46.588   2.350   7.556  0.00  0.00    +0.000 A 
ATOM     16  C   UNL     1      46.216   3.685   7.564  0.00  0.00    +0.000 A 
ATOM     17  N   UNL     1      45.235   4.160   8.371  0.00  0.00    +0.000 NA
BRANCH  15  18
ATOM     18  C   UNL     1      47.626   1.882   6.596  0.00  0.00    +0.000 C 
ATOM     19  N   UNL     1      48.670   2.738   6.392  0.00  0.00    +0.000 N 
ATOM     20  O   UNL     1      47.562   0.792   6.047  0.00  0.00    +0.000 OA
ATOM     21  H   UNL     1      48.711   3.620   6.893  0.00  0.00    +0.000 HD
ATOM     22  H   UNL     1      49.432   2.459   5.788  0.00  0.00    +0.000 HD
ENDBRANCH  15  18
ENDBRANCH  11  12
ENDBRANCH  10  11
ENDBRANCH   8  10
ENDBRANCH   4   8
BRANCH   6  23
ATOM     23  C   UNL     1      44.901  10.088  12.172  0.00  0.00    +0.000 C 
BRANCH  23  24
ATOM     24  C   UNL     1      44.564  10.536  10.759  0.00  0.00    +0.000 C 
ATOM     25  C   UNL     1      45.528  11.661  10.347  0.00  0.00    +0.000 C 
ATOM     26  O   UNL     1      44.455  12.583  10.103  0.00  0.00    +0.000 OA
ATOM     27  C   UNL     1      43.454  11.551  10.329  0.00  0.00    +0.000 C 
BRANCH  27  28
ATOM     28  C   UNL     1      42.333  12.035  11.262  0.00  0.00    +0.000 C 
BRANCH  28  29
ATOM     29  N   UNL     1      40.950  11.632  10.900  0.00  0.00    +0.000 NA
ATOM     30  C   UNL     1      40.539  12.083   9.574  0.00  0.00    +0.000 C 
ATOM     31  C   UNL     1      40.699  10.203  11.063  0.00  0.00    +0.000 C 
ENDBRANCH  28  29
ENDBRANCH  27  28
ENDBRANCH  23  24
ENDBRANCH   6  23
TORSDOF 9
ENDMDL
MODEL 5
REMARK VINA RESULT:    -6.909      2.704      4.481
REMARK INTER + INTRA:         -11.567
REMARK INTER:                 -10.647
REMARK INTRA:                  -0.920
REMARK UNBOUND:                -1.023
REMARK  Name = 
REMARK  13 active torsions:
REMARK  status: ('A' for Active; 'I' for Inactive)
REMARK    1  A    between atoms: C_1  and  C_2
REMARK    2  A    between atoms: C_4  and  C_5
REMARK    3  A    between atoms: C_5  and  C_6
REMARK    4  A    between atoms: C_5  and  C_7
REMARK    5  A    between atoms: C_7  and  O_8
REMARK    6  A    between atoms: O_8  and  C_9
REMARK    7  A    between atoms: C_12  and  C_13
REMARK    8  A    between atoms: C_19  and  C_20
REMARK    9  A    between atoms: C_20  and  C_21
REMARK   10  A    between atoms: C_24  and  C_25
REMARK   11  A    between atoms: C_25  and  N_26
REMARK   12  A    between atoms: N_26  and  C_27
REMARK   13  A    between atoms: N_26  and  C_28
REMARK                            x       y       z     vdW  Elec       q    Type
REMARK                         _______ _______ _______ _____ _____    ______ ____
ROOT
ATOM      1  C   UNL     1      47.458   3.963  15.762  0.00  0.00    +0.000 C 
ATOM      2  C   UNL     1      46.981   4.700  14.547  0.00  0.00    +0.000 A 
ATOM      3  C   UNL     1      45.761   4.377  13.957  0.00  0.00    +0.000 A 
ATOM      4  C   UNL     1      45.350   5.013  12.778  0.00  0.00    +0.000 A 
ATOM      5  C   UNL     1      46.205   6.008  12.282  0.00  0.00    +0.000 A 
ATOM      6  C   UNL     1      47.438   6.253  12.900  0.00  0.00    +0.000 A 
ATOM      7  N   UNL     1      47.822   5.616  14.024  0.00  0.00    +0.000 NA
ENDROOT
BRANCH   4   8
ATOM      8  C   UNL     1      44.036   4.634  12.079  0.00  0.00    +0.000 C 
ATOM      9  C   UNL     1      42.818   5.422  12.603  0.00  0.00    +0.000 C 
BRANCH   8  10
ATOM     10  C   UNL     1      44.056   4.840  10.540  0.00  0.00    +0.000 C 
BRANCH  10  11
ATOM     11  O   UNL     1      43.751   3.619   9.855  0.00  0.00    +0.000 OA
BRANCH  11  12
ATOM     12  C   UNL     1      44.768   3.220   9.016  0.00  0.00    +0.000 A 
ATOM     13  C   UNL     1      45.189   1.895   9.090  0.00  0.00    +0.000 A 
ATOM     14  N   UNL     1      46.140   1.378   8.271  0.00  0.00    +0.000 NA
ATOM     15  C   UNL     1      46.652   2.269   7.368  0.00  0.00    +0.000 A 
ATOM     16  C   UNL     1      46.248   3.593   7.310  0.00  0.00    +0.000 A 
ATOM     17  N   UNL     1      45.295   4.097   8.133  0.00  0.00    +0.000 NA
BRANCH  15  18
ATOM     18  C   UNL     1      47.654   1.764   6.389  0.00  0.00    +0.000 C 
ATOM     19  N   UNL     1      48.823   2.468   6.323  0.00  0.00    +0.000 N 
ATOM     20  O   UNL     1      47.456   0.769   5.708  0.00  0.00    +0.000 OA
ATOM     21  H   UNL     1      48.970   3.268   6.930  0.00  0.00    +0.000 HD
ATOM     22  H   UNL     1      49.563   2.148   5.713  0.00  0.00    +0.000 HD
ENDBRANCH  15  18
ENDBRANCH  11  12
ENDBRANCH  10  11
ENDBRANCH   8  10
ENDBRANCH   4   8
BRANCH   6  23
ATOM     23  C   UNL     1      48.489   7.081  12.207  0.00  0.00    +0.000 C 
BRANCH  23  24
ATOM     24  C   UNL     1      48.677   8.457  12.825  0.00  0.00    +0.000 C 
ATOM     25  C   UNL     1      48.348   9.528  11.773  0.00  0.00    +0.000 C 
ATOM     26  O   UNL     1      49.653  10.119  11.869  0.00  0.00    +0.000 OA
ATOM     27  C   UNL     1      50.017   9.248  12.976  0.00  0.00    +0.000 C 
BRANCH  27  28
ATOM     28  C   UNL     1      51.406   8.621  12.778  0.00  0.00    +0.000 C 
BRANCH  28  29
ATOM     29  N   UNL     1      52.470   9.056  13.719  0.00  0.00    +0.000 NA
ATOM     30  C   UNL     1      53.623   8.160  13.748  0.00  0.00    +0.000 C 
ATOM     31  C   UNL     1      52.892  10.439  13.523  0.00  0.00    +0.000 C 
ENDBRANCH  28  29
ENDBRANCH  27  28
ENDBRANCH  23  24
ENDBRANCH   6  23
TORSDOF 9
ENDMDL
MODEL 6
REMARK VINA RESULT:    -6.724      3.794      4.422
REMARK INTER + INTRA:         -11.286
REMARK INTER:                 -10.314
REMARK INTRA:                  -0.972
REMARK UNBOUND:                -1.023
REMARK  Name = 
REMARK  13 active torsions:
REMARK  status: ('A' for Active; 'I' for Inactive)
REMARK    1  A    between atoms: C_1  and  C_2
REMARK    2  A    between atoms: C_4  and  C_5
REMARK    3  A    between atoms: C_5  and  C_6
REMARK    4  A    between atoms: C_5  and  C_7
REMARK    5  A    between atoms: C_7  and  O_8
REMARK    6  A    between atoms: O_8  and  C_9
REMARK    7  A    between atoms: C_12  and  C_13
REMARK    8  A    between atoms: C_19  and  C_20
REMARK    9  A    between atoms: C_20  and  C_21
REMARK   10  A    between atoms: C_24  and  C_25
REMARK   11  A    between atoms: C_25  and  N_26
REMARK   12  A    between atoms: N_26  and  C_27
REMARK   13  A    between atoms: N_26  and  C_28
REMARK                            x       y       z     vdW  Elec       q    Type
REMARK                         _______ _______ _______ _____ _____    ______ ____
ROOT
ATOM      1  C   UNL     1      44.665   9.372  11.425  0.00  0.00    +0.000 C 
ATOM      2  C   UNL     1      45.296   8.043  11.714  0.00  0.00    +0.000 A 
ATOM      3  C   UNL     1      44.508   6.904  11.870  0.00  0.00    +0.000 A 
ATOM      4  C   UNL     1      45.090   5.678  12.215  0.00  0.00    +0.000 A 
ATOM      5  C   UNL     1      46.488   5.669  12.333  0.00  0.00    +0.000 A 
ATOM      6  C   UNL     1      47.216   6.858  12.205  0.00  0.00    +0.000 A 
ATOM      7  N   UNL     1      46.632   8.032  11.891  0.00  0.00    +0.000 NA
ENDROOT
BRANCH   4   8
ATOM      8  C   UNL     1      44.237   4.422  12.448  0.00  0.00    +0.000 C 
ATOM      9  C   UNL     1      42.824   4.737  12.982  0.00  0.00    +0.000 C 
BRANCH   8  10
ATOM     10  C   UNL     1      44.036   3.550  11.180  0.00  0.00    +0.000 C 
BRANCH  10  11
ATOM     11  O   UNL     1      44.232   4.323   9.989  0.00  0.00    +0.000 OA
BRANCH  11  12
ATOM     12  C   UNL     1      45.102   3.718   9.109  0.00  0.00    +0.000 A 
ATOM     13  C   UNL     1      45.238   2.334   9.177  0.00  0.00    +0.000 A 
ATOM     14  N   UNL     1      46.019   1.628   8.322  0.00  0.00    +0.000 NA
ATOM     15  C   UNL     1      46.664   2.391   7.386  0.00  0.00    +0.000 A 
ATOM     16  C   UNL     1      46.544   3.770   7.333  0.00  0.00    +0.000 A 
ATOM     17  N   UNL     1      45.758   4.464   8.193  0.00  0.00    +0.000 NA
BRANCH  15  18
ATOM     18  C   UNL     1      47.490   1.685   6.367  0.00  0.00    +0.000 C 
ATOM     19  N   UNL     1      48.568   2.379   5.898  0.00  0.00    +0.000 N 
ATOM     20  O   UNL     1      47.237   0.549   5.996  0.00  0.00    +0.000 OA
ATOM     21  H   UNL     1      48.772   3.307   6.255  0.00  0.00    +0.000 HD
ATOM     22  H   UNL     1      49.197   1.938   5.240  0.00  0.00    +0.000 HD
ENDBRANCH  15  18
ENDBRANCH  11  12
ENDBRANCH  10  11
ENDBRANCH   8  10
ENDBRANCH   4   8
BRANCH   6  23
ATOM     23  C   UNL     1      48.659   6.920  12.635  0.00  0.00    +0.000 C 
BRANCH  23  24
ATOM     24  C   UNL     1      49.394   8.140  12.104  0.00  0.00    +0.000 C 
ATOM     25  C   UNL     1      50.575   7.675  11.236  0.00  0.00    +0.000 C 
ATOM     26  O   UNL     1      51.533   8.368  12.049  0.00  0.00    +0.000 OA
ATOM     27  C   UNL     1      50.482   8.983  12.846  0.00  0.00    +0.000 C 
BRANCH  27  28
ATOM     28  C   UNL     1      50.767   8.874  14.352  0.00  0.00    +0.000 C 
BRANCH  28  29
ATOM     29  N   UNL     1      50.447  10.069  15.175  0.00  0.00    +0.000 NA
ATOM     30  C   UNL     1      49.603  11.041  14.487  0.00  0.00    +0.000 C 
ATOM     31  C   UNL     1      49.900   9.742  16.487  0.00  0.00    +0.000 C 
ENDBRANCH  28  29
ENDBRANCH  27  28
ENDBRANCH  23  24
ENDBRANCH   6  23
TORSDOF 9
ENDMDL
MODEL 7
REMARK VINA RESULT:    -6.561      2.981      3.371
REMARK INTER + INTRA:         -11.036
REMARK INTER:                  -9.972
REMARK INTRA:                  -1.064
REMARK UNBOUND:                -1.023
REMARK  Name = 
REMARK  13 active torsions:
REMARK  status: ('A' for Active; 'I' for Inactive)
REMARK    1  A    between atoms: C_1  and  C_2
REMARK    2  A    between atoms: C_4  and  C_5
REMARK    3  A    between atoms: C_5  and  C_6
REMARK    4  A    between atoms: C_5  and  C_7
REMARK    5  A    between atoms: C_7  and  O_8
REMARK    6  A    between atoms: O_8  and  C_9
REMARK    7  A    between atoms: C_12  and  C_13
REMARK    8  A    between atoms: C_19  and  C_20
REMARK    9  A    between atoms: C_20  and  C_21
REMARK   10  A    between atoms: C_24  and  C_25
REMARK   11  A    between atoms: C_25  and  N_26
REMARK   12  A    between atoms: N_26  and  C_27
REMARK   13  A    between atoms: N_26  and  C_28
REMARK                            x       y       z     vdW  Elec       q    Type
REMARK                         _______ _______ _______ _____ _____    ______ ____
ROOT
ATOM      1  C   UNL     1      44.951   9.417  11.361  0.00  0.00    +0.000 C 
ATOM      2  C   UNL     1      45.573   8.146  11.855  0.00  0.00    +0.000 A 
ATOM      3  C   UNL     1      44.784   7.028  12.117  0.00  0.00    +0.000 A 
ATOM      4  C   UNL     1      45.354   5.864  12.651  0.00  0.00    +0.000 A 
ATOM      5  C   UNL     1      46.744   5.889  12.842  0.00  0.00    +0.000 A 
ATOM      6  C   UNL     1      47.470   7.060  12.598  0.00  0.00    +0.000 A 
ATOM      7  N   UNL     1      46.898   8.176  12.102  0.00  0.00    +0.000 NA
ENDROOT
BRANCH   4   8
ATOM      8  C   UNL     1      44.497   4.639  13.001  0.00  0.00    +0.000 C 
ATOM      9  C   UNL     1      42.984   4.942  13.027  0.00  0.00    +0.000 C 
BRANCH   8  10
ATOM     10  C   UNL     1      44.682   3.440  12.033  0.00  0.00    +0.000 C 
BRANCH  10  11
ATOM     11  O   UNL     1      44.006   3.674  10.790  0.00  0.00    +0.000 OA
BRANCH  11  12
ATOM     12  C   UNL     1      44.785   3.351   9.701  0.00  0.00    +0.000 A 
ATOM     13  C   UNL     1      45.320   4.396   8.951  0.00  0.00    +0.000 A 
ATOM     14  N   UNL     1      46.149   4.195   7.896  0.00  0.00    +0.000 NA
ATOM     15  C   UNL     1      46.414   2.880   7.629  0.00  0.00    +0.000 A 
ATOM     16  C   UNL     1      45.865   1.841   8.363  0.00  0.00    +0.000 A 
ATOM     17  N   UNL     1      45.039   2.054   9.417  0.00  0.00    +0.000 NA
BRANCH  15  18
ATOM     18  C   UNL     1      47.369   2.576   6.526  0.00  0.00    +0.000 C 
ATOM     19  N   UNL     1      47.241   3.348   5.407  0.00  0.00    +0.000 N 
ATOM     20  O   UNL     1      48.226   1.713   6.626  0.00  0.00    +0.000 OA
ATOM     21  H   UNL     1      46.542   4.082   5.371  0.00  0.00    +0.000 HD
ATOM     22  H   UNL     1      47.890   3.224   4.641  0.00  0.00    +0.000 HD
ENDBRANCH  15  18
ENDBRANCH  11  12
ENDBRANCH  10  11
ENDBRANCH   8  10
ENDBRANCH   4   8
BRANCH   6  23
ATOM     23  C   UNL     1      48.887   7.197  13.092  0.00  0.00    +0.000 C 
BRANCH  23  24
ATOM     24  C   UNL     1      49.016   7.058  14.600  0.00  0.00    +0.000 C 
ATOM     25  C   UNL     1      48.363   8.275  15.274  0.00  0.00    +0.000 C 
ATOM     26  O   UNL     1      49.578   8.640  15.946  0.00  0.00    +0.000 OA
ATOM     27  C   UNL     1      50.251   7.437  15.481  0.00  0.00    +0.000 C 
BRANCH  27  28
ATOM     28  C   UNL     1      51.645   7.744  14.911  0.00  0.00    +0.000 C 
BRANCH  28  29
ATOM     29  N   UNL     1      52.806   7.313  15.731  0.00  0.00    +0.000 NA
ATOM     30  C   UNL     1      54.018   7.086  14.950  0.00  0.00    +0.000 C 
ATOM     31  C   UNL     1      53.076   8.191  16.865  0.00  0.00    +0.000 C 
ENDBRANCH  28  29
ENDBRANCH  27  28
ENDBRANCH  23  24
ENDBRANCH   6  23
TORSDOF 9
ENDMDL
MODEL 8
REMARK VINA RESULT:    -6.515      3.382      6.349
REMARK INTER + INTRA:         -10.967
REMARK INTER:                  -9.766
REMARK INTRA:                  -1.201
REMARK UNBOUND:                -1.023
REMARK  Name = 
REMARK  13 active torsions:
REMARK  status: ('A' for Active; 'I' for Inactive)
REMARK    1  A    between atoms: C_1  and  C_2
REMARK    2  A    between atoms: C_4  and  C_5
REMARK    3  A    between atoms: C_5  and  C_6
REMARK    4  A    between atoms: C_5  and  C_7
REMARK    5  A    between atoms: C_7  and  O_8
REMARK    6  A    between atoms: O_8  and  C_9
REMARK    7  A    between atoms: C_12  and  C_13
REMARK    8  A    between atoms: C_19  and  C_20
REMARK    9  A    between atoms: C_20  and  C_21
REMARK   10  A    between atoms: C_24  and  C_25
REMARK   11  A    between atoms: C_25  and  N_26
REMARK   12  A    between atoms: N_26  and  C_27
REMARK   13  A    between atoms: N_26  and  C_28
REMARK                            x       y       z     vdW  Elec       q    Type
REMARK                         _______ _______ _______ _____ _____    ______ ____
ROOT
ATOM      1  C   UNL     1      52.857   0.889  17.588  0.00  0.00    +0.000 C 
ATOM      2  C   UNL     1      51.872   2.019  17.607  0.00  0.00    +0.000 A 
ATOM      3  C   UNL     1      50.549   1.811  17.221  0.00  0.00    +0.000 A 
ATOM      4  C   UNL     1      49.647   2.882  17.166  0.00  0.00    +0.000 A 
ATOM      5  C   UNL     1      50.145   4.130  17.569  0.00  0.00    +0.000 A 
ATOM      6  C   UNL     1      51.496   4.278  17.904  0.00  0.00    +0.000 A 
ATOM      7  N   UNL     1      52.351   3.236  17.933  0.00  0.00    +0.000 NA
ENDROOT
BRANCH   4   8
ATOM      8  C   UNL     1      48.200   2.688  16.690  0.00  0.00    +0.000 C 
ATOM      9  C   UNL     1      47.171   2.728  17.838  0.00  0.00    +0.000 C 
BRANCH   8  10
ATOM     10  C   UNL     1      47.730   3.740  15.650  0.00  0.00    +0.000 C 
BRANCH  10  11
ATOM     11  O   UNL     1      47.488   3.129  14.375  0.00  0.00    +0.000 OA
BRANCH  11  12
ATOM     12  C   UNL     1      46.500   3.773  13.664  0.00  0.00    +0.000 A 
ATOM     13  C   UNL     1      46.372   5.150  13.830  0.00  0.00    +0.000 A 
ATOM     14  N   UNL     1      45.476   5.895  13.136  0.00  0.00    +0.000 NA
ATOM     15  C   UNL     1      44.705   5.179  12.261  0.00  0.00    +0.000 A 
ATOM     16  C   UNL     1      44.818   3.806  12.112  0.00  0.00    +0.000 A 
ATOM     17  N   UNL     1      45.720   3.073  12.811  0.00  0.00    +0.000 NA
BRANCH  15  18
ATOM     18  C   UNL     1      43.740   5.933  11.412  0.00  0.00    +0.000 C 
ATOM     19  N   UNL     1      43.945   7.281  11.341  0.00  0.00    +0.000 N 
ATOM     20  O   UNL     1      42.841   5.379  10.798  0.00  0.00    +0.000 OA
ATOM     21  H   UNL     1      44.724   7.704  11.834  0.00  0.00    +0.000 HD
ATOM     22  H   UNL     1      43.354   7.843  10.743  0.00  0.00    +0.000 HD
ENDBRANCH  15  18
ENDBRANCH  11  12
ENDBRANCH  10  11
ENDBRANCH   8  10
ENDBRANCH   4   8
BRANCH   6  23
ATOM     23  C   UNL     1      52.106   5.650  18.030  0.00  0.00    +0.000 C 
BRANCH  23  24
ATOM     24  C   UNL     1      51.098   6.775  17.867  0.00  0.00    +0.000 C 
ATOM     25  C   UNL     1      51.828   8.123  17.985  0.00  0.00    +0.000 C 
ATOM     26  O   UNL     1      51.011   8.545  19.087  0.00  0.00    +0.000 OA
ATOM     27  C   UNL     1      50.160   7.370  18.967  0.00  0.00    +0.000 C 
BRANCH  27  28
ATOM     28  C   UNL     1      49.910   6.703  20.328  0.00  0.00    +0.000 C 
BRANCH  28  29
ATOM     29  N   UNL     1      48.585   6.058  20.517  0.00  0.00    +0.000 NA
ATOM     30  C   UNL     1      47.685   6.235  19.382  0.00  0.00    +0.000 C 
ATOM     31  C   UNL     1      48.671   4.652  20.897  0.00  0.00    +0.000 C 
ENDBRANCH  28  29
ENDBRANCH  27  28
ENDBRANCH  23  24
ENDBRANCH   6  23
TORSDOF 9
ENDMDL
MODEL 9
REMARK VINA RESULT:    -6.509      3.395      4.450
REMARK INTER + INTRA:         -10.957
REMARK INTER:                 -10.217
REMARK INTRA:                  -0.740
REMARK UNBOUND:                -1.023
REMARK  Name = 
REMARK  13 active torsions:
REMARK  status: ('A' for Active; 'I' for Inactive)
REMARK    1  A    between atoms: C_1  and  C_2
REMARK    2  A    between atoms: C_4  and  C_5
REMARK    3  A    between atoms: C_5  and  C_6
REMARK    4  A    between atoms: C_5  and  C_7
REMARK    5  A    between atoms: C_7  and  O_8
REMARK    6  A    between atoms: O_8  and  C_9
REMARK    7  A    between atoms: C_12  and  C_13
REMARK    8  A    between atoms: C_19  and  C_20
REMARK    9  A    between atoms: C_20  and  C_21
REMARK   10  A    between atoms: C_24  and  C_25
REMARK   11  A    between atoms: C_25  and  N_26
REMARK   12  A    between atoms: N_26  and  C_27
REMARK   13  A    between atoms: N_26  and  C_28
REMARK                            x       y       z     vdW  Elec       q    Type
REMARK                         _______ _______ _______ _____ _____    ______ ____
ROOT
ATOM      1  C   UNL     1      44.718   9.853  11.852  0.00  0.00    +0.000 C 
ATOM      2  C   UNL     1      45.470   8.599  12.184  0.00  0.00    +0.000 A 
ATOM      3  C   UNL     1      45.069   7.373  11.658  0.00  0.00    +0.000 A 
ATOM      4  C   UNL     1      45.725   6.191  12.028  0.00  0.00    +0.000 A 
ATOM      5  C   UNL     1      46.818   6.337  12.896  0.00  0.00    +0.000 A 
ATOM      6  C   UNL     1      47.141   7.594  13.421  0.00  0.00    +0.000 A 
ATOM      7  N   UNL     1      46.484   8.716  13.065  0.00  0.00    +0.000 NA
ENDROOT
BRANCH   4   8
ATOM      8  C   UNL     1      45.265   4.822  11.506  0.00  0.00    +0.000 C 
ATOM      9  C   UNL     1      45.443   3.687  12.536  0.00  0.00    +0.000 C 
BRANCH   8  10
ATOM     10  C   UNL     1      43.777   4.780  11.067  0.00  0.00    +0.000 C 
BRANCH  10  11
ATOM     11  O   UNL     1      43.664   4.741   9.639  0.00  0.00    +0.000 OA
BRANCH  11  12
ATOM     12  C   UNL     1      44.606   3.917   9.062  0.00  0.00    +0.000 A 
ATOM     13  C   UNL     1      44.535   2.554   9.340  0.00  0.00    +0.000 A 
ATOM     14  N   UNL     1      45.371   1.644   8.780  0.00  0.00    +0.000 NA
ATOM     15  C   UNL     1      46.292   2.178   7.920  0.00  0.00    +0.000 A 
ATOM     16  C   UNL     1      46.374   3.536   7.660  0.00  0.00    +0.000 A 
ATOM     17  N   UNL     1      45.531   4.436   8.225  0.00  0.00    +0.000 NA
BRANCH  15  18
ATOM     18  C   UNL     1      47.205   1.237   7.212  0.00  0.00    +0.000 C 
ATOM     19  N   UNL     1      46.940  -0.090   7.392  0.00  0.00    +0.000 N 
ATOM     20  O   UNL     1      48.114   1.627   6.496  0.00  0.00    +0.000 OA
ATOM     21  H   UNL     1      46.153  -0.379   7.965  0.00  0.00    +0.000 HD
ATOM     22  H   UNL     1      47.493  -0.779   6.901  0.00  0.00    +0.000 HD
ENDBRANCH  15  18
ENDBRANCH  11  12
ENDBRANCH  10  11
ENDBRANCH   8  10
ENDBRANCH   4   8
BRANCH   6  23
ATOM     23  C   UNL     1      48.096   7.715  14.581  0.00  0.00    +0.000 C 
BRANCH  23  24
ATOM     24  C   UNL     1      49.511   7.274  14.245  0.00  0.00    +0.000 C 
ATOM     25  C   UNL     1      50.329   7.184  15.544  0.00  0.00    +0.000 C 
ATOM     26  O   UNL     1      51.303   8.130  15.075  0.00  0.00    +0.000 OA
ATOM     27  C   UNL     1      50.690   8.177  13.756  0.00  0.00    +0.000 C 
BRANCH  27  28
ATOM     28  C   UNL     1      50.511   9.620  13.259  0.00  0.00    +0.000 C 
BRANCH  28  29
ATOM     29  N   UNL     1      50.518   9.821  11.787  0.00  0.00    +0.000 NA
ATOM     30  C   UNL     1      51.043   8.678  11.047  0.00  0.00    +0.000 C 
ATOM     31  C   UNL     1      49.227  10.238  11.250  0.00  0.00    +0.000 C 
ENDBRANCH  28  29
ENDBRANCH  27  28
ENDBRANCH  23  24
ENDBRANCH   6  23
TORSDOF 9
ENDMDL
