MODEL 1
REMARK VINA RESULT:    -7.819      0.000      0.000
REMARK INTER + INTRA:         -11.354
REMARK INTER:                 -10.562
REMARK INTRA:                  -0.792
REMARK UNBOUND:                -0.792
REMARK  Name = 
REMARK  6 active torsions:
REMARK  status: ('A' for Active; 'I' for Inactive)
REMARK    1  A    between atoms: C_2  and  C_4
REMARK    2  A    between atoms: C_7  and  O_8
REMARK    3  A    between atoms: O_8  and  C_9
REMARK    4  A    between atoms: C_9  and  C_10
REMARK    5  A    between atoms: C_10  and  C_11
REMARK    6  A    between atoms: C_15  and  C_16
REMARK                            x       y       z     vdW  Elec       q    Type
REMARK                         _______ _______ _______ _____ _____    ______ ____
ROOT
ATOM      1  C   UNL     1      45.386   6.806  12.569  0.00  0.00    +0.000 C 
ENDROOT
BRANCH   1   2
ATOM      2  O   UNL     1      46.697   6.225  12.556  0.00  0.00    +0.000 OA
BRANCH   2   6
ATOM      3  C   UNL     1      47.706   4.070  15.918  0.00  0.00    +0.000 A 
ATOM      4  C   UNL     1      48.150   5.385  15.855  0.00  0.00    +0.000 A 
ATOM      5  C   UNL     1      47.832   6.147  14.734  0.00  0.00    +0.000 A 
ATOM      6  C   UNL     1      47.077   5.586  13.705  0.00  0.00    +0.000 A 
ATOM      7  C   UNL     1      46.678   4.259  13.861  0.00  0.00    +0.000 A 
ATOM      8  N   UNL     1      46.972   3.479  14.934  0.00  0.00    +0.000 NA
BRANCH   3  10
ATOM      9  N   UNL     1      46.997   2.662  17.770  0.00  0.00    +0.000 N 
ATOM     10  C   UNL     1      48.048   3.247  17.121  0.00  0.00    +0.000 C 
ATOM     11  O   UNL     1      49.202   3.092  17.504  0.00  0.00    +0.000 OA
ATOM     12  H   UNL     1      47.186   2.053  18.552  0.00  0.00    +0.000 HD
ATOM     13  H   UNL     1      46.063   2.728  17.381  0.00  0.00    +0.000 HD
ENDBRANCH   3  10
ENDBRANCH   2   6
ENDBRANCH   1   2
BRANCH   1  14
ATOM     14  C   UNL     1      44.770   6.727  11.172  0.00  0.00    +0.000 C 
BRANCH  14  15
ATOM     15  C   UNL     1      44.547   5.303  10.739  0.00  0.00    +0.000 A 
ATOM     16  C   UNL     1      43.669   4.472  11.421  0.00  0.00    +0.000 A 
ATOM     17  N   UNL     1      43.449   3.183  11.100  0.00  0.00    +0.000 NA
ATOM     18  C   UNL     1      44.137   2.686  10.042  0.00  0.00    +0.000 A 
ATOM     19  C   UNL     1      45.061   3.405   9.279  0.00  0.00    +0.000 A 
ATOM     20  C   UNL     1      45.249   4.746   9.662  0.00  0.00    +0.000 A 
BRANCH  19  21
ATOM     21  C   UNL     1      45.814   2.797   8.166  0.00  0.00    +0.000 A 
ATOM     22  C   UNL     1      46.153   3.516   7.009  0.00  0.00    +0.000 A 
ATOM     23  C   UNL     1      46.925   2.932   6.006  0.00  0.00    +0.000 A 
ATOM     24  C   UNL     1      47.334   1.621   6.171  0.00  0.00    +0.000 A 
ATOM     25  N   UNL     1      47.013   0.873   7.244  0.00  0.00    +0.000 NA
ATOM     26  C   UNL     1      46.269   1.475   8.205  0.00  0.00    +0.000 A 
ENDBRANCH  19  21
ENDBRANCH  14  15
ENDBRANCH   1  14
TORSDOF 6
ENDMDL
MODEL 2
REMARK VINA RESULT:    -7.771      3.142      7.513
REMARK INTER + INTRA:         -11.289
REMARK INTER:                 -10.429
REMARK INTRA:                  -0.860
REMARK UNBOUND:                -0.792
REMARK  Name = 
REMARK  6 active torsions:
REMARK  status: ('A' for Active; 'I' for Inactive)
REMARK    1  A    between atoms: C_2  and  C_4
REMARK    2  A    between atoms: C_7  and  O_8
REMARK    3  A    between atoms: O_8  and  C_9
REMARK    4  A    between atoms: C_9  and  C_10
REMARK    5  A    between atoms: C_10  and  C_11
REMARK    6  A    between atoms: C_15  and  C_16
REMARK                            x       y       z     vdW  Elec       q    Type
REMARK                         _______ _______ _______ _____ _____    ______ ____
ROOT
ATOM      1  C   UNL     1      43.746   3.070  11.599  0.00  0.00    +0.000 C 
ENDROOT
BRANCH   1   2
ATOM      2  O   UNL     1      43.598   3.626  10.286  0.00  0.00    +0.000 OA
BRANCH   2   6
ATOM      3  C   UNL     1      46.473   2.313   7.644  0.00  0.00    +0.000 A 
ATOM      4  C   UNL     1      46.194   3.674   7.647  0.00  0.00    +0.000 A 
ATOM      5  C   UNL     1      45.226   4.158   8.523  0.00  0.00    +0.000 A 
ATOM      6  C   UNL     1      44.563   3.279   9.379  0.00  0.00    +0.000 A 
ATOM      7  C   UNL     1      44.914   1.933   9.302  0.00  0.00    +0.000 A 
ATOM      8  N   UNL     1      45.847   1.417   8.458  0.00  0.00    +0.000 NA
BRANCH   3  10
ATOM      9  N   UNL     1      48.586   2.603   6.476  0.00  0.00    +0.000 N 
ATOM     10  C   UNL     1      47.511   1.790   6.701  0.00  0.00    +0.000 C 
ATOM     11  O   UNL     1      47.418   0.691   6.166  0.00  0.00    +0.000 OA
ATOM     12  H   UNL     1      49.338   2.266   5.892  0.00  0.00    +0.000 HD
ATOM     13  H   UNL     1      48.688   3.465   7.001  0.00  0.00    +0.000 HD
ENDBRANCH   3  10
ENDBRANCH   2   6
ENDBRANCH   1   2
BRANCH   1  14
ATOM     14  C   UNL     1      43.641   4.179  12.647  0.00  0.00    +0.000 C 
BRANCH  14  15
ATOM     15  C   UNL     1      44.928   4.948  12.776  0.00  0.00    +0.000 A 
ATOM     16  C   UNL     1      46.077   4.352  13.277  0.00  0.00    +0.000 A 
ATOM     17  N   UNL     1      47.249   4.995  13.442  0.00  0.00    +0.000 NA
ATOM     18  C   UNL     1      47.287   6.304  13.091  0.00  0.00    +0.000 A 
ATOM     19  C   UNL     1      46.204   7.031  12.589  0.00  0.00    +0.000 A 
ATOM     20  C   UNL     1      45.007   6.307  12.439  0.00  0.00    +0.000 A 
BRANCH  19  21
ATOM     21  C   UNL     1      46.294   8.467  12.267  0.00  0.00    +0.000 A 
ATOM     22  C   UNL     1      45.156   9.264  12.071  0.00  0.00    +0.000 A 
ATOM     23  C   UNL     1      45.274  10.633  11.835  0.00  0.00    +0.000 A 
ATOM     24  C   UNL     1      46.542  11.184  11.784  0.00  0.00    +0.000 A 
ATOM     25  N   UNL     1      47.670  10.464  11.934  0.00  0.00    +0.000 NA
ATOM     26  C   UNL     1      47.519   9.136  12.170  0.00  0.00    +0.000 A 
ENDBRANCH  19  21
ENDBRANCH  14  15
ENDBRANCH   1  14
TORSDOF 6
ENDMDL
MODEL 3
REMARK VINA RESULT:    -7.630      2.713      7.976
REMARK INTER + INTRA:         -11.098
REMARK INTER:                 -10.349
REMARK INTRA:                  -0.750
REMARK UNBOUND:                -0.792
REMARK  Name = 
REMARK  6 active torsions:
REMARK  status: ('A' for Active; 'I' for Inactive)
REMARK    1  A    between atoms: C_2  and  C_4
REMARK    2  A    between atoms: C_7  and  O_8
REMARK    3  A    between atoms: O_8  and  C_9
REMARK    4  A    between atoms: C_9  and  C_10
REMARK    5  A    between atoms: C_10  and  C_11
REMARK    6  A    between atoms: C_15  and  C_16
REMARK                            x       y       z     vdW  Elec       q    Type
REMARK                         _______ _______ _______ _____ _____    ______ ____
ROOT
ATOM      1  C   UNL     1      43.746   4.735  10.854  0.00  0.00    +0.000 C 
ENDROOT
BRANCH   1   2
ATOM      2  O   UNL     1      43.555   3.521  10.115  0.00  0.00    +0.000 OA
BRANCH   2   6
ATOM      3  C   UNL     1      46.515   2.301   7.522  0.00  0.00    +0.000 A 
ATOM      4  C   UNL     1      46.167   3.646   7.493  0.00  0.00    +0.000 A 
ATOM      5  C   UNL     1      45.169   4.099   8.353  0.00  0.00    +0.000 A 
ATOM      6  C   UNL     1      44.544   3.205   9.223  0.00  0.00    +0.000 A 
ATOM      7  C   UNL     1      44.964   1.877   9.177  0.00  0.00    +0.000 A 
ATOM      8  N   UNL     1      45.928   1.392   8.350  0.00  0.00    +0.000 NA
BRANCH   3  10
ATOM      9  N   UNL     1      48.652   2.646   6.415  0.00  0.00    +0.000 N 
ATOM     10  C   UNL     1      47.586   1.811   6.598  0.00  0.00    +0.000 C 
ATOM     11  O   UNL     1      47.525   0.721   6.041  0.00  0.00    +0.000 OA
ATOM     12  H   UNL     1      49.424   2.332   5.845  0.00  0.00    +0.000 HD
ATOM     13  H   UNL     1      48.725   3.500   6.957  0.00  0.00    +0.000 HD
ENDBRANCH   3  10
ENDBRANCH   2   6
ENDBRANCH   1   2
BRANCH   1  14
ATOM     14  C   UNL     1      44.046   4.410  12.317  0.00  0.00    +0.000 C 
BRANCH  14  15
ATOM     15  C   UNL     1      45.349   5.015  12.767  0.00  0.00    +0.000 A 
ATOM     16  C   UNL     1      46.052   5.897  11.958  0.00  0.00    +0.000 A 
ATOM     17  N   UNL     1      47.234   6.449  12.293  0.00  0.00    +0.000 NA
ATOM     18  C   UNL     1      47.752   6.107  13.499  0.00  0.00    +0.000 A 
ATOM     19  C   UNL     1      47.160   5.222  14.403  0.00  0.00    +0.000 A 
ATOM     20  C   UNL     1      45.927   4.677  13.998  0.00  0.00    +0.000 A 
BRANCH  19  21
ATOM     21  C   UNL     1      47.794   4.854  15.682  0.00  0.00    +0.000 A 
ATOM     22  C   UNL     1      47.510   3.647  16.340  0.00  0.00    +0.000 A 
ATOM     23  C   UNL     1      48.177   3.298  17.513  0.00  0.00    +0.000 A 
ATOM     24  C   UNL     1      49.116   4.177  18.021  0.00  0.00    +0.000 A 
ATOM     25  N   UNL     1      49.408   5.362  17.451  0.00  0.00    +0.000 NA
ATOM     26  C   UNL     1      48.746   5.667  16.307  0.00  0.00    +0.000 A 
ENDBRANCH  19  21
ENDBRANCH  14  15
ENDBRANCH   1  14
TORSDOF 6
ENDMDL
MODEL 4
REMARK VINA RESULT:    -7.504      1.389      1.663
REMARK INTER + INTRA:         -10.928
REMARK INTER:                 -10.235
REMARK INTRA:                  -0.693
REMARK UNBOUND:                -0.792
REMARK  Name = 
REMARK  6 active torsions:
REMARK  status: ('A' for Active; 'I' for Inactive)
REMARK    1  A    between atoms: C_2  and  C_4
REMARK    2  A    between atoms: C_7  and  O_8
REMARK    3  A    between atoms: O_8  and  C_9
REMARK    4  A    between atoms: C_9  and  C_10
REMARK    5  A    between atoms: C_10  and  C_11
REMARK    6  A    between atoms: C_15  and  C_16
REMARK                            x       y       z     vdW  Elec       q    Type
REMARK                         _______ _______ _______ _____ _____    ______ ____
ROOT
ATOM      1  C   UNL     1      47.467   6.994  11.947  0.00  0.00    +0.000 C 
ENDROOT
BRANCH   1   2
ATOM      2  O   UNL     1      47.885   7.296  13.284  0.00  0.00    +0.000 OA
BRANCH   2   6
ATOM      3  C   UNL     1      47.733   4.360  16.170  0.00  0.00    +0.000 A 
ATOM      4  C   UNL     1      46.922   4.190  15.055  0.00  0.00    +0.000 A 
ATOM      5  C   UNL     1      46.942   5.162  14.057  0.00  0.00    +0.000 A 
ATOM      6  C   UNL     1      47.771   6.276  14.190  0.00  0.00    +0.000 A 
ATOM      7  C   UNL     1      48.548   6.355  15.344  0.00  0.00    +0.000 A 
ATOM      8  N   UNL     1      48.554   5.434  16.344  0.00  0.00    +0.000 NA
BRANCH   3  10
ATOM      9  N   UNL     1      48.906   3.062  17.859  0.00  0.00    +0.000 N 
ATOM     10  C   UNL     1      47.712   3.318  17.245  0.00  0.00    +0.000 C 
ATOM     11  O   UNL     1      46.687   2.732  17.571  0.00  0.00    +0.000 OA
ATOM     12  H   UNL     1      48.927   2.408  18.628  0.00  0.00    +0.000 HD
ATOM     13  H   UNL     1      49.720   3.625  17.638  0.00  0.00    +0.000 HD
ENDBRANCH   3  10
ENDBRANCH   2   6
ENDBRANCH   1   2
BRANCH   1  14
ATOM     14  C   UNL     1      46.012   7.420  11.749  0.00  0.00    +0.000 C 
BRANCH  14  15
ATOM     15  C   UNL     1      45.202   6.346  11.075  0.00  0.00    +0.000 A 
ATOM     16  C   UNL     1      43.845   6.201  11.327  0.00  0.00    +0.000 A 
ATOM     17  N   UNL     1      43.074   5.244  10.777  0.00  0.00    +0.000 NA
ATOM     18  C   UNL     1      43.681   4.379   9.927  0.00  0.00    +0.000 A 
ATOM     19  C   UNL     1      45.038   4.400   9.596  0.00  0.00    +0.000 A 
ATOM     20  C   UNL     1      45.793   5.422  10.202  0.00  0.00    +0.000 A 
BRANCH  19  21
ATOM     21  C   UNL     1      45.652   3.404   8.699  0.00  0.00    +0.000 A 
ATOM     22  C   UNL     1      46.375   3.771   7.554  0.00  0.00    +0.000 A 
ATOM     23  C   UNL     1      47.000   2.806   6.764  0.00  0.00    +0.000 A 
ATOM     24  C   UNL     1      46.877   1.478   7.128  0.00  0.00    +0.000 A 
ATOM     25  N   UNL     1      46.170   1.064   8.198  0.00  0.00    +0.000 NA
ATOM     26  C   UNL     1      45.582   2.029   8.949  0.00  0.00    +0.000 A 
ENDBRANCH  19  21
ENDBRANCH  14  15
ENDBRANCH   1  14
TORSDOF 6
ENDMDL
MODEL 5
REMARK VINA RESULT:    -6.731      1.804      2.394
REMARK INTER + INTRA:          -9.884
REMARK INTER:                  -9.327
REMARK INTRA:                  -0.557
REMARK UNBOUND:                -0.792
REMARK  Name = 
REMARK  6 active torsions:
REMARK  status: ('A' for Active; 'I' for Inactive)
REMARK    1  A    between atoms: C_2  and  C_4
REMARK    2  A    between atoms: C_7  and  O_8
REMARK    3  A    between atoms: O_8  and  C_9
REMARK    4  A    between atoms: C_9  and  C_10
REMARK    5  A    between atoms: C_10  and  C_11
REMARK    6  A    between atoms: C_15  and  C_16
REMARK                            x       y       z     vdW  Elec       q    Type
REMARK                         _______ _______ _______ _____ _____    ______ ____
ROOT
ATOM      1  C   UNL     1      46.931   4.399  13.693  0.00  0.00    +0.000 C 
ENDROOT
BRANCH   1   2
ATOM      2  O   UNL     1      47.191   3.391  14.679  0.00  0.00    +0.000 OA
BRANCH   2   6
ATOM      3  C   UNL     1      48.548   4.489  18.411  0.00  0.00    +0.000 A 
ATOM      4  C   UNL     1      48.517   5.477  17.435  0.00  0.00    +0.000 A 
ATOM      5  C   UNL     1      48.067   5.147  16.159  0.00  0.00    +0.000 A 
ATOM      6  C   UNL     1      47.654   3.843  15.885  0.00  0.00    +0.000 A 
ATOM      7  C   UNL     1      47.721   2.923  16.930  0.00  0.00    +0.000 A 
ATOM      8  N   UNL     1      48.159   3.202  18.187  0.00  0.00    +0.000 NA
BRANCH   3  10
ATOM      9  N   UNL     1      48.588   4.045  20.801  0.00  0.00    +0.000 N 
ATOM     10  C   UNL     1      49.032   4.841  19.782  0.00  0.00    +0.000 C 
ATOM     11  O   UNL     1      49.793   5.779  19.989  0.00  0.00    +0.000 OA
ATOM     12  H   UNL     1      48.934   4.211  21.735  0.00  0.00    +0.000 HD
ATOM     13  H   UNL     1      48.035   3.221  20.595  0.00  0.00    +0.000 HD
ENDBRANCH   3  10
ENDBRANCH   2   6
ENDBRANCH   1   2
BRANCH   1  14
ATOM     14  C   UNL     1      45.446   4.761  13.700  0.00  0.00    +0.000 C 
BRANCH  14  15
ATOM     15  C   UNL     1      44.854   4.719  12.316  0.00  0.00    +0.000 A 
ATOM     16  C   UNL     1      43.621   5.294  12.041  0.00  0.00    +0.000 A 
ATOM     17  N   UNL     1      43.029   5.265  10.833  0.00  0.00    +0.000 NA
ATOM     18  C   UNL     1      43.695   4.629   9.837  0.00  0.00    +0.000 A 
ATOM     19  C   UNL     1      44.932   3.995   9.978  0.00  0.00    +0.000 A 
ATOM     20  C   UNL     1      45.502   4.059  11.263  0.00  0.00    +0.000 A 
BRANCH  19  21
ATOM     21  C   UNL     1      45.587   3.280   8.867  0.00  0.00    +0.000 A 
ATOM     22  C   UNL     1      46.138   3.951   7.764  0.00  0.00    +0.000 A 
ATOM     23  C   UNL     1      46.811   3.249   6.764  0.00  0.00    +0.000 A 
ATOM     24  C   UNL     1      46.908   1.875   6.878  0.00  0.00    +0.000 A 
ATOM     25  N   UNL     1      46.372   1.174   7.897  0.00  0.00    +0.000 NA
ATOM     26  C   UNL     1      45.732   1.888   8.856  0.00  0.00    +0.000 A 
ENDBRANCH  19  21
ENDBRANCH  14  15
ENDBRANCH   1  14
TORSDOF 6
ENDMDL
MODEL 6
REMARK VINA RESULT:    -6.622      2.172      3.673
REMARK INTER + INTRA:          -9.736
REMARK INTER:                  -8.853
REMARK INTRA:                  -0.883
REMARK UNBOUND:                -0.792
REMARK  Name = 
REMARK  6 active torsions:
REMARK  status: ('A' for Active; 'I' for Inactive)
REMARK    1  A    between atoms: C_2  and  C_4
REMARK    2  A    between atoms: C_7  and  O_8
REMARK    3  A    between atoms: O_8  and  C_9
REMARK    4  A    between atoms: C_9  and  C_10
REMARK    5  A    between atoms: C_10  and  C_11
REMARK    6  A    between atoms: C_15  and  C_16
REMARK                            x       y       z     vdW  Elec       q    Type
REMARK                         _______ _______ _______ _____ _____    ______ ____
ROOT
ATOM      1  C   UNL     1      49.634   7.480  13.370  0.00  0.00    +0.000 C 
ENDROOT
BRANCH   1   2
ATOM      2  O   UNL     1      49.153   7.866  14.663  0.00  0.00    +0.000 OA
BRANCH   2   6
ATOM      3  C   UNL     1      48.022   4.654  16.981  0.00  0.00    +0.000 A 
ATOM      4  C   UNL     1      48.744   5.662  17.609  0.00  0.00    +0.000 A 
ATOM      5  C   UNL     1      49.147   6.764  16.860  0.00  0.00    +0.000 A 
ATOM      6  C   UNL     1      48.820   6.841  15.507  0.00  0.00    +0.000 A 
ATOM      7  C   UNL     1      48.093   5.780  14.968  0.00  0.00    +0.000 A 
ATOM      8  N   UNL     1      47.685   4.684  15.661  0.00  0.00    +0.000 NA
BRANCH   3  10
ATOM      9  N   UNL     1      48.355   3.164  18.875  0.00  0.00    +0.000 N 
ATOM     10  C   UNL     1      47.589   3.467  17.784  0.00  0.00    +0.000 C 
ATOM     11  O   UNL     1      46.599   2.804  17.494  0.00  0.00    +0.000 OA
ATOM     12  H   UNL     1      48.067   2.406  19.476  0.00  0.00    +0.000 HD
ATOM     13  H   UNL     1      49.112   3.781  19.148  0.00  0.00    +0.000 HD
ENDBRANCH   3  10
ENDBRANCH   2   6
ENDBRANCH   1   2
BRANCH   1  14
ATOM     14  C   UNL     1      48.992   8.357  12.294  0.00  0.00    +0.000 C 
BRANCH  14  15
ATOM     15  C   UNL     1      47.536   8.027  12.101  0.00  0.00    +0.000 A 
ATOM     16  C   UNL     1      46.538   8.858  12.590  0.00  0.00    +0.000 A 
ATOM     17  N   UNL     1      45.221   8.604  12.472  0.00  0.00    +0.000 NA
ATOM     18  C   UNL     1      44.870   7.459  11.835  0.00  0.00    +0.000 A 
ATOM     19  C   UNL     1      45.769   6.527  11.309  0.00  0.00    +0.000 A 
ATOM     20  C   UNL     1      47.131   6.847  11.462  0.00  0.00    +0.000 A 
BRANCH  19  21
ATOM     21  C   UNL     1      45.328   5.276  10.666  0.00  0.00    +0.000 A 
ATOM     22  C   UNL     1      45.540   5.019   9.302  0.00  0.00    +0.000 A 
ATOM     23  C   UNL     1      45.172   3.798   8.740  0.00  0.00    +0.000 A 
ATOM     24  C   UNL     1      44.578   2.852   9.555  0.00  0.00    +0.000 A 
ATOM     25  N   UNL     1      44.321   3.054  10.862  0.00  0.00    +0.000 NA
ATOM     26  C   UNL     1      44.700   4.249  11.378  0.00  0.00    +0.000 A 
ENDBRANCH  19  21
ENDBRANCH  14  15
ENDBRANCH   1  14
TORSDOF 6
ENDMDL
MODEL 7
REMARK VINA RESULT:    -6.244      4.455      8.137
REMARK INTER + INTRA:          -9.226
REMARK INTER:                  -8.318
REMARK INTRA:                  -0.908
REMARK UNBOUND:                -0.792
REMARK  Name = 
REMARK  6 active torsions:
REMARK  status: ('A' for Active; 'I' for Inactive)
REMARK    1  A    between atoms: C_2  and  C_4
REMARK    2  A    between atoms: C_7  and  O_8
REMARK    3  A    between atoms: O_8  and  C_9
REMARK    4  A    between atoms: C_9  and  C_10
REMARK    5  A    between atoms: C_10  and  C_11
REMARK    6  A    between atoms: C_15  and  C_16
REMARK                            x       y       z     vdW  Elec       q    Type
REMARK                         _______ _______ _______ _____ _____    ______ ____
ROOT
ATOM      1  C   UNL     1      49.416   7.311  14.359  0.00  0.00    +0.000 C 
ENDROOT
BRANCH   1   2
ATOM      2  O   UNL     1      48.499   7.540  13.282  0.00  0.00    +0.000 OA
BRANCH   2   6
ATOM      3  C   UNL     1      44.986   5.392  13.161  0.00  0.00    +0.000 A 
ATOM      4  C   UNL     1      46.120   4.722  13.603  0.00  0.00    +0.000 A 
ATOM      5  C   UNL     1      47.328   5.412  13.656  0.00  0.00    +0.000 A 
ATOM      6  C   UNL     1      47.379   6.752  13.274  0.00  0.00    +0.000 A 
ATOM      7  C   UNL     1      46.189   7.336  12.846  0.00  0.00    +0.000 A 
ATOM      8  N   UNL     1      44.990   6.698  12.772  0.00  0.00    +0.000 NA
BRANCH   3  10
ATOM      9  N   UNL     1      42.558   5.421  13.015  0.00  0.00    +0.000 N 
ATOM     10  C   UNL     1      43.686   4.653  13.101  0.00  0.00    +0.000 C 
ATOM     11  O   UNL     1      43.625   3.429  13.115  0.00  0.00    +0.000 OA
ATOM     12  H   UNL     1      41.664   4.963  12.915  0.00  0.00    +0.000 HD
ATOM     13  H   UNL     1      42.638   6.426  12.910  0.00  0.00    +0.000 HD
ENDBRANCH   3  10
ENDBRANCH   2   6
ENDBRANCH   1   2
BRANCH   1  14
ATOM     14  C   UNL     1      48.853   7.898  15.654  0.00  0.00    +0.000 C 
BRANCH  14  15
ATOM     15  C   UNL     1      49.033   6.959  16.816  0.00  0.00    +0.000 A 
ATOM     16  C   UNL     1      48.552   7.276  18.080  0.00  0.00    +0.000 A 
ATOM     17  N   UNL     1      48.705   6.491  19.163  0.00  0.00    +0.000 NA
ATOM     18  C   UNL     1      49.375   5.325  18.987  0.00  0.00    +0.000 A 
ATOM     19  C   UNL     1      49.924   4.891  17.778  0.00  0.00    +0.000 A 
ATOM     20  C   UNL     1      49.732   5.752  16.682  0.00  0.00    +0.000 A 
BRANCH  19  21
ATOM     21  C   UNL     1      50.682   3.631  17.658  0.00  0.00    +0.000 A 
ATOM     22  C   UNL     1      52.014   3.515  18.085  0.00  0.00    +0.000 A 
ATOM     23  C   UNL     1      52.681   2.292  18.021  0.00  0.00    +0.000 A 
ATOM     24  C   UNL     1      52.002   1.200  17.512  0.00  0.00    +0.000 A 
ATOM     25  N   UNL     1      50.734   1.258  17.059  0.00  0.00    +0.000 NA
ATOM     26  C   UNL     1      50.113   2.461  17.144  0.00  0.00    +0.000 A 
ENDBRANCH  19  21
ENDBRANCH  14  15
ENDBRANCH   1  14
TORSDOF 6
ENDMDL
MODEL 8
REMARK VINA RESULT:    -6.143      3.086      8.358
REMARK INTER + INTRA:          -9.089
REMARK INTER:                  -8.715
REMARK INTRA:                  -0.374
REMARK UNBOUND:                -0.792
REMARK  Name = 
REMARK  6 active torsions:
REMARK  status: ('A' for Active; 'I' for Inactive)
REMARK    1  A    between atoms: C_2  and  C_4
REMARK    2  A    between atoms: C_7  and  O_8
REMARK    3  A    between atoms: O_8  and  C_9
REMARK    4  A    between atoms: C_9  and  C_10
REMARK    5  A    between atoms: C_10  and  C_11
REMARK    6  A    between atoms: C_15  and  C_16
REMARK                            x       y       z     vdW  Elec       q    Type
REMARK                         _______ _______ _______ _____ _____    ______ ____
ROOT
ATOM      1  C   UNL     1      48.613   6.866  14.474  0.00  0.00    +0.000 C 
ENDROOT
BRANCH   1   2
ATOM      2  O   UNL     1      47.977   5.582  14.536  0.00  0.00    +0.000 OA
BRANCH   2   6
ATOM      3  C   UNL     1      45.078   4.600  11.779  0.00  0.00    +0.000 A 
ATOM      4  C   UNL     1      45.686   5.841  11.640  0.00  0.00    +0.000 A 
ATOM      5  C   UNL     1      46.669   6.213  12.553  0.00  0.00    +0.000 A 
ATOM      6  C   UNL     1      47.028   5.340  13.580  0.00  0.00    +0.000 A 
ATOM      7  C   UNL     1      46.362   4.117  13.635  0.00  0.00    +0.000 A 
ATOM      8  N   UNL     1      45.392   3.718  12.769  0.00  0.00    +0.000 NA
BRANCH   3  10
ATOM      9  N   UNL     1      44.045   4.833   9.590  0.00  0.00    +0.000 N 
ATOM     10  C   UNL     1      44.019   4.198  10.800  0.00  0.00    +0.000 C 
ATOM     11  O   UNL     1      43.179   3.342  11.055  0.00  0.00    +0.000 OA
ATOM     12  H   UNL     1      43.384   4.554   8.879  0.00  0.00    +0.000 HD
ATOM     13  H   UNL     1      44.803   5.469   9.368  0.00  0.00    +0.000 HD
ENDBRANCH   3  10
ENDBRANCH   2   6
ENDBRANCH   1   2
BRANCH   1  14
ATOM     14  C   UNL     1      48.859   7.392  15.888  0.00  0.00    +0.000 C 
BRANCH  14  15
ATOM     15  C   UNL     1      48.903   6.277  16.898  0.00  0.00    +0.000 A 
ATOM     16  C   UNL     1      48.015   6.235  17.964  0.00  0.00    +0.000 A 
ATOM     17  N   UNL     1      48.023   5.281  18.914  0.00  0.00    +0.000 NA
ATOM     18  C   UNL     1      48.965   4.311  18.804  0.00  0.00    +0.000 A 
ATOM     19  C   UNL     1      49.928   4.241  17.794  0.00  0.00    +0.000 A 
ATOM     20  C   UNL     1      49.870   5.265  16.831  0.00  0.00    +0.000 A 
BRANCH  19  21
ATOM     21  C   UNL     1      50.957   3.186  17.752  0.00  0.00    +0.000 A 
ATOM     22  C   UNL     1      52.260   3.390  18.234  0.00  0.00    +0.000 A 
ATOM     23  C   UNL     1      53.189   2.351  18.243  0.00  0.00    +0.000 A 
ATOM     24  C   UNL     1      52.801   1.118  17.750  0.00  0.00    +0.000 A 
ATOM     25  N   UNL     1      51.576   0.872  17.247  0.00  0.00    +0.000 NA
ATOM     26  C   UNL     1      50.694   1.903  17.261  0.00  0.00    +0.000 A 
ENDBRANCH  19  21
ENDBRANCH  14  15
ENDBRANCH   1  14
TORSDOF 6
ENDMDL
MODEL 9
REMARK VINA RESULT:    -6.096      3.442      7.717
REMARK INTER + INTRA:          -9.026
REMARK INTER:                  -8.078
REMARK INTRA:                  -0.948
REMARK UNBOUND:                -0.792
REMARK  Name = 
REMARK  6 active torsions:
REMARK  status: ('A' for Active; 'I' for Inactive)
REMARK    1  A    between atoms: C_2  and  C_4
REMARK    2  A    between atoms: C_7  and  O_8
REMARK    3  A    between atoms: O_8  and  C_9
REMARK    4  A    between atoms: C_9  and  C_10
REMARK    5  A    between atoms: C_10  and  C_11
REMARK    6  A    between atoms: C_15  and  C_16
REMARK                            x       y       z     vdW  Elec       q    Type
REMARK                         _______ _______ _______ _____ _____    ______ ____
ROOT
ATOM      1  C   UNL     1      47.154   8.416  13.410  0.00  0.00    +0.000 C 
ENDROOT
BRANCH   1   2
ATOM      2  O   UNL     1      47.671   7.361  12.589  0.00  0.00    +0.000 OA
BRANCH   2   6
ATOM      3  C   UNL     1      45.076   4.264  11.785  0.00  0.00    +0.000 A 
ATOM      4  C   UNL     1      45.848   4.157  12.935  0.00  0.00    +0.000 A 
ATOM      5  C   UNL     1      46.740   5.182  13.241  0.00  0.00    +0.000 A 
ATOM      6  C   UNL     1      46.839   6.290  12.401  0.00  0.00    +0.000 A 
ATOM      7  C   UNL     1      46.022   6.305  11.272  0.00  0.00    +0.000 A 
ATOM      8  N   UNL     1      45.144   5.325  10.932  0.00  0.00    +0.000 NA
BRANCH   3  10
ATOM      9  N   UNL     1      43.712   2.380  12.496  0.00  0.00    +0.000 N 
ATOM     10  C   UNL     1      44.118   3.163  11.452  0.00  0.00    +0.000 C 
ATOM     11  O   UNL     1      43.706   2.973  10.313  0.00  0.00    +0.000 OA
ATOM     12  H   UNL     1      43.023   1.662  12.327  0.00  0.00    +0.000 HD
ATOM     13  H   UNL     1      43.993   2.614  13.442  0.00  0.00    +0.000 HD
ENDBRANCH   3  10
ENDBRANCH   2   6
ENDBRANCH   1   2
BRANCH   1  14
ATOM     14  C   UNL     1      48.286   9.039  14.228  0.00  0.00    +0.000 C 
BRANCH  14  15
ATOM     15  C   UNL     1      48.444   8.368  15.566  0.00  0.00    +0.000 A 
ATOM     16  C   UNL     1      48.346   9.087  16.749  0.00  0.00    +0.000 A 
ATOM     17  N   UNL     1      48.505   8.549  17.973  0.00  0.00    +0.000 NA
ATOM     18  C   UNL     1      48.777   7.221  18.030  0.00  0.00    +0.000 A 
ATOM     19  C   UNL     1      48.917   6.384  16.921  0.00  0.00    +0.000 A 
ATOM     20  C   UNL     1      48.740   7.002  15.669  0.00  0.00    +0.000 A 
BRANCH  19  21
ATOM     21  C   UNL     1      49.258   4.954  17.045  0.00  0.00    +0.000 A 
ATOM     22  C   UNL     1      48.308   3.938  16.859  0.00  0.00    +0.000 A 
ATOM     23  C   UNL     1      48.678   2.595  16.916  0.00  0.00    +0.000 A 
ATOM     24  C   UNL     1      50.001   2.289  17.176  0.00  0.00    +0.000 A 
ATOM     25  N   UNL     1      50.950   3.220  17.393  0.00  0.00    +0.000 NA
ATOM     26  C   UNL     1      50.557   4.517  17.322  0.00  0.00    +0.000 A 
ENDBRANCH  19  21
ENDBRANCH  14  15
ENDBRANCH   1  14
TORSDOF 6
ENDMDL
