MODEL 1
REMARK VINA RESULT:    -7.411      0.000      0.000
REMARK INTER + INTRA:         -11.709
REMARK INTER:                 -10.877
REMARK INTRA:                  -0.832
REMARK UNBOUND:                -0.832
REMARK  Name = 
REMARK  9 active torsions:
REMARK  status: ('A' for Active; 'I' for Inactive)
REMARK    1  A    between atoms: C_1  and  N_2
REMARK    2  A    between atoms: N_2  and  C_3
REMARK    3  A    between atoms: N_2  and  C_19
REMARK    4  A    between atoms: C_3  and  C_4
REMARK    5  A    between atoms: C_7  and  C_8
REMARK    6  A    between atoms: C_8  and  N_9
REMARK    7  A    between atoms: N_9  and  C_10
REMARK    8  A    between atoms: C_10  and  C_11
REMARK    9  A    between atoms: C_19  and  C_20
REMARK                            x       y       z     vdW  Elec       q    Type
REMARK                         _______ _______ _______ _____ _____    ______ ____
ROOT
ATOM      1  C   UNL     1      47.132   6.052  12.756  0.00  0.00    +0.000 A 
ATOM      2  C   UNL     1      46.308   5.028  13.247  0.00  0.00    +0.000 A 
ATOM      3  C   UNL     1      45.182   4.615  12.535  0.00  0.00    +0.000 A 
ATOM      4  C   UNL     1      44.826   5.246  11.336  0.00  0.00    +0.000 A 
ATOM      5  C   UNL     1      45.636   6.282  10.853  0.00  0.00    +0.000 A 
ATOM      6  C   UNL     1      46.783   6.676  11.551  0.00  0.00    +0.000 A 
ENDROOT
BRANCH   1   7
ATOM      7  C   UNL     1      48.386   6.446  13.507  0.00  0.00    +0.000 C 
BRANCH   7   9
ATOM      8  C   UNL     1      48.277   8.409  14.945  0.00  0.00    +0.000 C 
ATOM      9  N   UNL     1      48.144   6.947  14.880  0.00  0.00    +0.000 NA
BRANCH   9  10
ATOM     10  C   UNL     1      49.123   6.312  15.795  0.00  0.00    +0.000 C 
BRANCH  10  11
ATOM     11  C   UNL     1      48.638   5.045  16.471  0.00  0.00    +0.000 A 
ATOM     12  C   UNL     1      47.280   4.749  16.542  0.00  0.00    +0.000 A 
ATOM     13  N   UNL     1      46.800   3.623  17.126  0.00  0.00    +0.000 NA
ATOM     14  C   UNL     1      47.737   2.802  17.648  0.00  0.00    +0.000 A 
ATOM     15  C   UNL     1      49.090   3.090  17.592  0.00  0.00    +0.000 A 
ATOM     16  N   UNL     1      49.571   4.208  17.004  0.00  0.00    +0.000 NA
ENDBRANCH  10  11
ENDBRANCH   9  10
ENDBRANCH   7   9
ENDBRANCH   1   7
BRANCH   4  17
ATOM     17  C   UNL     1      43.597   4.801  10.577  0.00  0.00    +0.000 C 
BRANCH  17  18
ATOM     18  N   UNL     1      43.974   4.229   9.287  0.00  0.00    +0.000 NA
ATOM     19  H   UNL     1      44.753   4.764   8.907  0.00  0.00    +0.000 HD
BRANCH  18  20
ATOM     20  C   UNL     1      44.402   2.832   9.423  0.00  0.00    +0.000 C 
BRANCH  20  21
ATOM     21  C   UNL     1      45.512   2.492   8.443  0.00  0.00    +0.000 A 
ATOM     22  C   UNL     1      46.041   3.479   7.616  0.00  0.00    +0.000 A 
ATOM     23  C   UNL     1      47.077   3.148   6.747  0.00  0.00    +0.000 A 
ATOM     24  C   UNL     1      47.550   1.842   6.720  0.00  0.00    +0.000 A 
ATOM     25  C   UNL     1      46.964   0.917   7.571  0.00  0.00    +0.000 A 
ATOM     26  N   UNL     1      45.961   1.210   8.430  0.00  0.00    +0.000 NA
ENDBRANCH  20  21
ENDBRANCH  18  20
ENDBRANCH  17  18
ENDBRANCH   4  17
TORSDOF 8
ENDMDL
MODEL 2
REMARK VINA RESULT:    -7.191      1.082      1.218
REMARK INTER + INTRA:         -11.387
REMARK INTER:                 -10.338
REMARK INTRA:                  -1.049
REMARK UNBOUND:                -0.832
REMARK  Name = 
REMARK  9 active torsions:
REMARK  status: ('A' for Active; 'I' for Inactive)
REMARK    1  A    between atoms: C_1  and  N_2
REMARK    2  A    between atoms: N_2  and  C_3
REMARK    3  A    between atoms: N_2  and  C_19
REMARK    4  A    between atoms: C_3  and  C_4
REMARK    5  A    between atoms: C_7  and  C_8
REMARK    6  A    between atoms: C_8  and  N_9
REMARK    7  A    between atoms: N_9  and  C_10
REMARK    8  A    between atoms: C_10  and  C_11
REMARK    9  A    between atoms: C_19  and  C_20
REMARK                            x       y       z     vdW  Elec       q    Type
REMARK                         _______ _______ _______ _____ _____    ______ ____
ROOT
ATOM      1  C   UNL     1      47.111   6.054  12.526  0.00  0.00    +0.000 A 
ATOM      2  C   UNL     1      46.575   4.968  13.233  0.00  0.00    +0.000 A 
ATOM      3  C   UNL     1      45.426   4.319  12.782  0.00  0.00    +0.000 A 
ATOM      4  C   UNL     1      44.758   4.768  11.636  0.00  0.00    +0.000 A 
ATOM      5  C   UNL     1      45.280   5.866  10.938  0.00  0.00    +0.000 A 
ATOM      6  C   UNL     1      46.450   6.498  11.373  0.00  0.00    +0.000 A 
ENDROOT
BRANCH   1   7
ATOM      7  C   UNL     1      48.395   6.709  12.993  0.00  0.00    +0.000 C 
BRANCH   7   9
ATOM      8  C   UNL     1      48.443   8.892  14.073  0.00  0.00    +0.000 C 
ATOM      9  N   UNL     1      48.274   7.445  14.273  0.00  0.00    +0.000 NA
BRANCH   9  10
ATOM     10  C   UNL     1      49.311   6.942  15.207  0.00  0.00    +0.000 C 
BRANCH  10  11
ATOM     11  C   UNL     1      48.776   6.213  16.423  0.00  0.00    +0.000 A 
ATOM     12  C   UNL     1      48.548   6.890  17.617  0.00  0.00    +0.000 A 
ATOM     13  N   UNL     1      48.060   6.281  18.728  0.00  0.00    +0.000 NA
ATOM     14  C   UNL     1      47.816   4.959  18.599  0.00  0.00    +0.000 A 
ATOM     15  C   UNL     1      48.048   4.274  17.419  0.00  0.00    +0.000 A 
ATOM     16  N   UNL     1      48.527   4.879  16.309  0.00  0.00    +0.000 NA
ENDBRANCH  10  11
ENDBRANCH   9  10
ENDBRANCH   7   9
ENDBRANCH   1   7
BRANCH   4  17
ATOM     17  C   UNL     1      43.507   4.067  11.160  0.00  0.00    +0.000 C 
BRANCH  17  18
ATOM     18  N   UNL     1      43.669   3.615   9.780  0.00  0.00    +0.000 NA
ATOM     19  H   UNL     1      44.186   4.325   9.262  0.00  0.00    +0.000 HD
BRANCH  18  20
ATOM     20  C   UNL     1      44.422   2.359   9.712  0.00  0.00    +0.000 C 
BRANCH  20  21
ATOM     21  C   UNL     1      45.466   2.394   8.608  0.00  0.00    +0.000 A 
ATOM     22  C   UNL     1      45.734   3.585   7.938  0.00  0.00    +0.000 A 
ATOM     23  C   UNL     1      46.715   3.598   6.951  0.00  0.00    +0.000 A 
ATOM     24  C   UNL     1      47.394   2.423   6.653  0.00  0.00    +0.000 A 
ATOM     25  C   UNL     1      47.064   1.279   7.362  0.00  0.00    +0.000 A 
ATOM     26  N   UNL     1      46.120   1.236   8.331  0.00  0.00    +0.000 NA
ENDBRANCH  20  21
ENDBRANCH  18  20
ENDBRANCH  17  18
ENDBRANCH   4  17
TORSDOF 8
ENDMDL
MODEL 3
REMARK VINA RESULT:    -6.909      2.848      9.257
REMARK INTER + INTRA:         -10.972
REMARK INTER:                 -10.272
REMARK INTRA:                  -0.700
REMARK UNBOUND:                -0.832
REMARK  Name = 
REMARK  9 active torsions:
REMARK  status: ('A' for Active; 'I' for Inactive)
REMARK    1  A    between atoms: C_1  and  N_2
REMARK    2  A    between atoms: N_2  and  C_3
REMARK    3  A    between atoms: N_2  and  C_19
REMARK    4  A    between atoms: C_3  and  C_4
REMARK    5  A    between atoms: C_7  and  C_8
REMARK    6  A    between atoms: C_8  and  N_9
REMARK    7  A    between atoms: N_9  and  C_10
REMARK    8  A    between atoms: C_10  and  C_11
REMARK    9  A    between atoms: C_19  and  C_20
REMARK                            x       y       z     vdW  Elec       q    Type
REMARK                         _______ _______ _______ _____ _____    ______ ____
ROOT
ATOM      1  C   UNL     1      45.571   3.179   7.796  0.00  0.00    +0.000 A 
ATOM      2  C   UNL     1      45.309   1.942   8.402  0.00  0.00    +0.000 A 
ATOM      3  C   UNL     1      44.566   1.866   9.580  0.00  0.00    +0.000 A 
ATOM      4  C   UNL     1      44.103   3.030  10.206  0.00  0.00    +0.000 A 
ATOM      5  C   UNL     1      44.380   4.270   9.613  0.00  0.00    +0.000 A 
ATOM      6  C   UNL     1      45.099   4.345   8.416  0.00  0.00    +0.000 A 
ENDROOT
BRANCH   1   7
ATOM      7  C   UNL     1      46.324   3.241   6.484  0.00  0.00    +0.000 C 
BRANCH   7   9
ATOM      8  C   UNL     1      48.183   1.704   6.829  0.00  0.00    +0.000 C 
ATOM      9  N   UNL     1      46.946   1.960   6.076  0.00  0.00    +0.000 NA
BRANCH   9  10
ATOM     10  C   UNL     1      47.244   2.019   4.625  0.00  0.00    +0.000 C 
BRANCH  10  11
ATOM     11  C   UNL     1      46.757   0.830   3.822  0.00  0.00    +0.000 A 
ATOM     12  C   UNL     1      45.696   0.959   2.930  0.00  0.00    +0.000 A 
ATOM     13  N   UNL     1      45.232  -0.074   2.182  0.00  0.00    +0.000 NA
ATOM     14  C   UNL     1      45.869  -1.251   2.369  0.00  0.00    +0.000 A 
ATOM     15  C   UNL     1      46.919  -1.392   3.260  0.00  0.00    +0.000 A 
ATOM     16  N   UNL     1      47.387  -0.363   4.001  0.00  0.00    +0.000 NA
ENDBRANCH  10  11
ENDBRANCH   9  10
ENDBRANCH   7   9
ENDBRANCH   1   7
BRANCH   4  17
ATOM     17  C   UNL     1      43.309   2.941  11.489  0.00  0.00    +0.000 C 
BRANCH  17  18
ATOM     18  N   UNL     1      42.819   4.261  11.878  0.00  0.00    +0.000 NA
ATOM     19  H   UNL     1      41.801   4.241  11.893  0.00  0.00    +0.000 HD
BRANCH  18  20
ATOM     20  C   UNL     1      43.289   4.634  13.217  0.00  0.00    +0.000 C 
BRANCH  20  21
ATOM     21  C   UNL     1      44.709   5.175  13.178  0.00  0.00    +0.000 A 
ATOM     22  C   UNL     1      44.978   6.388  12.550  0.00  0.00    +0.000 A 
ATOM     23  C   UNL     1      46.282   6.875  12.554  0.00  0.00    +0.000 A 
ATOM     24  C   UNL     1      47.282   6.137  13.175  0.00  0.00    +0.000 A 
ATOM     25  C   UNL     1      46.932   4.935  13.773  0.00  0.00    +0.000 A 
ATOM     26  N   UNL     1      45.673   4.439  13.791  0.00  0.00    +0.000 NA
ENDBRANCH  20  21
ENDBRANCH  18  20
ENDBRANCH  17  18
ENDBRANCH   4  17
TORSDOF 8
ENDMDL
MODEL 4
REMARK VINA RESULT:    -6.904      2.640      4.729
REMARK INTER + INTRA:         -10.966
REMARK INTER:                  -9.888
REMARK INTRA:                  -1.078
REMARK UNBOUND:                -0.832
REMARK  Name = 
REMARK  9 active torsions:
REMARK  status: ('A' for Active; 'I' for Inactive)
REMARK    1  A    between atoms: C_1  and  N_2
REMARK    2  A    between atoms: N_2  and  C_3
REMARK    3  A    between atoms: N_2  and  C_19
REMARK    4  A    between atoms: C_3  and  C_4
REMARK    5  A    between atoms: C_7  and  C_8
REMARK    6  A    between atoms: C_8  and  N_9
REMARK    7  A    between atoms: N_9  and  C_10
REMARK    8  A    between atoms: C_10  and  C_11
REMARK    9  A    between atoms: C_19  and  C_20
REMARK                            x       y       z     vdW  Elec       q    Type
REMARK                         _______ _______ _______ _____ _____    ______ ____
ROOT
ATOM      1  C   UNL     1      46.798   5.878  12.795  0.00  0.00    +0.000 A 
ATOM      2  C   UNL     1      46.329   6.176  11.508  0.00  0.00    +0.000 A 
ATOM      3  C   UNL     1      45.276   5.453  10.946  0.00  0.00    +0.000 A 
ATOM      4  C   UNL     1      44.696   4.385  11.641  0.00  0.00    +0.000 A 
ATOM      5  C   UNL     1      45.176   4.071  12.920  0.00  0.00    +0.000 A 
ATOM      6  C   UNL     1      46.211   4.816  13.496  0.00  0.00    +0.000 A 
ENDROOT
BRANCH   1   7
ATOM      7  C   UNL     1      47.899   6.712  13.417  0.00  0.00    +0.000 C 
BRANCH   7   9
ATOM      8  C   UNL     1      49.845   7.788  12.423  0.00  0.00    +0.000 C 
ATOM      9  N   UNL     1      48.382   7.821  12.561  0.00  0.00    +0.000 NA
BRANCH   9  10
ATOM     10  C   UNL     1      47.963   9.106  13.170  0.00  0.00    +0.000 C 
BRANCH  10  11
ATOM     11  C   UNL     1      46.900   9.863  12.400  0.00  0.00    +0.000 A 
ATOM     12  C   UNL     1      47.246  10.899  11.537  0.00  0.00    +0.000 A 
ATOM     13  N   UNL     1      46.331  11.596  10.818  0.00  0.00    +0.000 NA
ATOM     14  C   UNL     1      45.047  11.222  11.004  0.00  0.00    +0.000 A 
ATOM     15  C   UNL     1      44.690  10.199  11.867  0.00  0.00    +0.000 A 
ATOM     16  N   UNL     1      45.601   9.498  12.578  0.00  0.00    +0.000 NA
ENDBRANCH  10  11
ENDBRANCH   9  10
ENDBRANCH   7   9
ENDBRANCH   1   7
BRANCH   4  17
ATOM     17  C   UNL     1      43.564   3.599  11.021  0.00  0.00    +0.000 C 
BRANCH  17  18
ATOM     18  N   UNL     1      43.851   3.314   9.616  0.00  0.00    +0.000 NA
ATOM     19  H   UNL     1      44.450   4.051   9.249  0.00  0.00    +0.000 HD
BRANCH  18  20
ATOM     20  C   UNL     1      44.552   2.034   9.461  0.00  0.00    +0.000 C 
BRANCH  20  21
ATOM     21  C   UNL     1      45.641   2.121   8.405  0.00  0.00    +0.000 A 
ATOM     22  C   UNL     1      45.875   3.321   7.739  0.00  0.00    +0.000 A 
ATOM     23  C   UNL     1      46.898   3.382   6.798  0.00  0.00    +0.000 A 
ATOM     24  C   UNL     1      47.653   2.245   6.540  0.00  0.00    +0.000 A 
ATOM     25  C   UNL     1      47.353   1.088   7.242  0.00  0.00    +0.000 A 
ATOM     26  N   UNL     1      46.369   0.999   8.167  0.00  0.00    +0.000 NA
ENDBRANCH  20  21
ENDBRANCH  18  20
ENDBRANCH  17  18
ENDBRANCH   4  17
TORSDOF 8
ENDMDL
MODEL 5
REMARK VINA RESULT:    -6.734      1.290      1.423
REMARK INTER + INTRA:         -10.715
REMARK INTER:                 -10.005
REMARK INTRA:                  -0.711
REMARK UNBOUND:                -0.832
REMARK  Name = 
REMARK  9 active torsions:
REMARK  status: ('A' for Active; 'I' for Inactive)
REMARK    1  A    between atoms: C_1  and  N_2
REMARK    2  A    between atoms: N_2  and  C_3
REMARK    3  A    between atoms: N_2  and  C_19
REMARK    4  A    between atoms: C_3  and  C_4
REMARK    5  A    between atoms: C_7  and  C_8
REMARK    6  A    between atoms: C_8  and  N_9
REMARK    7  A    between atoms: N_9  and  C_10
REMARK    8  A    between atoms: C_10  and  C_11
REMARK    9  A    between atoms: C_19  and  C_20
REMARK                            x       y       z     vdW  Elec       q    Type
REMARK                         _______ _______ _______ _____ _____    ______ ____
ROOT
ATOM      1  C   UNL     1      46.916   7.442  12.715  0.00  0.00    +0.000 A 
ATOM      2  C   UNL     1      46.835   6.048  12.580  0.00  0.00    +0.000 A 
ATOM      3  C   UNL     1      45.701   5.448  12.035  0.00  0.00    +0.000 A 
ATOM      4  C   UNL     1      44.600   6.223  11.650  0.00  0.00    +0.000 A 
ATOM      5  C   UNL     1      44.669   7.615  11.802  0.00  0.00    +0.000 A 
ATOM      6  C   UNL     1      45.819   8.220  12.321  0.00  0.00    +0.000 A 
ENDROOT
BRANCH   1   7
ATOM      7  C   UNL     1      48.178   8.084  13.250  0.00  0.00    +0.000 C 
BRANCH   7   9
ATOM      8  C   UNL     1      48.786   9.398  15.209  0.00  0.00    +0.000 C 
ATOM      9  N   UNL     1      48.272   8.108  14.729  0.00  0.00    +0.000 NA
BRANCH   9  10
ATOM     10  C   UNL     1      49.173   7.013  15.164  0.00  0.00    +0.000 C 
BRANCH  10  11
ATOM     11  C   UNL     1      48.549   6.007  16.108  0.00  0.00    +0.000 A 
ATOM     12  C   UNL     1      48.508   6.246  17.479  0.00  0.00    +0.000 A 
ATOM     13  N   UNL     1      47.950   5.380  18.362  0.00  0.00    +0.000 NA
ATOM     14  C   UNL     1      47.438   4.254  17.818  0.00  0.00    +0.000 A 
ATOM     15  C   UNL     1      47.482   4.002  16.457  0.00  0.00    +0.000 A 
ATOM     16  N   UNL     1      48.031   4.866  15.575  0.00  0.00    +0.000 NA
ENDBRANCH  10  11
ENDBRANCH   9  10
ENDBRANCH   7   9
ENDBRANCH   1   7
BRANCH   4  17
ATOM     17  C   UNL     1      43.370   5.564  11.070  0.00  0.00    +0.000 C 
BRANCH  17  18
ATOM     18  N   UNL     1      43.673   4.972   9.769  0.00  0.00    +0.000 NA
ATOM     19  H   UNL     1      44.497   5.432   9.385  0.00  0.00    +0.000 HD
BRANCH  18  20
ATOM     20  C   UNL     1      43.962   3.538   9.887  0.00  0.00    +0.000 C 
BRANCH  20  21
ATOM     21  C   UNL     1      45.049   3.108   8.916  0.00  0.00    +0.000 A 
ATOM     22  C   UNL     1      45.675   4.051   8.105  0.00  0.00    +0.000 A 
ATOM     23  C   UNL     1      46.687   3.635   7.245  0.00  0.00    +0.000 A 
ATOM     24  C   UNL     1      47.041   2.292   7.210  0.00  0.00    +0.000 A 
ATOM     25  C   UNL     1      46.365   1.416   8.045  0.00  0.00    +0.000 A 
ATOM     26  N   UNL     1      45.381   1.791   8.896  0.00  0.00    +0.000 NA
ENDBRANCH  20  21
ENDBRANCH  18  20
ENDBRANCH  17  18
ENDBRANCH   4  17
TORSDOF 8
ENDMDL
MODEL 6
REMARK VINA RESULT:    -6.559      1.382      8.422
REMARK INTER + INTRA:         -10.459
REMARK INTER:                  -9.522
REMARK INTRA:                  -0.937
REMARK UNBOUND:                -0.832
REMARK  Name = 
REMARK  9 active torsions:
REMARK  status: ('A' for Active; 'I' for Inactive)
REMARK    1  A    between atoms: C_1  and  N_2
REMARK    2  A    between atoms: N_2  and  C_3
REMARK    3  A    between atoms: N_2  and  C_19
REMARK    4  A    between atoms: C_3  and  C_4
REMARK    5  A    between atoms: C_7  and  C_8
REMARK    6  A    between atoms: C_8  and  N_9
REMARK    7  A    between atoms: N_9  and  C_10
REMARK    8  A    between atoms: C_10  and  C_11
REMARK    9  A    between atoms: C_19  and  C_20
REMARK                            x       y       z     vdW  Elec       q    Type
REMARK                         _______ _______ _______ _____ _____    ______ ____
ROOT
ATOM      1  C   UNL     1      45.964   4.579  12.682  0.00  0.00    +0.000 A 
ATOM      2  C   UNL     1      46.287   5.730  11.950  0.00  0.00    +0.000 A 
ATOM      3  C   UNL     1      47.169   6.680  12.466  0.00  0.00    +0.000 A 
ATOM      4  C   UNL     1      47.716   6.524  13.746  0.00  0.00    +0.000 A 
ATOM      5  C   UNL     1      47.379   5.384  14.488  0.00  0.00    +0.000 A 
ATOM      6  C   UNL     1      46.519   4.415  13.959  0.00  0.00    +0.000 A 
ENDROOT
BRANCH   1   7
ATOM      7  C   UNL     1      45.056   3.525  12.084  0.00  0.00    +0.000 C 
BRANCH   7   9
ATOM      8  C   UNL     1      42.888   4.424  11.429  0.00  0.00    +0.000 C 
ATOM      9  N   UNL     1      44.218   4.008  10.961  0.00  0.00    +0.000 NA
BRANCH   9  10
ATOM     10  C   UNL     1      44.083   2.915   9.968  0.00  0.00    +0.000 C 
BRANCH  10  11
ATOM     11  C   UNL     1      45.159   2.883   8.901  0.00  0.00    +0.000 A 
ATOM     12  C   UNL     1      45.514   4.039   8.212  0.00  0.00    +0.000 A 
ATOM     13  N   UNL     1      46.479   4.061   7.258  0.00  0.00    +0.000 NA
ATOM     14  C   UNL     1      47.072   2.873   7.012  0.00  0.00    +0.000 A 
ATOM     15  C   UNL     1      46.720   1.715   7.685  0.00  0.00    +0.000 A 
ATOM     16  N   UNL     1      45.765   1.692   8.641  0.00  0.00    +0.000 NA
ENDBRANCH  10  11
ENDBRANCH   9  10
ENDBRANCH   7   9
ENDBRANCH   1   7
BRANCH   4  17
ATOM     17  C   UNL     1      48.661   7.564  14.303  0.00  0.00    +0.000 C 
BRANCH  17  18
ATOM     18  N   UNL     1      48.335   7.853  15.697  0.00  0.00    +0.000 NA
ATOM     19  H   UNL     1      47.547   7.272  15.977  0.00  0.00    +0.000 HD
BRANCH  18  20
ATOM     20  C   UNL     1      49.464   7.552  16.585  0.00  0.00    +0.000 C 
BRANCH  20  21
ATOM     21  C   UNL     1      49.270   6.226  17.301  0.00  0.00    +0.000 A 
ATOM     22  C   UNL     1      48.294   6.100  18.287  0.00  0.00    +0.000 A 
ATOM     23  C   UNL     1      48.117   4.867  18.907  0.00  0.00    +0.000 A 
ATOM     24  C   UNL     1      48.921   3.797  18.535  0.00  0.00    +0.000 A 
ATOM     25  C   UNL     1      49.873   4.007  17.549  0.00  0.00    +0.000 A 
ATOM     26  N   UNL     1      50.065   5.191  16.924  0.00  0.00    +0.000 NA
ENDBRANCH  20  21
ENDBRANCH  18  20
ENDBRANCH  17  18
ENDBRANCH   4  17
TORSDOF 8
ENDMDL
MODEL 7
REMARK VINA RESULT:    -6.218      2.909      4.639
REMARK INTER + INTRA:          -9.958
REMARK INTER:                  -9.289
REMARK INTRA:                  -0.670
REMARK UNBOUND:                -0.832
REMARK  Name = 
REMARK  9 active torsions:
REMARK  status: ('A' for Active; 'I' for Inactive)
REMARK    1  A    between atoms: C_1  and  N_2
REMARK    2  A    between atoms: N_2  and  C_3
REMARK    3  A    between atoms: N_2  and  C_19
REMARK    4  A    between atoms: C_3  and  C_4
REMARK    5  A    between atoms: C_7  and  C_8
REMARK    6  A    between atoms: C_8  and  N_9
REMARK    7  A    between atoms: N_9  and  C_10
REMARK    8  A    between atoms: C_10  and  C_11
REMARK    9  A    between atoms: C_19  and  C_20
REMARK                            x       y       z     vdW  Elec       q    Type
REMARK                         _______ _______ _______ _____ _____    ______ ____
ROOT
ATOM      1  C   UNL     1      46.813   6.498  12.754  0.00  0.00    +0.000 A 
ATOM      2  C   UNL     1      46.158   6.605  11.518  0.00  0.00    +0.000 A 
ATOM      3  C   UNL     1      45.288   5.606  11.082  0.00  0.00    +0.000 A 
ATOM      4  C   UNL     1      45.084   4.453  11.851  0.00  0.00    +0.000 A 
ATOM      5  C   UNL     1      45.754   4.333  13.077  0.00  0.00    +0.000 A 
ATOM      6  C   UNL     1      46.603   5.349  13.529  0.00  0.00    +0.000 A 
ENDROOT
BRANCH   1   7
ATOM      7  C   UNL     1      47.705   7.619  13.243  0.00  0.00    +0.000 C 
BRANCH   7   9
ATOM      8  C   UNL     1      50.009   7.678  14.032  0.00  0.00    +0.000 C 
ATOM      9  N   UNL     1      49.132   7.471  12.871  0.00  0.00    +0.000 NA
BRANCH   9  10
ATOM     10  C   UNL     1      49.451   8.463  11.816  0.00  0.00    +0.000 C 
BRANCH  10  11
ATOM     11  C   UNL     1      50.895   8.467  11.358  0.00  0.00    +0.000 A 
ATOM     12  C   UNL     1      51.412   7.409  10.616  0.00  0.00    +0.000 A 
ATOM     13  N   UNL     1      52.695   7.374  10.175  0.00  0.00    +0.000 NA
ATOM     14  C   UNL     1      53.449   8.442  10.515  0.00  0.00    +0.000 A 
ATOM     15  C   UNL     1      52.949   9.496  11.261  0.00  0.00    +0.000 A 
ATOM     16  N   UNL     1      51.669   9.536  11.695  0.00  0.00    +0.000 NA
ENDBRANCH  10  11
ENDBRANCH   9  10
ENDBRANCH   7   9
ENDBRANCH   1   7
BRANCH   4  17
ATOM     17  C   UNL     1      44.149   3.369  11.366  0.00  0.00    +0.000 C 
BRANCH  17  18
ATOM     18  N   UNL     1      44.879   2.387  10.567  0.00  0.00    +0.000 NA
ATOM     19  H   UNL     1      44.710   1.460  10.955  0.00  0.00    +0.000 HD
BRANCH  18  20
ATOM     20  C   UNL     1      44.427   2.388   9.171  0.00  0.00    +0.000 C 
BRANCH  20  21
ATOM     21  C   UNL     1      45.597   2.291   8.207  0.00  0.00    +0.000 A 
ATOM     22  C   UNL     1      45.931   3.377   7.402  0.00  0.00    +0.000 A 
ATOM     23  C   UNL     1      47.025   3.273   6.548  0.00  0.00    +0.000 A 
ATOM     24  C   UNL     1      47.749   2.088   6.513  0.00  0.00    +0.000 A 
ATOM     25  C   UNL     1      47.348   1.051   7.342  0.00  0.00    +0.000 A 
ATOM     26  N   UNL     1      46.293   1.125   8.187  0.00  0.00    +0.000 NA
ENDBRANCH  20  21
ENDBRANCH  18  20
ENDBRANCH  17  18
ENDBRANCH   4  17
TORSDOF 8
ENDMDL
MODEL 8
REMARK VINA RESULT:    -6.213      1.551      2.444
REMARK INTER + INTRA:          -9.952
REMARK INTER:                  -9.658
REMARK INTRA:                  -0.294
REMARK UNBOUND:                -0.832
REMARK  Name = 
REMARK  9 active torsions:
REMARK  status: ('A' for Active; 'I' for Inactive)
REMARK    1  A    between atoms: C_1  and  N_2
REMARK    2  A    between atoms: N_2  and  C_3
REMARK    3  A    between atoms: N_2  and  C_19
REMARK    4  A    between atoms: C_3  and  C_4
REMARK    5  A    between atoms: C_7  and  C_8
REMARK    6  A    between atoms: C_8  and  N_9
REMARK    7  A    between atoms: N_9  and  C_10
REMARK    8  A    between atoms: C_10  and  C_11
REMARK    9  A    between atoms: C_19  and  C_20
REMARK                            x       y       z     vdW  Elec       q    Type
REMARK                         _______ _______ _______ _____ _____    ______ ____
ROOT
ATOM      1  C   UNL     1      47.066   5.921  12.767  0.00  0.00    +0.000 A 
ATOM      2  C   UNL     1      46.685   6.618  11.611  0.00  0.00    +0.000 A 
ATOM      3  C   UNL     1      45.515   6.284  10.930  0.00  0.00    +0.000 A 
ATOM      4  C   UNL     1      44.719   5.216  11.362  0.00  0.00    +0.000 A 
ATOM      5  C   UNL     1      45.108   4.505  12.505  0.00  0.00    +0.000 A 
ATOM      6  C   UNL     1      46.265   4.859  13.207  0.00  0.00    +0.000 A 
ENDROOT
BRANCH   1   7
ATOM      7  C   UNL     1      48.305   6.336  13.533  0.00  0.00    +0.000 C 
BRANCH   7   9
ATOM      8  C   UNL     1      49.788   7.977  12.512  0.00  0.00    +0.000 C 
ATOM      9  N   UNL     1      48.645   7.773  13.413  0.00  0.00    +0.000 NA
BRANCH   9  10
ATOM     10  C   UNL     1      48.968   8.297  14.762  0.00  0.00    +0.000 C 
BRANCH  10  11
ATOM     11  C   UNL     1      49.572   7.284  15.714  0.00  0.00    +0.000 A 
ATOM     12  C   UNL     1      50.949   7.086  15.764  0.00  0.00    +0.000 A 
ATOM     13  N   UNL     1      51.536   6.199  16.607  0.00  0.00    +0.000 NA
ATOM     14  C   UNL     1      50.686   5.507  17.397  0.00  0.00    +0.000 A 
ATOM     15  C   UNL     1      49.314   5.689  17.348  0.00  0.00    +0.000 A 
ATOM     16  N   UNL     1      48.728   6.577  16.515  0.00  0.00    +0.000 NA
ENDBRANCH  10  11
ENDBRANCH   9  10
ENDBRANCH   7   9
ENDBRANCH   1   7
BRANCH   4  17
ATOM     17  C   UNL     1      43.459   4.853  10.611  0.00  0.00    +0.000 C 
BRANCH  17  18
ATOM     18  N   UNL     1      43.785   4.377   9.268  0.00  0.00    +0.000 NA
ATOM     19  H   UNL     1      44.508   4.977   8.875  0.00  0.00    +0.000 HD
BRANCH  18  20
ATOM     20  C   UNL     1      44.296   3.002   9.297  0.00  0.00    +0.000 C 
BRANCH  20  21
ATOM     21  C   UNL     1      45.488   2.832   8.370  0.00  0.00    +0.000 A 
ATOM     22  C   UNL     1      46.102   1.588   8.242  0.00  0.00    +0.000 A 
ATOM     23  C   UNL     1      47.173   1.452   7.365  0.00  0.00    +0.000 A 
ATOM     24  C   UNL     1      47.608   2.558   6.646  0.00  0.00    +0.000 A 
ATOM     25  C   UNL     1      46.946   3.762   6.834  0.00  0.00    +0.000 A 
ATOM     26  N   UNL     1      45.898   3.924   7.675  0.00  0.00    +0.000 NA
ENDBRANCH  20  21
ENDBRANCH  18  20
ENDBRANCH  17  18
ENDBRANCH   4  17
TORSDOF 8
ENDMDL
MODEL 9
REMARK VINA RESULT:    -5.723      2.710      4.023
REMARK INTER + INTRA:          -9.231
REMARK INTER:                  -8.716
REMARK INTRA:                  -0.515
REMARK UNBOUND:                -0.832
REMARK  Name = 
REMARK  9 active torsions:
REMARK  status: ('A' for Active; 'I' for Inactive)
REMARK    1  A    between atoms: C_1  and  N_2
REMARK    2  A    between atoms: N_2  and  C_3
REMARK    3  A    between atoms: N_2  and  C_19
REMARK    4  A    between atoms: C_3  and  C_4
REMARK    5  A    between atoms: C_7  and  C_8
REMARK    6  A    between atoms: C_8  and  N_9
REMARK    7  A    between atoms: N_9  and  C_10
REMARK    8  A    between atoms: C_10  and  C_11
REMARK    9  A    between atoms: C_19  and  C_20
REMARK                            x       y       z     vdW  Elec       q    Type
REMARK                         _______ _______ _______ _____ _____    ______ ____
ROOT
ATOM      1  C   UNL     1      46.742   6.926  13.018  0.00  0.00    +0.000 A 
ATOM      2  C   UNL     1      45.972   7.631  12.082  0.00  0.00    +0.000 A 
ATOM      3  C   UNL     1      45.000   6.981  11.322  0.00  0.00    +0.000 A 
ATOM      4  C   UNL     1      44.803   5.600  11.448  0.00  0.00    +0.000 A 
ATOM      5  C   UNL     1      45.585   4.889  12.368  0.00  0.00    +0.000 A 
ATOM      6  C   UNL     1      46.539   5.546  13.153  0.00  0.00    +0.000 A 
ENDROOT
BRANCH   1   7
ATOM      7  C   UNL     1      47.749   7.657  13.881  0.00  0.00    +0.000 C 
BRANCH   7   9
ATOM      8  C   UNL     1      49.465   7.299  12.189  0.00  0.00    +0.000 C 
ATOM      9  N   UNL     1      48.873   8.262  13.129  0.00  0.00    +0.000 NA
BRANCH   9  10
ATOM     10  C   UNL     1      49.900   8.716  14.098  0.00  0.00    +0.000 C 
BRANCH  10  11
ATOM     11  C   UNL     1      49.534   9.960  14.882  0.00  0.00    +0.000 A 
ATOM     12  C   UNL     1      49.206   9.880  16.232  0.00  0.00    +0.000 A 
ATOM     13  N   UNL     1      48.883  10.967  16.978  0.00  0.00    +0.000 NA
ATOM     14  C   UNL     1      48.891  12.143  16.314  0.00  0.00    +0.000 A 
ATOM     15  C   UNL     1      49.206  12.233  14.968  0.00  0.00    +0.000 A 
ATOM     16  N   UNL     1      49.536  11.153  14.226  0.00  0.00    +0.000 NA
ENDBRANCH  10  11
ENDBRANCH   9  10
ENDBRANCH   7   9
ENDBRANCH   1   7
BRANCH   4  17
ATOM     17  C   UNL     1      43.757   4.900  10.612  0.00  0.00    +0.000 C 
BRANCH  17  18
ATOM     18  N   UNL     1      44.329   4.461   9.341  0.00  0.00    +0.000 NA
ATOM     19  H   UNL     1      45.271   4.841   9.258  0.00  0.00    +0.000 HD
BRANCH  18  20
ATOM     20  C   UNL     1      44.417   2.999   9.269  0.00  0.00    +0.000 C 
BRANCH  20  21
ATOM     21  C   UNL     1      45.552   2.553   8.363  0.00  0.00    +0.000 A 
ATOM     22  C   UNL     1      46.163   3.466   7.507  0.00  0.00    +0.000 A 
ATOM     23  C   UNL     1      47.219   3.039   6.709  0.00  0.00    +0.000 A 
ATOM     24  C   UNL     1      47.633   1.715   6.778  0.00  0.00    +0.000 A 
ATOM     25  C   UNL     1      46.968   0.868   7.653  0.00  0.00    +0.000 A 
ATOM     26  N   UNL     1      45.942   1.254   8.445  0.00  0.00    +0.000 NA
ENDBRANCH  20  21
ENDBRANCH  18  20
ENDBRANCH  17  18
ENDBRANCH   4  17
TORSDOF 8
ENDMDL
