MODEL 1
REMARK VINA RESULT:    -7.471      0.000      0.000
REMARK INTER + INTRA:         -11.029
REMARK INTER:                 -10.092
REMARK INTRA:                  -0.937
REMARK UNBOUND:                -0.937
REMARK  Name = 
REMARK  8 active torsions:
REMARK  status: ('A' for Active; 'I' for Inactive)
REMARK    1  A    between atoms: C_1  and  N_2
REMARK    2  A    between atoms: N_2  and  C_3
REMARK    3  A    between atoms: C_3  and  C_4
REMARK    4  A    between atoms: C_7  and  C_8
REMARK    5  A    between atoms: C_8  and  C_9
REMARK    6  A    between atoms: C_9  and  N_10
REMARK    7  A    between atoms: C_19  and  C_21
REMARK    8  A    between atoms: N_23  and  C_24
REMARK                            x       y       z     vdW  Elec       q    Type
REMARK                         _______ _______ _______ _____ _____    ______ ____
ROOT
ATOM      1  C   UNL     1      47.467   6.308  12.980  0.00  0.00    +0.000 A 
ATOM      2  C   UNL     1      46.942   6.926  11.841  0.00  0.00    +0.000 A 
ATOM      3  C   UNL     1      45.711   6.505  11.341  0.00  0.00    +0.000 A 
ATOM      4  C   UNL     1      45.012   5.480  11.977  0.00  0.00    +0.000 A 
ATOM      5  C   UNL     1      45.616   4.921  13.102  0.00  0.00    +0.000 A 
ATOM      6  N   UNL     1      46.812   5.308  13.621  0.00  0.00    +0.000 NA
ENDROOT
BRANCH   1   7
ATOM      7  C   UNL     1      48.785   6.768  13.564  0.00  0.00    +0.000 C 
BRANCH   7   9
ATOM      8  C   UNL     1      48.124   8.883  14.704  0.00  0.00    +0.000 C 
ATOM      9  N   UNL     1      48.626   7.535  14.806  0.00  0.00    +0.000 N 
ATOM     10  C   UNL     1      49.089   6.944  15.967  0.00  0.00    +0.000 C 
ATOM     11  O   UNL     1      49.554   5.797  15.913  0.00  0.00    +0.000 OA
BRANCH  10  12
ATOM     12  C   UNL     1      48.971   7.587  17.305  0.00  0.00    +0.000 A 
ATOM     13  N   UNL     1      49.967   8.447  17.617  0.00  0.00    +0.000 NA
ATOM     14  N   UNL     1      50.551   7.769  18.616  0.00  0.00    +0.000 N 
ATOM     15  C   UNL     1      51.951   7.448  18.457  0.00  0.00    +0.000 C 
ATOM     16  C   UNL     1      49.609   7.111  19.376  0.00  0.00    +0.000 A 
ATOM     17  C   UNL     1      49.665   6.485  20.610  0.00  0.00    +0.000 A 
ATOM     18  N   UNL     1      48.534   5.943  21.113  0.00  0.00    +0.000 NA
ATOM     19  C   UNL     1      47.400   5.995  20.382  0.00  0.00    +0.000 A 
ATOM     20  C   UNL     1      47.309   6.503  19.089  0.00  0.00    +0.000 A 
ATOM     21  C   UNL     1      48.469   7.082  18.556  0.00  0.00    +0.000 A 
ENDBRANCH  10  12
ENDBRANCH   7   9
ENDBRANCH   1   7
BRANCH   4  22
ATOM     22  C   UNL     1      43.667   4.958  11.527  0.00  0.00    +0.000 C 
BRANCH  22  23
ATOM     23  C   UNL     1      43.712   3.812  10.505  0.00  0.00    +0.000 C 
BRANCH  23  24
ATOM     24  N   UNL     1      44.023   4.303   9.170  0.00  0.00    +0.000 N 
ATOM     25  C   UNL     1      45.019   3.554   8.542  0.00  0.00    +0.000 A 
ATOM     26  N   UNL     1      45.149   2.246   8.814  0.00  0.00    +0.000 NA
ATOM     27  C   UNL     1      46.136   1.581   8.193  0.00  0.00    +0.000 A 
ATOM     28  C   UNL     1      46.995   2.170   7.302  0.00  0.00    +0.000 A 
ATOM     29  C   UNL     1      46.780   3.507   7.082  0.00  0.00    +0.000 A 
ATOM     30  N   UNL     1      45.812   4.223   7.689  0.00  0.00    +0.000 NA
ATOM     31  H   UNL     1      44.331   5.268   9.106  0.00  0.00    +0.000 HD
ENDBRANCH  23  24
ENDBRANCH  22  23
ENDBRANCH   4  22
TORSDOF 6
ENDMDL
MODEL 2
REMARK VINA RESULT:    -7.030      3.546      5.637
REMARK INTER + INTRA:         -10.433
REMARK INTER:                  -9.403
REMARK INTRA:                  -1.030
REMARK UNBOUND:                -0.937
REMARK  Name = 
REMARK  8 active torsions:
REMARK  status: ('A' for Active; 'I' for Inactive)
REMARK    1  A    between atoms: C_1  and  N_2
REMARK    2  A    between atoms: N_2  and  C_3
REMARK    3  A    between atoms: C_3  and  C_4
REMARK    4  A    between atoms: C_7  and  C_8
REMARK    5  A    between atoms: C_8  and  C_9
REMARK    6  A    between atoms: C_9  and  N_10
REMARK    7  A    between atoms: C_19  and  C_21
REMARK    8  A    between atoms: N_23  and  C_24
REMARK                            x       y       z     vdW  Elec       q    Type
REMARK                         _______ _______ _______ _____ _____    ______ ____
ROOT
ATOM      1  C   UNL     1      45.925   6.631  12.488  0.00  0.00    +0.000 A 
ATOM      2  C   UNL     1      45.968   6.429  11.106  0.00  0.00    +0.000 A 
ATOM      3  C   UNL     1      45.374   5.291  10.561  0.00  0.00    +0.000 A 
ATOM      4  C   UNL     1      44.741   4.369  11.392  0.00  0.00    +0.000 A 
ATOM      5  C   UNL     1      44.753   4.651  12.757  0.00  0.00    +0.000 A 
ATOM      6  N   UNL     1      45.317   5.751  13.323  0.00  0.00    +0.000 NA
ENDROOT
BRANCH   1   7
ATOM      7  C   UNL     1      46.532   7.873  13.102  0.00  0.00    +0.000 C 
BRANCH   7   9
ATOM      8  C   UNL     1      48.520   6.985  14.313  0.00  0.00    +0.000 C 
ATOM      9  N   UNL     1      47.991   7.791  13.240  0.00  0.00    +0.000 N 
ATOM     10  C   UNL     1      48.744   8.594  12.403  0.00  0.00    +0.000 C 
ATOM     11  O   UNL     1      48.163   9.288  11.557  0.00  0.00    +0.000 OA
BRANCH  10  12
ATOM     12  C   UNL     1      50.233   8.598  12.408  0.00  0.00    +0.000 A 
ATOM     13  N   UNL     1      50.800   9.542  13.192  0.00  0.00    +0.000 NA
ATOM     14  N   UNL     1      51.360  10.316  12.251  0.00  0.00    +0.000 N 
ATOM     15  C   UNL     1      50.965  11.706  12.226  0.00  0.00    +0.000 C 
ATOM     16  C   UNL     1      51.839   9.550  11.210  0.00  0.00    +0.000 A 
ATOM     17  C   UNL     1      52.675   9.830  10.142  0.00  0.00    +0.000 A 
ATOM     18  N   UNL     1      52.988   8.832   9.286  0.00  0.00    +0.000 NA
ATOM     19  C   UNL     1      52.446   7.610   9.476  0.00  0.00    +0.000 A 
ATOM     20  C   UNL     1      51.509   7.299  10.457  0.00  0.00    +0.000 A 
ATOM     21  C   UNL     1      51.182   8.318  11.363  0.00  0.00    +0.000 A 
ENDBRANCH  10  12
ENDBRANCH   7   9
ENDBRANCH   1   7
BRANCH   4  22
ATOM     22  C   UNL     1      44.055   3.112  10.906  0.00  0.00    +0.000 C 
BRANCH  22  23
ATOM     23  C   UNL     1      44.331   2.734   9.444  0.00  0.00    +0.000 C 
BRANCH  23  24
ATOM     24  N   UNL     1      45.530   1.918   9.322  0.00  0.00    +0.000 N 
ATOM     25  C   UNL     1      46.158   2.068   8.085  0.00  0.00    +0.000 A 
ATOM     26  N   UNL     1      46.084   3.239   7.432  0.00  0.00    +0.000 NA
ATOM     27  C   UNL     1      46.693   3.320   6.238  0.00  0.00    +0.000 A 
ATOM     28  C   UNL     1      47.382   2.278   5.673  0.00  0.00    +0.000 A 
ATOM     29  C   UNL     1      47.410   1.126   6.418  0.00  0.00    +0.000 A 
ATOM     30  N   UNL     1      46.804   0.989   7.614  0.00  0.00    +0.000 NA
ATOM     31  H   UNL     1      45.407   0.917   9.441  0.00  0.00    +0.000 HD
ENDBRANCH  23  24
ENDBRANCH  22  23
ENDBRANCH   4  22
TORSDOF 6
ENDMDL
MODEL 3
REMARK VINA RESULT:    -6.524      1.293      1.789
REMARK INTER + INTRA:          -9.749
REMARK INTER:                  -8.779
REMARK INTRA:                  -0.970
REMARK UNBOUND:                -0.937
REMARK  Name = 
REMARK  8 active torsions:
REMARK  status: ('A' for Active; 'I' for Inactive)
REMARK    1  A    between atoms: C_1  and  N_2
REMARK    2  A    between atoms: N_2  and  C_3
REMARK    3  A    between atoms: C_3  and  C_4
REMARK    4  A    between atoms: C_7  and  C_8
REMARK    5  A    between atoms: C_8  and  C_9
REMARK    6  A    between atoms: C_9  and  N_10
REMARK    7  A    between atoms: C_19  and  C_21
REMARK    8  A    between atoms: N_23  and  C_24
REMARK                            x       y       z     vdW  Elec       q    Type
REMARK                         _______ _______ _______ _____ _____    ______ ____
ROOT
ATOM      1  C   UNL     1      47.320   6.346  13.258  0.00  0.00    +0.000 A 
ATOM      2  C   UNL     1      47.114   5.105  13.867  0.00  0.00    +0.000 A 
ATOM      3  C   UNL     1      45.882   4.469  13.724  0.00  0.00    +0.000 A 
ATOM      4  C   UNL     1      44.871   5.067  12.975  0.00  0.00    +0.000 A 
ATOM      5  C   UNL     1      45.166   6.306  12.409  0.00  0.00    +0.000 A 
ATOM      6  N   UNL     1      46.355   6.954  12.523  0.00  0.00    +0.000 NA
ENDROOT
BRANCH   1   7
ATOM      7  C   UNL     1      48.658   7.043  13.370  0.00  0.00    +0.000 C 
BRANCH   7   9
ATOM      8  C   UNL     1      48.272   9.189  14.576  0.00  0.00    +0.000 C 
ATOM      9  N   UNL     1      48.789   7.842  14.594  0.00  0.00    +0.000 N 
ATOM     10  C   UNL     1      49.510   7.281  15.632  0.00  0.00    +0.000 C 
ATOM     11  O   UNL     1      49.953   6.132  15.501  0.00  0.00    +0.000 OA
BRANCH  10  12
ATOM     12  C   UNL     1      49.703   7.959  16.944  0.00  0.00    +0.000 A 
ATOM     13  N   UNL     1      50.886   7.711  17.547  0.00  0.00    +0.000 NA
ATOM     14  N   UNL     1      50.461   7.009  18.607  0.00  0.00    +0.000 N 
ATOM     15  C   UNL     1      51.002   5.679  18.771  0.00  0.00    +0.000 C 
ATOM     16  C   UNL     1      49.259   7.500  19.068  0.00  0.00    +0.000 A 
ATOM     17  C   UNL     1      48.538   7.287  20.231  0.00  0.00    +0.000 A 
ATOM     18  N   UNL     1      47.377   7.957  20.405  0.00  0.00    +0.000 NA
ATOM     19  C   UNL     1      46.940   8.778  19.426  0.00  0.00    +0.000 A 
ATOM     20  C   UNL     1      47.557   8.941  18.190  0.00  0.00    +0.000 A 
ATOM     21  C   UNL     1      48.770   8.265  17.996  0.00  0.00    +0.000 A 
ENDBRANCH  10  12
ENDBRANCH   7   9
ENDBRANCH   1   7
BRANCH   4  22
ATOM     22  C   UNL     1      43.506   4.459  12.744  0.00  0.00    +0.000 C 
BRANCH  22  23
ATOM     23  C   UNL     1      43.275   3.869  11.345  0.00  0.00    +0.000 C 
BRANCH  23  24
ATOM     24  N   UNL     1      44.274   2.860  11.021  0.00  0.00    +0.000 N 
ATOM     25  C   UNL     1      44.945   3.134   9.828  0.00  0.00    +0.000 A 
ATOM     26  N   UNL     1      45.137   4.405   9.442  0.00  0.00    +0.000 NA
ATOM     27  C   UNL     1      45.774   4.608   8.278  0.00  0.00    +0.000 A 
ATOM     28  C   UNL     1      46.235   3.588   7.486  0.00  0.00    +0.000 A 
ATOM     29  C   UNL     1      45.999   2.325   7.967  0.00  0.00    +0.000 A 
ATOM     30  N   UNL     1      45.354   2.068   9.122  0.00  0.00    +0.000 NA
ATOM     31  H   UNL     1      43.937   1.908  10.927  0.00  0.00    +0.000 HD
ENDBRANCH  23  24
ENDBRANCH  22  23
ENDBRANCH   4  22
TORSDOF 6
ENDMDL
MODEL 4
REMARK VINA RESULT:    -6.450      1.445      2.167
REMARK INTER + INTRA:          -9.649
REMARK INTER:                  -8.985
REMARK INTRA:                  -0.664
REMARK UNBOUND:                -0.937
REMARK  Name = 
REMARK  8 active torsions:
REMARK  status: ('A' for Active; 'I' for Inactive)
REMARK    1  A    between atoms: C_1  and  N_2
REMARK    2  A    between atoms: N_2  and  C_3
REMARK    3  A    between atoms: C_3  and  C_4
REMARK    4  A    between atoms: C_7  and  C_8
REMARK    5  A    between atoms: C_8  and  C_9
REMARK    6  A    between atoms: C_9  and  N_10
REMARK    7  A    between atoms: C_19  and  C_21
REMARK    8  A    between atoms: N_23  and  C_24
REMARK                            x       y       z     vdW  Elec       q    Type
REMARK                         _______ _______ _______ _____ _____    ______ ____
ROOT
ATOM      1  C   UNL     1      48.518   6.978  13.744  0.00  0.00    +0.000 A 
ATOM      2  C   UNL     1      48.085   7.923  12.810  0.00  0.00    +0.000 A 
ATOM      3  C   UNL     1      46.935   7.670  12.064  0.00  0.00    +0.000 A 
ATOM      4  C   UNL     1      46.226   6.486  12.254  0.00  0.00    +0.000 A 
ATOM      5  C   UNL     1      46.736   5.601  13.203  0.00  0.00    +0.000 A 
ATOM      6  N   UNL     1      47.850   5.816  13.952  0.00  0.00    +0.000 NA
ENDROOT
BRANCH   1   7
ATOM      7  C   UNL     1      49.743   7.242  14.591  0.00  0.00    +0.000 C 
BRANCH   7   9
ATOM      8  C   UNL     1      48.526   8.339  16.469  0.00  0.00    +0.000 C 
ATOM      9  N   UNL     1      49.443   7.318  16.027  0.00  0.00    +0.000 N 
ATOM     10  C   UNL     1      50.162   6.480  16.859  0.00  0.00    +0.000 C 
ATOM     11  O   UNL     1      50.968   5.683  16.358  0.00  0.00    +0.000 OA
BRANCH  10  12
ATOM     12  C   UNL     1      49.948   6.424  18.332  0.00  0.00    +0.000 A 
ATOM     13  N   UNL     1      49.267   5.342  18.771  0.00  0.00    +0.000 NA
ATOM     14  N   UNL     1      48.142   5.936  19.195  0.00  0.00    +0.000 N 
ATOM     15  C   UNL     1      46.902   5.489  18.602  0.00  0.00    +0.000 C 
ATOM     16  C   UNL     1      48.421   7.161  19.762  0.00  0.00    +0.000 A 
ATOM     17  C   UNL     1      47.671   8.036  20.529  0.00  0.00    +0.000 A 
ATOM     18  N   UNL     1      48.253   9.174  20.968  0.00  0.00    +0.000 NA
ATOM     19  C   UNL     1      49.528   9.439  20.612  0.00  0.00    +0.000 A 
ATOM     20  C   UNL     1      50.291   8.660  19.748  0.00  0.00    +0.000 A 
ATOM     21  C   UNL     1      49.709   7.467  19.294  0.00  0.00    +0.000 A 
ENDBRANCH  10  12
ENDBRANCH   7   9
ENDBRANCH   1   7
BRANCH   4  22
ATOM     22  C   UNL     1      44.962   6.118  11.510  0.00  0.00    +0.000 C 
BRANCH  22  23
ATOM     23  C   UNL     1      45.024   4.807  10.713  0.00  0.00    +0.000 C 
BRANCH  23  24
ATOM     24  N   UNL     1      45.129   5.058   9.283  0.00  0.00    +0.000 N 
ATOM     25  C   UNL     1      45.670   3.976   8.587  0.00  0.00    +0.000 A 
ATOM     26  N   UNL     1      45.465   2.724   9.026  0.00  0.00    +0.000 NA
ATOM     27  C   UNL     1      46.022   1.724   8.326  0.00  0.00    +0.000 A 
ATOM     28  C   UNL     1      46.773   1.925   7.196  0.00  0.00    +0.000 A 
ATOM     29  C   UNL     1      46.920   3.236   6.820  0.00  0.00    +0.000 A 
ATOM     30  N   UNL     1      46.392   4.276   7.495  0.00  0.00    +0.000 NA
ATOM     31  H   UNL     1      45.687   5.860   9.007  0.00  0.00    +0.000 HD
ENDBRANCH  23  24
ENDBRANCH  22  23
ENDBRANCH   4  22
TORSDOF 6
ENDMDL
MODEL 5
REMARK VINA RESULT:    -6.436      4.296      8.667
REMARK INTER + INTRA:          -9.630
REMARK INTER:                  -8.734
REMARK INTRA:                  -0.896
REMARK UNBOUND:                -0.937
REMARK  Name = 
REMARK  8 active torsions:
REMARK  status: ('A' for Active; 'I' for Inactive)
REMARK    1  A    between atoms: C_1  and  N_2
REMARK    2  A    between atoms: N_2  and  C_3
REMARK    3  A    between atoms: C_3  and  C_4
REMARK    4  A    between atoms: C_7  and  C_8
REMARK    5  A    between atoms: C_8  and  C_9
REMARK    6  A    between atoms: C_9  and  N_10
REMARK    7  A    between atoms: C_19  and  C_21
REMARK    8  A    between atoms: N_23  and  C_24
REMARK                            x       y       z     vdW  Elec       q    Type
REMARK                         _______ _______ _______ _____ _____    ______ ____
ROOT
ATOM      1  C   UNL     1      47.827   8.230  12.668  0.00  0.00    +0.000 A 
ATOM      2  C   UNL     1      48.048   9.601  12.512  0.00  0.00    +0.000 A 
ATOM      3  C   UNL     1      49.286  10.047  12.050  0.00  0.00    +0.000 A 
ATOM      4  C   UNL     1      50.288   9.129  11.744  0.00  0.00    +0.000 A 
ATOM      5  C   UNL     1      49.979   7.783  11.936  0.00  0.00    +0.000 A 
ATOM      6  N   UNL     1      48.784   7.312  12.379  0.00  0.00    +0.000 NA
ENDROOT
BRANCH   1   7
ATOM      7  C   UNL     1      46.483   7.717  13.135  0.00  0.00    +0.000 C 
BRANCH   7   9
ATOM      8  C   UNL     1      44.865   8.296  11.331  0.00  0.00    +0.000 C 
ATOM      9  N   UNL     1      45.618   7.284  12.030  0.00  0.00    +0.000 N 
ATOM     10  C   UNL     1      45.499   5.922  11.828  0.00  0.00    +0.000 C 
ATOM     11  O   UNL     1      46.158   5.150  12.538  0.00  0.00    +0.000 OA
BRANCH  10  12
ATOM     12  C   UNL     1      44.681   5.335  10.730  0.00  0.00    +0.000 A 
ATOM     13  N   UNL     1      43.460   4.890  11.101  0.00  0.00    +0.000 NA
ATOM     14  N   UNL     1      43.631   3.572  10.920  0.00  0.00    +0.000 N 
ATOM     15  C   UNL     1      43.416   2.721  12.067  0.00  0.00    +0.000 C 
ATOM     16  C   UNL     1      44.422   3.330   9.818  0.00  0.00    +0.000 A 
ATOM     17  C   UNL     1      44.700   2.183   9.093  0.00  0.00    +0.000 A 
ATOM     18  N   UNL     1      45.515   2.279   8.018  0.00  0.00    +0.000 NA
ATOM     19  C   UNL     1      46.059   3.476   7.711  0.00  0.00    +0.000 A 
ATOM     20  C   UNL     1      45.913   4.634   8.469  0.00  0.00    +0.000 A 
ATOM     21  C   UNL     1      45.061   4.558   9.580  0.00  0.00    +0.000 A 
ENDBRANCH  10  12
ENDBRANCH   7   9
ENDBRANCH   1   7
BRANCH   4  22
ATOM     22  C   UNL     1      51.658   9.502  11.225  0.00  0.00    +0.000 C 
BRANCH  22  23
ATOM     23  C   UNL     1      52.056   8.856   9.889  0.00  0.00    +0.000 C 
BRANCH  23  24
ATOM     24  N   UNL     1      53.394   8.287   9.952  0.00  0.00    +0.000 N 
ATOM     25  C   UNL     1      53.542   7.172   9.125  0.00  0.00    +0.000 A 
ATOM     26  N   UNL     1      52.835   7.080   7.988  0.00  0.00    +0.000 NA
ATOM     27  C   UNL     1      53.006   5.978   7.241  0.00  0.00    +0.000 A 
ATOM     28  C   UNL     1      53.862   4.964   7.583  0.00  0.00    +0.000 A 
ATOM     29  C   UNL     1      54.546   5.150   8.758  0.00  0.00    +0.000 A 
ATOM     30  N   UNL     1      54.402   6.232   9.549  0.00  0.00    +0.000 NA
ATOM     31  H   UNL     1      53.713   7.987  10.867  0.00  0.00    +0.000 HD
ENDBRANCH  23  24
ENDBRANCH  22  23
ENDBRANCH   4  22
TORSDOF 6
ENDMDL
MODEL 6
REMARK VINA RESULT:    -6.293      2.161      8.548
REMARK INTER + INTRA:          -9.437
REMARK INTER:                  -8.498
REMARK INTRA:                  -0.938
REMARK UNBOUND:                -0.937
REMARK  Name = 
REMARK  8 active torsions:
REMARK  status: ('A' for Active; 'I' for Inactive)
REMARK    1  A    between atoms: C_1  and  N_2
REMARK    2  A    between atoms: N_2  and  C_3
REMARK    3  A    between atoms: C_3  and  C_4
REMARK    4  A    between atoms: C_7  and  C_8
REMARK    5  A    between atoms: C_8  and  C_9
REMARK    6  A    between atoms: C_9  and  N_10
REMARK    7  A    between atoms: C_19  and  C_21
REMARK    8  A    between atoms: N_23  and  C_24
REMARK                            x       y       z     vdW  Elec       q    Type
REMARK                         _______ _______ _______ _____ _____    ______ ____
ROOT
ATOM      1  C   UNL     1      49.195   7.795  14.513  0.00  0.00    +0.000 A 
ATOM      2  C   UNL     1      49.962   7.033  15.399  0.00  0.00    +0.000 A 
ATOM      3  C   UNL     1      49.775   7.187  16.771  0.00  0.00    +0.000 A 
ATOM      4  C   UNL     1      48.829   8.090  17.250  0.00  0.00    +0.000 A 
ATOM      5  C   UNL     1      48.115   8.809  16.293  0.00  0.00    +0.000 A 
ATOM      6  N   UNL     1      48.266   8.683  14.948  0.00  0.00    +0.000 NA
ENDROOT
BRANCH   1   7
ATOM      7  C   UNL     1      49.353   7.623  13.018  0.00  0.00    +0.000 C 
BRANCH   7   9
ATOM      8  C   UNL     1      47.659   8.943  11.754  0.00  0.00    +0.000 C 
ATOM      9  N   UNL     1      48.075   7.673  12.296  0.00  0.00    +0.000 N 
ATOM     10  C   UNL     1      47.311   6.521  12.300  0.00  0.00    +0.000 C 
ATOM     11  O   UNL     1      47.757   5.507  12.853  0.00  0.00    +0.000 OA
BRANCH  10  12
ATOM     12  C   UNL     1      46.008   6.412  11.588  0.00  0.00    +0.000 A 
ATOM     13  N   UNL     1      44.914   6.542  12.371  0.00  0.00    +0.000 NA
ATOM     14  N   UNL     1      44.424   5.297  12.291  0.00  0.00    +0.000 N 
ATOM     15  C   UNL     1      44.253   4.580  13.533  0.00  0.00    +0.000 C 
ATOM     16  C   UNL     1      44.616   4.777  11.029  0.00  0.00    +0.000 A 
ATOM     17  C   UNL     1      44.110   3.662  10.383  0.00  0.00    +0.000 A 
ATOM     18  N   UNL     1      44.478   3.433   9.103  0.00  0.00    +0.000 NA
ATOM     19  C   UNL     1      45.353   4.273   8.511  0.00  0.00    +0.000 A 
ATOM     20  C   UNL     1      45.986   5.338   9.145  0.00  0.00    +0.000 A 
ATOM     21  C   UNL     1      45.606   5.600  10.469  0.00  0.00    +0.000 A 
ENDBRANCH  10  12
ENDBRANCH   7   9
ENDBRANCH   1   7
BRANCH   4  22
ATOM     22  C   UNL     1      48.537   8.324  18.715  0.00  0.00    +0.000 C 
BRANCH  22  23
ATOM     23  C   UNL     1      48.483   7.061  19.587  0.00  0.00    +0.000 C 
BRANCH  23  24
ATOM     24  N   UNL     1      47.343   6.224  19.242  0.00  0.00    +0.000 N 
ATOM     25  C   UNL     1      47.718   5.053  18.582  0.00  0.00    +0.000 A 
ATOM     26  N   UNL     1      48.903   4.482  18.848  0.00  0.00    +0.000 NA
ATOM     27  C   UNL     1      49.217   3.366  18.171  0.00  0.00    +0.000 A 
ATOM     28  C   UNL     1      48.389   2.793  17.241  0.00  0.00    +0.000 A 
ATOM     29  C   UNL     1      47.197   3.444  17.042  0.00  0.00    +0.000 A 
ATOM     30  N   UNL     1      46.840   4.572  17.687  0.00  0.00    +0.000 NA
ATOM     31  H   UNL     1      46.635   6.650  18.652  0.00  0.00    +0.000 HD
ENDBRANCH  23  24
ENDBRANCH  22  23
ENDBRANCH   4  22
TORSDOF 6
ENDMDL
MODEL 7
REMARK VINA RESULT:    -6.139      2.060      3.107
REMARK INTER + INTRA:          -9.229
REMARK INTER:                  -8.461
REMARK INTRA:                  -0.769
REMARK UNBOUND:                -0.937
REMARK  Name = 
REMARK  8 active torsions:
REMARK  status: ('A' for Active; 'I' for Inactive)
REMARK    1  A    between atoms: C_1  and  N_2
REMARK    2  A    between atoms: N_2  and  C_3
REMARK    3  A    between atoms: C_3  and  C_4
REMARK    4  A    between atoms: C_7  and  C_8
REMARK    5  A    between atoms: C_8  and  C_9
REMARK    6  A    between atoms: C_9  and  N_10
REMARK    7  A    between atoms: C_19  and  C_21
REMARK    8  A    between atoms: N_23  and  C_24
REMARK                            x       y       z     vdW  Elec       q    Type
REMARK                         _______ _______ _______ _____ _____    ______ ____
ROOT
ATOM      1  C   UNL     1      47.733   4.382  15.530  0.00  0.00    +0.000 A 
ATOM      2  C   UNL     1      46.866   3.713  14.662  0.00  0.00    +0.000 A 
ATOM      3  C   UNL     1      46.480   4.327  13.471  0.00  0.00    +0.000 A 
ATOM      4  C   UNL     1      46.962   5.595  13.153  0.00  0.00    +0.000 A 
ATOM      5  C   UNL     1      47.817   6.187  14.081  0.00  0.00    +0.000 A 
ATOM      6  N   UNL     1      48.218   5.618  15.248  0.00  0.00    +0.000 NA
ENDROOT
BRANCH   1   7
ATOM      7  C   UNL     1      48.194   3.725  16.812  0.00  0.00    +0.000 C 
BRANCH   7   9
ATOM      8  C   UNL     1      47.159   5.281  18.460  0.00  0.00    +0.000 C 
ATOM      9  N   UNL     1      48.351   4.676  17.920  0.00  0.00    +0.000 N 
ATOM     10  C   UNL     1      49.644   5.010  18.277  0.00  0.00    +0.000 C 
ATOM     11  O   UNL     1      50.589   4.460  17.693  0.00  0.00    +0.000 OA
BRANCH  10  12
ATOM     12  C   UNL     1      49.961   5.937  19.398  0.00  0.00    +0.000 A 
ATOM     13  N   UNL     1      49.937   7.251  19.079  0.00  0.00    +0.000 NA
ATOM     14  N   UNL     1      51.239   7.543  19.212  0.00  0.00    +0.000 N 
ATOM     15  C   UNL     1      51.910   8.086  18.053  0.00  0.00    +0.000 C 
ATOM     16  C   UNL     1      51.792   6.843  20.263  0.00  0.00    +0.000 A 
ATOM     17  C   UNL     1      52.995   6.954  20.939  0.00  0.00    +0.000 A 
ATOM     18  N   UNL     1      53.237   6.116  21.972  0.00  0.00    +0.000 NA
ATOM     19  C   UNL     1      52.319   5.177  22.284  0.00  0.00    +0.000 A 
ATOM     20  C   UNL     1      51.149   4.940  21.569  0.00  0.00    +0.000 A 
ATOM     21  C   UNL     1      50.874   5.808  20.503  0.00  0.00    +0.000 A 
ENDBRANCH  10  12
ENDBRANCH   7   9
ENDBRANCH   1   7
BRANCH   4  22
ATOM     22  C   UNL     1      46.619   6.345  11.885  0.00  0.00    +0.000 C 
BRANCH  22  23
ATOM     23  C   UNL     1      45.245   6.023  11.280  0.00  0.00    +0.000 C 
BRANCH  23  24
ATOM     24  N   UNL     1      45.296   6.003   9.825  0.00  0.00    +0.000 N 
ATOM     25  C   UNL     1      45.421   4.712   9.311  0.00  0.00    +0.000 A 
ATOM     26  N   UNL     1      44.886   3.672   9.969  0.00  0.00    +0.000 NA
ATOM     27  C   UNL     1      45.052   2.451   9.436  0.00  0.00    +0.000 A 
ATOM     28  C   UNL     1      45.726   2.228   8.263  0.00  0.00    +0.000 A 
ATOM     29  C   UNL     1      46.230   3.352   7.658  0.00  0.00    +0.000 A 
ATOM     30  N   UNL     1      46.101   4.597   8.159  0.00  0.00    +0.000 NA
ATOM     31  H   UNL     1      46.044   6.537   9.394  0.00  0.00    +0.000 HD
ENDBRANCH  23  24
ENDBRANCH  22  23
ENDBRANCH   4  22
TORSDOF 6
ENDMDL
MODEL 8
REMARK VINA RESULT:    -5.849      5.432      9.733
REMARK INTER + INTRA:          -8.838
REMARK INTER:                  -8.892
REMARK INTRA:                   0.054
REMARK UNBOUND:                -0.937
REMARK  Name = 
REMARK  8 active torsions:
REMARK  status: ('A' for Active; 'I' for Inactive)
REMARK    1  A    between atoms: C_1  and  N_2
REMARK    2  A    between atoms: N_2  and  C_3
REMARK    3  A    between atoms: C_3  and  C_4
REMARK    4  A    between atoms: C_7  and  C_8
REMARK    5  A    between atoms: C_8  and  C_9
REMARK    6  A    between atoms: C_9  and  N_10
REMARK    7  A    between atoms: C_19  and  C_21
REMARK    8  A    between atoms: N_23  and  C_24
REMARK                            x       y       z     vdW  Elec       q    Type
REMARK                         _______ _______ _______ _____ _____    ______ ____
ROOT
ATOM      1  C   UNL     1      49.440   4.524  17.125  0.00  0.00    +0.000 A 
ATOM      2  C   UNL     1      49.490   3.128  17.085  0.00  0.00    +0.000 A 
ATOM      3  C   UNL     1      50.680   2.477  17.405  0.00  0.00    +0.000 A 
ATOM      4  C   UNL     1      51.806   3.216  17.764  0.00  0.00    +0.000 A 
ATOM      5  C   UNL     1      51.663   4.602  17.770  0.00  0.00    +0.000 A 
ATOM      6  N   UNL     1      50.519   5.272  17.469  0.00  0.00    +0.000 NA
ENDROOT
BRANCH   1   7
ATOM      7  C   UNL     1      48.152   5.255  16.815  0.00  0.00    +0.000 C 
BRANCH   7   9
ATOM      8  C   UNL     1      48.700   6.605  14.794  0.00  0.00    +0.000 C 
ATOM      9  N   UNL     1      47.967   5.510  15.381  0.00  0.00    +0.000 N 
ATOM     10  C   UNL     1      47.008   4.756  14.732  0.00  0.00    +0.000 C 
ATOM     11  O   UNL     1      46.402   3.881  15.366  0.00  0.00    +0.000 OA
BRANCH  10  12
ATOM     12  C   UNL     1      46.727   4.883  13.275  0.00  0.00    +0.000 A 
ATOM     13  N   UNL     1      47.116   6.050  12.716  0.00  0.00    +0.000 NA
ATOM     14  N   UNL     1      45.918   6.574  12.421  0.00  0.00    +0.000 N 
ATOM     15  C   UNL     1      45.609   7.865  12.992  0.00  0.00    +0.000 C 
ATOM     16  C   UNL     1      45.040   5.590  12.020  0.00  0.00    +0.000 A 
ATOM     17  C   UNL     1      43.798   5.627  11.410  0.00  0.00    +0.000 A 
ATOM     18  N   UNL     1      43.187   4.459  11.112  0.00  0.00    +0.000 NA
ATOM     19  C   UNL     1      43.788   3.299  11.453  0.00  0.00    +0.000 A 
ATOM     20  C   UNL     1      44.975   3.199  12.172  0.00  0.00    +0.000 A 
ATOM     21  C   UNL     1      45.631   4.400  12.477  0.00  0.00    +0.000 A 
ENDBRANCH  10  12
ENDBRANCH   7   9
ENDBRANCH   1   7
BRANCH   4  22
ATOM     22  C   UNL     1      53.139   2.611  18.142  0.00  0.00    +0.000 C 
BRANCH  22  23
ATOM     23  C   UNL     1      53.337   1.143  17.735  0.00  0.00    +0.000 C 
BRANCH  23  24
ATOM     24  N   UNL     1      53.713   0.321  18.876  0.00  0.00    +0.000 N 
ATOM     25  C   UNL     1      54.085  -0.972  18.506  0.00  0.00    +0.000 A 
ATOM     26  N   UNL     1      54.662  -1.190  17.314  0.00  0.00    +0.000 NA
ATOM     27  C   UNL     1      54.984  -2.456  17.005  0.00  0.00    +0.000 A 
ATOM     28  C   UNL     1      54.758  -3.515  17.846  0.00  0.00    +0.000 A 
ATOM     29  C   UNL     1      54.171  -3.194  19.044  0.00  0.00    +0.000 A 
ATOM     30  N   UNL     1      53.818  -1.942  19.396  0.00  0.00    +0.000 NA
ATOM     31  H   UNL     1      53.007   0.202  19.596  0.00  0.00    +0.000 HD
ENDBRANCH  23  24
ENDBRANCH  22  23
ENDBRANCH   4  22
TORSDOF 6
ENDMDL
