MODEL 1
REMARK VINA RESULT:    -7.428      0.000      0.000
REMARK INTER + INTRA:          -9.763
REMARK INTER:                  -9.165
REMARK INTRA:                  -0.598
REMARK UNBOUND:                -0.598
REMARK  Name = 
REMARK  4 active torsions:
REMARK  status: ('A' for Active; 'I' for Inactive)
REMARK    1  A    between atoms: C_4  and  O_5
REMARK    2  A    between atoms: O_5  and  C_6
REMARK    3  A    between atoms: C_6  and  C_7
REMARK    4  A    between atoms: C_11  and  N_12
REMARK                            x       y       z     vdW  Elec       q    Type
REMARK                         _______ _______ _______ _____ _____    ______ ____
ROOT
ATOM      1  C   UNL     1      44.742   3.991  10.896  0.00  0.00    +0.000 A 
ATOM      2  C   UNL     1      44.465   3.411  12.129  0.00  0.00    +0.000 A 
ATOM      3  N   UNL     1      44.773   3.976  13.312  0.00  0.00    +0.000 NA
ATOM      4  C   UNL     1      45.386   5.182  13.252  0.00  0.00    +0.000 A 
ATOM      5  C   UNL     1      45.728   5.872  12.082  0.00  0.00    +0.000 A 
ATOM      6  C   UNL     1      45.410   5.226  10.886  0.00  0.00    +0.000 A 
ENDROOT
BRANCH   5   7
ATOM      7  N   UNL     1      46.343   7.120  12.159  0.00  0.00    +0.000 N 
ATOM      8  C   UNL     1      45.666   8.244  12.810  0.00  0.00    +0.000 C 
ATOM      9  C   UNL     1      46.230   9.541  12.220  0.00  0.00    +0.000 C 
ATOM     10  C   UNL     1      47.758   9.602  12.312  0.00  0.00    +0.000 C 
ATOM     11  C   UNL     1      48.408   8.331  11.764  0.00  0.00    +0.000 C 
ATOM     12  C   UNL     1      47.794   7.082  12.390  0.00  0.00    +0.000 C 
ENDBRANCH   5   7
BRANCH   1  13
ATOM     13  C   UNL     1      44.287   3.328   9.625  0.00  0.00    +0.000 C 
BRANCH  13  14
ATOM     14  O   UNL     1      44.943   2.071   9.461  0.00  0.00    +0.000 OA
BRANCH  14  18
ATOM     15  C   UNL     1      47.401   2.139   6.160  0.00  0.00    +0.000 A 
ATOM     16  C   UNL     1      46.659   3.269   6.491  0.00  0.00    +0.000 A 
ATOM     17  C   UNL     1      45.829   3.239   7.609  0.00  0.00    +0.000 A 
ATOM     18  C   UNL     1      45.776   2.073   8.357  0.00  0.00    +0.000 A 
ATOM     19  N   UNL     1      46.488   0.964   8.057  0.00  0.00    +0.000 NA
ATOM     20  C   UNL     1      47.283   1.022   6.968  0.00  0.00    +0.000 A 
ENDBRANCH  14  18
ENDBRANCH  13  14
ENDBRANCH   1  13
TORSDOF 4
ENDMDL
MODEL 2
REMARK VINA RESULT:    -6.911      1.461      1.934
REMARK INTER + INTRA:          -9.125
REMARK INTER:                  -8.466
REMARK INTRA:                  -0.659
REMARK UNBOUND:                -0.598
REMARK  Name = 
REMARK  4 active torsions:
REMARK  status: ('A' for Active; 'I' for Inactive)
REMARK    1  A    between atoms: C_4  and  O_5
REMARK    2  A    between atoms: O_5  and  C_6
REMARK    3  A    between atoms: C_6  and  C_7
REMARK    4  A    between atoms: C_11  and  N_12
REMARK                            x       y       z     vdW  Elec       q    Type
REMARK                         _______ _______ _______ _____ _____    ______ ____
ROOT
ATOM      1  C   UNL     1      44.905   4.816  11.417  0.00  0.00    +0.000 A 
ATOM      2  C   UNL     1      44.838   3.878  12.442  0.00  0.00    +0.000 A 
ATOM      3  N   UNL     1      45.607   3.915  13.546  0.00  0.00    +0.000 NA
ATOM      4  C   UNL     1      46.483   4.945  13.626  0.00  0.00    +0.000 A 
ATOM      5  C   UNL     1      46.657   5.951  12.668  0.00  0.00    +0.000 A 
ATOM      6  C   UNL     1      45.853   5.846  11.531  0.00  0.00    +0.000 A 
ENDROOT
BRANCH   5   7
ATOM      7  N   UNL     1      47.584   6.969  12.881  0.00  0.00    +0.000 N 
ATOM      8  C   UNL     1      48.437   6.960  14.071  0.00  0.00    +0.000 C 
ATOM      9  C   UNL     1      48.854   8.405  14.365  0.00  0.00    +0.000 C 
ATOM     10  C   UNL     1      49.495   9.081  13.149  0.00  0.00    +0.000 C 
ATOM     11  C   UNL     1      48.635   8.921  11.895  0.00  0.00    +0.000 C 
ATOM     12  C   UNL     1      48.254   7.460  11.669  0.00  0.00    +0.000 C 
ENDBRANCH   5   7
BRANCH   1  13
ATOM     13  C   UNL     1      43.949   4.746  10.259  0.00  0.00    +0.000 C 
BRANCH  13  14
ATOM     14  O   UNL     1      43.873   3.410   9.761  0.00  0.00    +0.000 OA
BRANCH  14  18
ATOM     15  C   UNL     1      46.905   2.558   7.110  0.00  0.00    +0.000 A 
ATOM     16  C   UNL     1      46.431   1.563   7.959  0.00  0.00    +0.000 A 
ATOM     17  C   UNL     1      45.405   1.858   8.853  0.00  0.00    +0.000 A 
ATOM     18  C   UNL     1      44.890   3.145   8.862  0.00  0.00    +0.000 A 
ATOM     19  N   UNL     1      45.332   4.128   8.046  0.00  0.00    +0.000 NA
ATOM     20  C   UNL     1      46.327   3.813   7.191  0.00  0.00    +0.000 A 
ENDBRANCH  14  18
ENDBRANCH  13  14
ENDBRANCH   1  13
TORSDOF 4
ENDMDL
MODEL 3
REMARK VINA RESULT:    -6.905      1.796      6.370
REMARK INTER + INTRA:          -9.117
REMARK INTER:                  -8.352
REMARK INTRA:                  -0.765
REMARK UNBOUND:                -0.598
REMARK  Name = 
REMARK  4 active torsions:
REMARK  status: ('A' for Active; 'I' for Inactive)
REMARK    1  A    between atoms: C_4  and  O_5
REMARK    2  A    between atoms: O_5  and  C_6
REMARK    3  A    between atoms: C_6  and  C_7
REMARK    4  A    between atoms: C_11  and  N_12
REMARK                            x       y       z     vdW  Elec       q    Type
REMARK                         _______ _______ _______ _____ _____    ______ ____
ROOT
ATOM      1  C   UNL     1      43.798   4.905  11.034  0.00  0.00    +0.000 A 
ATOM      2  C   UNL     1      43.137   3.896  11.727  0.00  0.00    +0.000 A 
ATOM      3  N   UNL     1      43.233   2.588  11.423  0.00  0.00    +0.000 NA
ATOM      4  C   UNL     1      44.032   2.280  10.373  0.00  0.00    +0.000 A 
ATOM      5  C   UNL     1      44.746   3.194   9.588  0.00  0.00    +0.000 A 
ATOM      6  C   UNL     1      44.587   4.537   9.933  0.00  0.00    +0.000 A 
ENDROOT
BRANCH   5   7
ATOM      7  N   UNL     1      45.550   2.742   8.544  0.00  0.00    +0.000 N 
ATOM      8  C   UNL     1      45.761   1.308   8.335  0.00  0.00    +0.000 C 
ATOM      9  C   UNL     1      47.094   1.128   7.600  0.00  0.00    +0.000 C 
ATOM     10  C   UNL     1      47.162   1.958   6.315  0.00  0.00    +0.000 C 
ATOM     11  C   UNL     1      46.777   3.416   6.562  0.00  0.00    +0.000 C 
ATOM     12  C   UNL     1      45.445   3.518   7.301  0.00  0.00    +0.000 C 
ENDBRANCH   5   7
BRANCH   1  13
ATOM     13  C   UNL     1      43.700   6.333  11.496  0.00  0.00    +0.000 C 
BRANCH  13  14
ATOM     14  O   UNL     1      44.281   6.475  12.792  0.00  0.00    +0.000 OA
BRANCH  14  18
ATOM     15  C   UNL     1      48.362   6.982  12.607  0.00  0.00    +0.000 A 
ATOM     16  C   UNL     1      47.834   5.851  13.224  0.00  0.00    +0.000 A 
ATOM     17  C   UNL     1      46.453   5.686  13.282  0.00  0.00    +0.000 A 
ATOM     18  C   UNL     1      45.649   6.664  12.718  0.00  0.00    +0.000 A 
ATOM     19  N   UNL     1      46.136   7.770  12.113  0.00  0.00    +0.000 NA
ATOM     20  C   UNL     1      47.479   7.903  12.072  0.00  0.00    +0.000 A 
ENDBRANCH  14  18
ENDBRANCH  13  14
ENDBRANCH   1  13
TORSDOF 4
ENDMDL
MODEL 4
REMARK VINA RESULT:    -6.703      1.563      2.050
REMARK INTER + INTRA:          -8.868
REMARK INTER:                  -8.170
REMARK INTRA:                  -0.698
REMARK UNBOUND:                -0.598
REMARK  Name = 
REMARK  4 active torsions:
REMARK  status: ('A' for Active; 'I' for Inactive)
REMARK    1  A    between atoms: C_4  and  O_5
REMARK    2  A    between atoms: O_5  and  C_6
REMARK    3  A    between atoms: C_6  and  C_7
REMARK    4  A    between atoms: C_11  and  N_12
REMARK                            x       y       z     vdW  Elec       q    Type
REMARK                         _______ _______ _______ _____ _____    ______ ____
ROOT
ATOM      1  C   UNL     1      44.912   5.033  11.666  0.00  0.00    +0.000 A 
ATOM      2  C   UNL     1      45.735   4.430  12.610  0.00  0.00    +0.000 A 
ATOM      3  N   UNL     1      46.660   5.090  13.333  0.00  0.00    +0.000 NA
ATOM      4  C   UNL     1      46.759   6.421  13.097  0.00  0.00    +0.000 A 
ATOM      5  C   UNL     1      45.999   7.150  12.174  0.00  0.00    +0.000 A 
ATOM      6  C   UNL     1      45.077   6.408  11.433  0.00  0.00    +0.000 A 
ENDROOT
BRANCH   5   7
ATOM      7  N   UNL     1      46.188   8.524  12.041  0.00  0.00    +0.000 N 
ATOM      8  C   UNL     1      45.062   9.448  12.197  0.00  0.00    +0.000 C 
ATOM      9  C   UNL     1      45.386  10.725  11.415  0.00  0.00    +0.000 C 
ATOM     10  C   UNL     1      46.738  11.322  11.817  0.00  0.00    +0.000 C 
ATOM     11  C   UNL     1      47.850  10.273  11.790  0.00  0.00    +0.000 C 
ATOM     12  C   UNL     1      47.456   9.030  12.583  0.00  0.00    +0.000 C 
ENDBRANCH   5   7
BRANCH   1  13
ATOM     13  C   UNL     1      43.848   4.234  10.965  0.00  0.00    +0.000 C 
BRANCH  13  14
ATOM     14  O   UNL     1      43.842   4.536   9.570  0.00  0.00    +0.000 OA
BRANCH  14  18
ATOM     15  C   UNL     1      46.662   2.304   7.568  0.00  0.00    +0.000 A 
ATOM     16  C   UNL     1      45.783   1.678   8.447  0.00  0.00    +0.000 A 
ATOM     17  C   UNL     1      44.831   2.439   9.121  0.00  0.00    +0.000 A 
ATOM     18  C   UNL     1      44.796   3.805   8.887  0.00  0.00    +0.000 A 
ATOM     19  N   UNL     1      45.636   4.436   8.037  0.00  0.00    +0.000 NA
ATOM     20  C   UNL     1      46.548   3.672   7.399  0.00  0.00    +0.000 A 
ENDBRANCH  14  18
ENDBRANCH  13  14
ENDBRANCH   1  13
TORSDOF 4
ENDMDL
MODEL 5
REMARK VINA RESULT:    -6.514      2.973      4.284
REMARK INTER + INTRA:          -8.636
REMARK INTER:                  -8.070
REMARK INTRA:                  -0.566
REMARK UNBOUND:                -0.598
REMARK  Name = 
REMARK  4 active torsions:
REMARK  status: ('A' for Active; 'I' for Inactive)
REMARK    1  A    between atoms: C_4  and  O_5
REMARK    2  A    between atoms: O_5  and  C_6
REMARK    3  A    between atoms: C_6  and  C_7
REMARK    4  A    between atoms: C_11  and  N_12
REMARK                            x       y       z     vdW  Elec       q    Type
REMARK                         _______ _______ _______ _____ _____    ______ ____
ROOT
ATOM      1  C   UNL     1      45.737   5.251  12.425  0.00  0.00    +0.000 A 
ATOM      2  C   UNL     1      46.368   6.358  11.868  0.00  0.00    +0.000 A 
ATOM      3  N   UNL     1      47.417   6.988  12.430  0.00  0.00    +0.000 NA
ATOM      4  C   UNL     1      47.855   6.478  13.606  0.00  0.00    +0.000 A 
ATOM      5  C   UNL     1      47.310   5.377  14.278  0.00  0.00    +0.000 A 
ATOM      6  C   UNL     1      46.207   4.782  13.663  0.00  0.00    +0.000 A 
ENDROOT
BRANCH   5   7
ATOM      7  N   UNL     1      47.868   4.941  15.477  0.00  0.00    +0.000 N 
ATOM      8  C   UNL     1      48.588   5.875  16.345  0.00  0.00    +0.000 C 
ATOM      9  C   UNL     1      49.579   5.068  17.192  0.00  0.00    +0.000 C 
ATOM     10  C   UNL     1      48.896   3.924  17.946  0.00  0.00    +0.000 C 
ATOM     11  C   UNL     1      48.028   3.073  17.018  0.00  0.00    +0.000 C 
ATOM     12  C   UNL     1      47.073   3.943  16.205  0.00  0.00    +0.000 C 
ENDBRANCH   5   7
BRANCH   1  13
ATOM     13  C   UNL     1      44.625   4.559  11.687  0.00  0.00    +0.000 C 
BRANCH  13  14
ATOM     14  O   UNL     1      44.531   5.058  10.353  0.00  0.00    +0.000 OA
BRANCH  14  18
ATOM     15  C   UNL     1      46.188   2.401   7.681  0.00  0.00    +0.000 A 
ATOM     16  C   UNL     1      45.492   1.923   8.787  0.00  0.00    +0.000 A 
ATOM     17  C   UNL     1      44.933   2.828   9.687  0.00  0.00    +0.000 A 
ATOM     18  C   UNL     1      45.094   4.183   9.443  0.00  0.00    +0.000 A 
ATOM     19  N   UNL     1      45.764   4.672   8.375  0.00  0.00    +0.000 NA
ATOM     20  C   UNL     1      46.294   3.772   7.521  0.00  0.00    +0.000 A 
ENDBRANCH  14  18
ENDBRANCH  13  14
ENDBRANCH   1  13
TORSDOF 4
ENDMDL
MODEL 6
REMARK VINA RESULT:    -5.763      3.877      7.390
REMARK INTER + INTRA:          -7.708
REMARK INTER:                  -7.037
REMARK INTRA:                  -0.671
REMARK UNBOUND:                -0.598
REMARK  Name = 
REMARK  4 active torsions:
REMARK  status: ('A' for Active; 'I' for Inactive)
REMARK    1  A    between atoms: C_4  and  O_5
REMARK    2  A    between atoms: O_5  and  C_6
REMARK    3  A    between atoms: C_6  and  C_7
REMARK    4  A    between atoms: C_11  and  N_12
REMARK                            x       y       z     vdW  Elec       q    Type
REMARK                         _______ _______ _______ _____ _____    ______ ____
ROOT
ATOM      1  C   UNL     1      47.829   7.053  14.022  0.00  0.00    +0.000 A 
ATOM      2  C   UNL     1      47.396   8.332  13.694  0.00  0.00    +0.000 A 
ATOM      3  N   UNL     1      46.310   8.589  12.941  0.00  0.00    +0.000 NA
ATOM      4  C   UNL     1      45.625   7.507  12.499  0.00  0.00    +0.000 A 
ATOM      5  C   UNL     1      45.954   6.168  12.749  0.00  0.00    +0.000 A 
ATOM      6  C   UNL     1      47.105   5.963  13.511  0.00  0.00    +0.000 A 
ENDROOT
BRANCH   5   7
ATOM      7  N   UNL     1      45.152   5.145  12.249  0.00  0.00    +0.000 N 
ATOM      8  C   UNL     1      43.936   4.739  12.957  0.00  0.00    +0.000 C 
ATOM      9  C   UNL     1      43.632   3.285  12.581  0.00  0.00    +0.000 C 
ATOM     10  C   UNL     1      43.562   3.082  11.064  0.00  0.00    +0.000 C 
ATOM     11  C   UNL     1      44.786   3.668  10.359  0.00  0.00    +0.000 C 
ATOM     12  C   UNL     1      45.029   5.113  10.785  0.00  0.00    +0.000 C 
ENDBRANCH   5   7
BRANCH   1  13
ATOM     13  C   UNL     1      49.005   6.861  14.939  0.00  0.00    +0.000 C 
BRANCH  13  14
ATOM     14  O   UNL     1      48.560   6.663  16.281  0.00  0.00    +0.000 OA
BRANCH  14  18
ATOM     15  C   UNL     1      49.201   2.802  17.557  0.00  0.00    +0.000 A 
ATOM     16  C   UNL     1      47.906   3.232  17.281  0.00  0.00    +0.000 A 
ATOM     17  C   UNL     1      47.697   4.539  16.849  0.00  0.00    +0.000 A 
ATOM     18  C   UNL     1      48.797   5.370  16.709  0.00  0.00    +0.000 A 
ATOM     19  N   UNL     1      50.064   4.977  16.970  0.00  0.00    +0.000 NA
ATOM     20  C   UNL     1      50.237   3.705  17.387  0.00  0.00    +0.000 A 
ENDBRANCH  14  18
ENDBRANCH  13  14
ENDBRANCH   1  13
TORSDOF 4
ENDMDL
MODEL 7
REMARK VINA RESULT:    -5.686      3.563      7.663
REMARK INTER + INTRA:          -7.614
REMARK INTER:                  -6.949
REMARK INTRA:                  -0.664
REMARK UNBOUND:                -0.598
REMARK  Name = 
REMARK  4 active torsions:
REMARK  status: ('A' for Active; 'I' for Inactive)
REMARK    1  A    between atoms: C_4  and  O_5
REMARK    2  A    between atoms: O_5  and  C_6
REMARK    3  A    between atoms: C_6  and  C_7
REMARK    4  A    between atoms: C_11  and  N_12
REMARK                            x       y       z     vdW  Elec       q    Type
REMARK                         _______ _______ _______ _____ _____    ______ ____
ROOT
ATOM      1  C   UNL     1      47.667   7.369  13.722  0.00  0.00    +0.000 A 
ATOM      2  C   UNL     1      46.987   8.578  13.621  0.00  0.00    +0.000 A 
ATOM      3  N   UNL     1      45.820   8.732  12.967  0.00  0.00    +0.000 NA
ATOM      4  C   UNL     1      45.312   7.617  12.389  0.00  0.00    +0.000 A 
ATOM      5  C   UNL     1      45.893   6.343  12.409  0.00  0.00    +0.000 A 
ATOM      6  C   UNL     1      47.116   6.250  13.077  0.00  0.00    +0.000 A 
ENDROOT
BRANCH   5   7
ATOM      7  N   UNL     1      45.255   5.272  11.789  0.00  0.00    +0.000 N 
ATOM      8  C   UNL     1      45.290   5.127  10.332  0.00  0.00    +0.000 C 
ATOM      9  C   UNL     1      44.064   4.312   9.907  0.00  0.00    +0.000 C 
ATOM     10  C   UNL     1      43.966   2.981  10.659  0.00  0.00    +0.000 C 
ATOM     11  C   UNL     1      44.096   3.175  12.170  0.00  0.00    +0.000 C 
ATOM     12  C   UNL     1      45.333   3.998  12.517  0.00  0.00    +0.000 C 
ENDBRANCH   5   7
BRANCH   1  13
ATOM     13  C   UNL     1      48.922   7.269  14.544  0.00  0.00    +0.000 C 
BRANCH  13  14
ATOM     14  O   UNL     1      49.048   5.960  15.099  0.00  0.00    +0.000 OA
BRANCH  14  18
ATOM     15  C   UNL     1      47.520   5.831  18.918  0.00  0.00    +0.000 A 
ATOM     16  C   UNL     1      48.257   6.938  18.507  0.00  0.00    +0.000 A 
ATOM     17  C   UNL     1      48.771   6.975  17.213  0.00  0.00    +0.000 A 
ATOM     18  C   UNL     1      48.525   5.897  16.377  0.00  0.00    +0.000 A 
ATOM     19  N   UNL     1      47.811   4.812  16.752  0.00  0.00    +0.000 NA
ATOM     20  C   UNL     1      47.326   4.804  18.012  0.00  0.00    +0.000 A 
ENDBRANCH  14  18
ENDBRANCH  13  14
ENDBRANCH   1  13
TORSDOF 4
ENDMDL
MODEL 8
REMARK VINA RESULT:    -5.667      3.171      4.462
REMARK INTER + INTRA:          -7.590
REMARK INTER:                  -6.981
REMARK INTRA:                  -0.609
REMARK UNBOUND:                -0.598
REMARK  Name = 
REMARK  4 active torsions:
REMARK  status: ('A' for Active; 'I' for Inactive)
REMARK    1  A    between atoms: C_4  and  O_5
REMARK    2  A    between atoms: O_5  and  C_6
REMARK    3  A    between atoms: C_6  and  C_7
REMARK    4  A    between atoms: C_11  and  N_12
REMARK                            x       y       z     vdW  Elec       q    Type
REMARK                         _______ _______ _______ _____ _____    ______ ____
ROOT
ATOM      1  C   UNL     1      44.921   7.024  11.842  0.00  0.00    +0.000 A 
ATOM      2  C   UNL     1      45.780   7.592  12.776  0.00  0.00    +0.000 A 
ATOM      3  N   UNL     1      45.889   8.917  12.988  0.00  0.00    +0.000 NA
ATOM      4  C   UNL     1      45.096   9.708  12.227  0.00  0.00    +0.000 A 
ATOM      5  C   UNL     1      44.194   9.269  11.249  0.00  0.00    +0.000 A 
ATOM      6  C   UNL     1      44.144   7.887  11.053  0.00  0.00    +0.000 A 
ENDROOT
BRANCH   5   7
ATOM      7  N   UNL     1      43.420  10.189  10.546  0.00  0.00    +0.000 N 
ATOM      8  C   UNL     1      43.874  10.710   9.255  0.00  0.00    +0.000 C 
ATOM      9  C   UNL     1      43.215  12.077   9.038  0.00  0.00    +0.000 C 
ATOM     10  C   UNL     1      41.691  12.013   9.178  0.00  0.00    +0.000 C 
ATOM     11  C   UNL     1      41.272  11.314  10.472  0.00  0.00    +0.000 C 
ATOM     12  C   UNL     1      41.970   9.965  10.623  0.00  0.00    +0.000 C 
ENDBRANCH   5   7
BRANCH   1  13
ATOM     13  C   UNL     1      44.803   5.529  11.730  0.00  0.00    +0.000 C 
BRANCH  13  14
ATOM     14  O   UNL     1      43.919   5.181  10.665  0.00  0.00    +0.000 OA
BRANCH  14  18
ATOM     15  C   UNL     1      45.602   2.373   8.170  0.00  0.00    +0.000 A 
ATOM     16  C   UNL     1      45.979   3.708   8.060  0.00  0.00    +0.000 A 
ATOM     17  C   UNL     1      45.406   4.653   8.908  0.00  0.00    +0.000 A 
ATOM     18  C   UNL     1      44.473   4.222   9.837  0.00  0.00    +0.000 A 
ATOM     19  N   UNL     1      44.091   2.931   9.965  0.00  0.00    +0.000 NA
ATOM     20  C   UNL     1      44.663   2.038   9.130  0.00  0.00    +0.000 A 
ENDBRANCH  14  18
ENDBRANCH  13  14
ENDBRANCH   1  13
TORSDOF 4
ENDMDL
MODEL 9
REMARK VINA RESULT:    -5.635      3.749      6.166
REMARK INTER + INTRA:          -7.550
REMARK INTER:                  -6.956
REMARK INTRA:                  -0.594
REMARK UNBOUND:                -0.598
REMARK  Name = 
REMARK  4 active torsions:
REMARK  status: ('A' for Active; 'I' for Inactive)
REMARK    1  A    between atoms: C_4  and  O_5
REMARK    2  A    between atoms: O_5  and  C_6
REMARK    3  A    between atoms: C_6  and  C_7
REMARK    4  A    between atoms: C_11  and  N_12
REMARK                            x       y       z     vdW  Elec       q    Type
REMARK                         _______ _______ _______ _____ _____    ______ ____
ROOT
ATOM      1  C   UNL     1      46.236   4.727  13.182  0.00  0.00    +0.000 A 
ATOM      2  C   UNL     1      45.192   4.300  12.369  0.00  0.00    +0.000 A 
ATOM      3  N   UNL     1      44.511   5.106  11.534  0.00  0.00    +0.000 NA
ATOM      4  C   UNL     1      44.899   6.404  11.513  0.00  0.00    +0.000 A 
ATOM      5  C   UNL     1      45.927   6.966  12.281  0.00  0.00    +0.000 A 
ATOM      6  C   UNL     1      46.579   6.089  13.149  0.00  0.00    +0.000 A 
ENDROOT
BRANCH   5   7
ATOM      7  N   UNL     1      46.240   8.317  12.151  0.00  0.00    +0.000 N 
ATOM      8  C   UNL     1      45.226   9.343  12.404  0.00  0.00    +0.000 C 
ATOM      9  C   UNL     1      45.615  10.598  11.614  0.00  0.00    +0.000 C 
ATOM     10  C   UNL     1      47.046  11.053  11.919  0.00  0.00    +0.000 C 
ATOM     11  C   UNL     1      48.043   9.901  11.795  0.00  0.00    +0.000 C 
ATOM     12  C   UNL     1      47.589   8.687  12.600  0.00  0.00    +0.000 C 
ENDBRANCH   5   7
BRANCH   1  13
ATOM     13  C   UNL     1      46.998   3.740  14.023  0.00  0.00    +0.000 C 
BRANCH  13  14
ATOM     14  O   UNL     1      46.663   3.902  15.401  0.00  0.00    +0.000 OA
BRANCH  14  18
ATOM     15  C   UNL     1      50.019   4.089  17.777  0.00  0.00    +0.000 A 
ATOM     16  C   UNL     1      49.305   2.898  17.683  0.00  0.00    +0.000 A 
ATOM     17  C   UNL     1      48.171   2.841  16.877  0.00  0.00    +0.000 A 
ATOM     18  C   UNL     1      47.793   3.986  16.192  0.00  0.00    +0.000 A 
ATOM     19  N   UNL     1      48.470   5.154  16.265  0.00  0.00    +0.000 NA
ATOM     20  C   UNL     1      49.565   5.179  17.055  0.00  0.00    +0.000 A 
ENDBRANCH  14  18
ENDBRANCH  13  14
ENDBRANCH   1  13
TORSDOF 4
ENDMDL
