MODEL 1
REMARK VINA RESULT:    -7.842      0.000      0.000
REMARK INTER + INTRA:         -12.677
REMARK INTER:                 -11.510
REMARK INTRA:                  -1.167
REMARK UNBOUND:                -1.167
REMARK  Name = 
REMARK  9 active torsions:
REMARK  status: ('A' for Active; 'I' for Inactive)
REMARK    1  A    between atoms: C_1  and  C_2
REMARK    2  A    between atoms: C_2  and  C_3
REMARK    3  A    between atoms: C_3  and  C_4
REMARK    4  A    between atoms: C_3  and  C_15
REMARK    5  A    between atoms: C_4  and  O_5
REMARK    6  A    between atoms: O_5  and  C_6
REMARK    7  A    between atoms: C_9  and  C_10
REMARK    8  A    between atoms: C_19  and  O_20
REMARK    9  A    between atoms: O_20  and  C_21
REMARK                            x       y       z     vdW  Elec       q    Type
REMARK                         _______ _______ _______ _____ _____    ______ ____
ROOT
ATOM      1  C   UNL     1      44.295   4.491  12.234  0.00  0.00    +0.000 C 
ENDROOT
BRANCH   1   2
ATOM      2  C   UNL     1      45.575   5.057  12.851  0.00  0.00    +0.000 A 
ATOM      3  C   UNL     1      46.113   6.240  12.320  0.00  0.00    +0.000 A 
ATOM      4  C   UNL     1      47.286   6.786  12.837  0.00  0.00    +0.000 A 
ATOM      5  C   UNL     1      47.934   6.173  13.907  0.00  0.00    +0.000 A 
ATOM      6  C   UNL     1      47.392   5.030  14.489  0.00  0.00    +0.000 A 
ATOM      7  C   UNL     1      46.229   4.467  13.950  0.00  0.00    +0.000 A 
BRANCH   6   8
ATOM      8  O   UNL     1      47.950   4.367  15.556  0.00  0.00    +0.000 OA
BRANCH   8   9
ATOM      9  C   UNL     1      47.113   4.251  16.719  0.00  0.00    +0.000 C 
ATOM     10  C   UNL     1      47.489   5.284  17.770  0.00  0.00    +0.000 C 
ATOM     11  C   UNL     1      48.513   4.584  18.641  0.00  0.00    +0.000 C 
ATOM     12  N   UNL     1      48.142   3.170  18.658  0.00  0.00    +0.000 NA
ATOM     13  C   UNL     1      47.386   2.913  17.418  0.00  0.00    +0.000 C 
ATOM     14  H   UNL     1      47.544   2.981  19.461  0.00  0.00    +0.000 HD
ENDBRANCH   8   9
ENDBRANCH   6   8
ENDBRANCH   1   2
BRANCH   1  16
ATOM     15  C   UNL     1      42.143   5.832  11.805  0.00  0.00    +0.000 C 
ATOM     16  C   UNL     1      43.548   5.500  11.325  0.00  0.00    +0.000 C 
ENDBRANCH   1  16
BRANCH   1  17
ATOM     17  C   UNL     1      44.580   3.143  11.544  0.00  0.00    +0.000 C 
BRANCH  17  18
ATOM     18  O   UNL     1      44.032   3.144  10.225  0.00  0.00    +0.000 OA
BRANCH  18  19
ATOM     19  C   UNL     1      44.905   2.953   9.193  0.00  0.00    +0.000 A 
ATOM     20  C   UNL     1      45.419   3.944   8.356  0.00  0.00    +0.000 A 
ATOM     21  C   UNL     1      46.347   3.611   7.364  0.00  0.00    +0.000 A 
ATOM     22  C   UNL     1      46.770   2.286   7.206  0.00  0.00    +0.000 A 
ATOM     23  C   UNL     1      46.222   1.286   8.016  0.00  0.00    +0.000 A 
ATOM     24  C   UNL     1      45.293   1.624   9.002  0.00  0.00    +0.000 A 
BRANCH  22  25
ATOM     25  C   UNL     1      47.795   1.995   6.172  0.00  0.00    +0.000 C 
ATOM     26  N   UNL     1      48.962   2.705   6.227  0.00  0.00    +0.000 N 
ATOM     27  O   UNL     1      47.591   1.189   5.272  0.00  0.00    +0.000 OA
ATOM     28  H   UNL     1      49.066   3.535   6.792  0.00  0.00    +0.000 HD
ATOM     29  H   UNL     1      49.591   2.590   5.442  0.00  0.00    +0.000 HD
ENDBRANCH  22  25
ENDBRANCH  18  19
ENDBRANCH  17  18
ENDBRANCH   1  17
TORSDOF 8
ENDMDL
MODEL 2
REMARK VINA RESULT:    -7.715      1.855      2.299
REMARK INTER + INTRA:         -12.491
REMARK INTER:                 -11.232
REMARK INTRA:                  -1.259
REMARK UNBOUND:                -1.167
REMARK  Name = 
REMARK  9 active torsions:
REMARK  status: ('A' for Active; 'I' for Inactive)
REMARK    1  A    between atoms: C_1  and  C_2
REMARK    2  A    between atoms: C_2  and  C_3
REMARK    3  A    between atoms: C_3  and  C_4
REMARK    4  A    between atoms: C_3  and  C_15
REMARK    5  A    between atoms: C_4  and  O_5
REMARK    6  A    between atoms: O_5  and  C_6
REMARK    7  A    between atoms: C_9  and  C_10
REMARK    8  A    between atoms: C_19  and  O_20
REMARK    9  A    between atoms: O_20  and  C_21
REMARK                            x       y       z     vdW  Elec       q    Type
REMARK                         _______ _______ _______ _____ _____    ______ ____
ROOT
ATOM      1  C   UNL     1      45.133   4.710  11.952  0.00  0.00    +0.000 C 
ENDROOT
BRANCH   1   2
ATOM      2  C   UNL     1      46.336   5.560  12.365  0.00  0.00    +0.000 A 
ATOM      3  C   UNL     1      46.787   6.560  11.490  0.00  0.00    +0.000 A 
ATOM      4  C   UNL     1      47.889   7.349  11.813  0.00  0.00    +0.000 A 
ATOM      5  C   UNL     1      48.550   7.169  13.027  0.00  0.00    +0.000 A 
ATOM      6  C   UNL     1      48.089   6.223  13.938  0.00  0.00    +0.000 A 
ATOM      7  C   UNL     1      46.999   5.411  13.599  0.00  0.00    +0.000 A 
BRANCH   6   8
ATOM      8  O   UNL     1      48.665   5.986  15.164  0.00  0.00    +0.000 OA
BRANCH   8   9
ATOM      9  C   UNL     1      49.534   7.021  15.650  0.00  0.00    +0.000 C 
ATOM     10  C   UNL     1      50.712   6.436  16.412  0.00  0.00    +0.000 C 
ATOM     11  C   UNL     1      50.243   6.383  17.853  0.00  0.00    +0.000 C 
ATOM     12  N   UNL     1      49.348   7.525  18.037  0.00  0.00    +0.000 NA
ATOM     13  C   UNL     1      48.800   7.856  16.708  0.00  0.00    +0.000 C 
ATOM     14  H   UNL     1      49.876   8.322  18.390  0.00  0.00    +0.000 HD
ENDBRANCH   8   9
ENDBRANCH   6   8
ENDBRANCH   1   2
BRANCH   1  16
ATOM     15  C   UNL     1      42.853   5.121  13.069  0.00  0.00    +0.000 C 
ATOM     16  C   UNL     1      44.180   4.377  13.127  0.00  0.00    +0.000 C 
ENDBRANCH   1  16
BRANCH   1  17
ATOM     17  C   UNL     1      44.415   5.343  10.744  0.00  0.00    +0.000 C 
BRANCH  17  18
ATOM     18  O   UNL     1      43.886   4.320   9.901  0.00  0.00    +0.000 OA
BRANCH  18  19
ATOM     19  C   UNL     1      44.781   3.609   9.154  0.00  0.00    +0.000 A 
ATOM     20  C   UNL     1      44.948   2.224   9.168  0.00  0.00    +0.000 A 
ATOM     21  C   UNL     1      45.874   1.621   8.312  0.00  0.00    +0.000 A 
ATOM     22  C   UNL     1      46.635   2.398   7.431  0.00  0.00    +0.000 A 
ATOM     23  C   UNL     1      46.500   3.791   7.448  0.00  0.00    +0.000 A 
ATOM     24  C   UNL     1      45.576   4.388   8.309  0.00  0.00    +0.000 A 
BRANCH  22  25
ATOM     25  C   UNL     1      47.567   1.704   6.507  0.00  0.00    +0.000 C 
ATOM     26  N   UNL     1      48.657   2.405   6.072  0.00  0.00    +0.000 N 
ATOM     27  O   UNL     1      47.348   0.568   6.105  0.00  0.00    +0.000 OA
ATOM     28  H   UNL     1      48.738   3.405   6.180  0.00  0.00    +0.000 HD
ATOM     29  H   UNL     1      49.206   1.966   5.343  0.00  0.00    +0.000 HD
ENDBRANCH  22  25
ENDBRANCH  18  19
ENDBRANCH  17  18
ENDBRANCH   1  17
TORSDOF 8
ENDMDL
MODEL 3
REMARK VINA RESULT:    -7.444      3.706      5.755
REMARK INTER + INTRA:         -12.093
REMARK INTER:                 -11.002
REMARK INTRA:                  -1.091
REMARK UNBOUND:                -1.167
REMARK  Name = 
REMARK  9 active torsions:
REMARK  status: ('A' for Active; 'I' for Inactive)
REMARK    1  A    between atoms: C_1  and  C_2
REMARK    2  A    between atoms: C_2  and  C_3
REMARK    3  A    between atoms: C_3  and  C_4
REMARK    4  A    between atoms: C_3  and  C_15
REMARK    5  A    between atoms: C_4  and  O_5
REMARK    6  A    between atoms: O_5  and  C_6
REMARK    7  A    between atoms: C_9  and  C_10
REMARK    8  A    between atoms: C_19  and  O_20
REMARK    9  A    between atoms: O_20  and  C_21
REMARK                            x       y       z     vdW  Elec       q    Type
REMARK                         _______ _______ _______ _____ _____    ______ ____
ROOT
ATOM      1  C   UNL     1      44.994   5.303  11.649  0.00  0.00    +0.000 C 
ENDROOT
BRANCH   1   2
ATOM      2  C   UNL     1      45.361   6.762  11.926  0.00  0.00    +0.000 A 
ATOM      3  C   UNL     1      46.561   7.039  12.600  0.00  0.00    +0.000 A 
ATOM      4  C   UNL     1      46.931   8.350  12.891  0.00  0.00    +0.000 A 
ATOM      5  C   UNL     1      46.121   9.412  12.495  0.00  0.00    +0.000 A 
ATOM      6  C   UNL     1      44.953   9.170  11.777  0.00  0.00    +0.000 A 
ATOM      7  C   UNL     1      44.568   7.850  11.511  0.00  0.00    +0.000 A 
BRANCH   6   8
ATOM      8  O   UNL     1      44.101  10.152  11.332  0.00  0.00    +0.000 OA
BRANCH   8   9
ATOM      9  C   UNL     1      43.166   9.748  10.319  0.00  0.00    +0.000 C 
ATOM     10  C   UNL     1      43.331  10.580   9.056  0.00  0.00    +0.000 C 
ATOM     11  C   UNL     1      42.375  11.742   9.241  0.00  0.00    +0.000 C 
ATOM     12  N   UNL     1      41.241  11.226  10.007  0.00  0.00    +0.000 NA
ATOM     13  C   UNL     1      41.738  10.071  10.778  0.00  0.00    +0.000 C 
ATOM     14  H   UNL     1      40.509  10.914   9.369  0.00  0.00    +0.000 HD
ENDBRANCH   8   9
ENDBRANCH   6   8
ENDBRANCH   1   2
BRANCH   1  16
ATOM     15  C   UNL     1      43.283   4.370  13.327  0.00  0.00    +0.000 C 
ATOM     16  C   UNL     1      44.750   4.473  12.934  0.00  0.00    +0.000 C 
ENDBRANCH   1  16
BRANCH   1  17
ATOM     17  C   UNL     1      43.832   5.222  10.639  0.00  0.00    +0.000 C 
BRANCH  17  18
ATOM     18  O   UNL     1      43.717   3.891  10.135  0.00  0.00    +0.000 OA
BRANCH  18  19
ATOM     19  C   UNL     1      44.655   3.491   9.226  0.00  0.00    +0.000 A 
ATOM     20  C   UNL     1      45.335   4.315   8.329  0.00  0.00    +0.000 A 
ATOM     21  C   UNL     1      46.310   3.776   7.484  0.00  0.00    +0.000 A 
ATOM     22  C   UNL     1      46.615   2.411   7.534  0.00  0.00    +0.000 A 
ATOM     23  C   UNL     1      45.903   1.576   8.403  0.00  0.00    +0.000 A 
ATOM     24  C   UNL     1      44.927   2.120   9.241  0.00  0.00    +0.000 A 
BRANCH  22  25
ATOM     25  C   UNL     1      47.694   1.898   6.652  0.00  0.00    +0.000 C 
ATOM     26  N   UNL     1      48.728   2.746   6.367  0.00  0.00    +0.000 N 
ATOM     27  O   UNL     1      47.642   0.781   6.154  0.00  0.00    +0.000 OA
ATOM     28  H   UNL     1      48.683   3.738   6.553  0.00  0.00    +0.000 HD
ATOM     29  H   UNL     1      49.382   2.430   5.662  0.00  0.00    +0.000 HD
ENDBRANCH  22  25
ENDBRANCH  18  19
ENDBRANCH  17  18
ENDBRANCH   1  17
TORSDOF 8
ENDMDL
MODEL 4
REMARK VINA RESULT:    -7.268      2.984      3.909
REMARK INTER + INTRA:         -11.835
REMARK INTER:                 -10.660
REMARK INTRA:                  -1.175
REMARK UNBOUND:                -1.167
REMARK  Name = 
REMARK  9 active torsions:
REMARK  status: ('A' for Active; 'I' for Inactive)
REMARK    1  A    between atoms: C_1  and  C_2
REMARK    2  A    between atoms: C_2  and  C_3
REMARK    3  A    between atoms: C_3  and  C_4
REMARK    4  A    between atoms: C_3  and  C_15
REMARK    5  A    between atoms: C_4  and  O_5
REMARK    6  A    between atoms: O_5  and  C_6
REMARK    7  A    between atoms: C_9  and  C_10
REMARK    8  A    between atoms: C_19  and  O_20
REMARK    9  A    between atoms: O_20  and  C_21
REMARK                            x       y       z     vdW  Elec       q    Type
REMARK                         _______ _______ _______ _____ _____    ______ ____
ROOT
ATOM      1  C   UNL     1      45.099   5.225  11.416  0.00  0.00    +0.000 C 
ENDROOT
BRANCH   1   2
ATOM      2  C   UNL     1      45.493   6.689  11.624  0.00  0.00    +0.000 A 
ATOM      3  C   UNL     1      44.500   7.675  11.519  0.00  0.00    +0.000 A 
ATOM      4  C   UNL     1      44.811   9.023  11.684  0.00  0.00    +0.000 A 
ATOM      5  C   UNL     1      46.117   9.411  11.978  0.00  0.00    +0.000 A 
ATOM      6  C   UNL     1      47.111   8.450  12.142  0.00  0.00    +0.000 A 
ATOM      7  C   UNL     1      46.801   7.098  11.948  0.00  0.00    +0.000 A 
BRANCH   6   8
ATOM      8  O   UNL     1      48.420   8.735  12.448  0.00  0.00    +0.000 OA
BRANCH   8   9
ATOM      9  C   UNL     1      49.279   7.596  12.618  0.00  0.00    +0.000 C 
ATOM     10  C   UNL     1      49.878   7.565  14.015  0.00  0.00    +0.000 C 
ATOM     11  C   UNL     1      51.185   8.322  13.883  0.00  0.00    +0.000 C 
ATOM     12  N   UNL     1      51.679   8.059  12.532  0.00  0.00    +0.000 NA
ATOM     13  C   UNL     1      50.503   7.733  11.704  0.00  0.00    +0.000 C 
ATOM     14  H   UNL     1      52.312   7.259  12.547  0.00  0.00    +0.000 HD
ENDBRANCH   8   9
ENDBRANCH   6   8
ENDBRANCH   1   2
BRANCH   1  16
ATOM     15  C   UNL     1      45.908   3.255  12.858  0.00  0.00    +0.000 C 
ATOM     16  C   UNL     1      44.949   4.432  12.737  0.00  0.00    +0.000 C 
ENDBRANCH   1  16
BRANCH   1  17
ATOM     17  C   UNL     1      43.863   5.125  10.500  0.00  0.00    +0.000 C 
BRANCH  17  18
ATOM     18  O   UNL     1      43.683   3.775  10.070  0.00  0.00    +0.000 OA
BRANCH  18  19
ATOM     19  C   UNL     1      44.652   3.249   9.263  0.00  0.00    +0.000 A 
ATOM     20  C   UNL     1      45.074   1.920   9.244  0.00  0.00    +0.000 A 
ATOM     21  C   UNL     1      46.046   1.506   8.328  0.00  0.00    +0.000 A 
ATOM     22  C   UNL     1      46.598   2.419   7.422  0.00  0.00    +0.000 A 
ATOM     23  C   UNL     1      46.208   3.761   7.470  0.00  0.00    +0.000 A 
ATOM     24  C   UNL     1      45.240   4.169   8.390  0.00  0.00    +0.000 A 
BRANCH  22  25
ATOM     25  C   UNL     1      47.589   1.917   6.436  0.00  0.00    +0.000 C 
ATOM     26  N   UNL     1      48.766   2.603   6.325  0.00  0.00    +0.000 N 
ATOM     27  O   UNL     1      47.349   0.959   5.712  0.00  0.00    +0.000 OA
ATOM     28  H   UNL     1      48.897   3.524   6.718  0.00  0.00    +0.000 HD
ATOM     29  H   UNL     1      49.371   2.330   5.560  0.00  0.00    +0.000 HD
ENDBRANCH  22  25
ENDBRANCH  18  19
ENDBRANCH  17  18
ENDBRANCH   1  17
TORSDOF 8
ENDMDL
MODEL 5
REMARK VINA RESULT:    -7.132      3.180      4.753
REMARK INTER + INTRA:         -11.634
REMARK INTER:                 -10.311
REMARK INTRA:                  -1.323
REMARK UNBOUND:                -1.167
REMARK  Name = 
REMARK  9 active torsions:
REMARK  status: ('A' for Active; 'I' for Inactive)
REMARK    1  A    between atoms: C_1  and  C_2
REMARK    2  A    between atoms: C_2  and  C_3
REMARK    3  A    between atoms: C_3  and  C_4
REMARK    4  A    between atoms: C_3  and  C_15
REMARK    5  A    between atoms: C_4  and  O_5
REMARK    6  A    between atoms: O_5  and  C_6
REMARK    7  A    between atoms: C_9  and  C_10
REMARK    8  A    between atoms: C_19  and  O_20
REMARK    9  A    between atoms: O_20  and  C_21
REMARK                            x       y       z     vdW  Elec       q    Type
REMARK                         _______ _______ _______ _____ _____    ______ ____
ROOT
ATOM      1  C   UNL     1      45.015   4.758  11.843  0.00  0.00    +0.000 C 
ENDROOT
BRANCH   1   2
ATOM      2  C   UNL     1      46.105   5.675  12.400  0.00  0.00    +0.000 A 
ATOM      3  C   UNL     1      46.839   5.249  13.517  0.00  0.00    +0.000 A 
ATOM      4  C   UNL     1      47.831   6.056  14.072  0.00  0.00    +0.000 A 
ATOM      5  C   UNL     1      48.124   7.296  13.507  0.00  0.00    +0.000 A 
ATOM      6  C   UNL     1      47.450   7.719  12.365  0.00  0.00    +0.000 A 
ATOM      7  C   UNL     1      46.434   6.920  11.827  0.00  0.00    +0.000 A 
BRANCH   6   8
ATOM      8  O   UNL     1      47.681   8.916  11.730  0.00  0.00    +0.000 OA
BRANCH   8   9
ATOM      9  C   UNL     1      47.185  10.083  12.408  0.00  0.00    +0.000 C 
ATOM     10  C   UNL     1      45.872  10.552  11.801  0.00  0.00    +0.000 C 
ATOM     11  C   UNL     1      46.282  11.550  10.736  0.00  0.00    +0.000 C 
ATOM     12  N   UNL     1      47.495  12.203  11.227  0.00  0.00    +0.000 NA
ATOM     13  C   UNL     1      48.136  11.262  12.165  0.00  0.00    +0.000 C 
ATOM     14  H   UNL     1      47.248  13.057  11.725  0.00  0.00    +0.000 HD
ENDBRANCH   8   9
ENDBRANCH   6   8
ENDBRANCH   1   2
BRANCH   1  16
ATOM     15  C   UNL     1      43.577   2.777  12.633  0.00  0.00    +0.000 C 
ATOM     16  C   UNL     1      44.075   4.184  12.933  0.00  0.00    +0.000 C 
ENDBRANCH   1  16
BRANCH   1  17
ATOM     17  C   UNL     1      44.262   5.452  10.691  0.00  0.00    +0.000 C 
BRANCH  17  18
ATOM     18  O   UNL     1      43.768   4.477   9.774  0.00  0.00    +0.000 OA
BRANCH  18  19
ATOM     19  C   UNL     1      44.696   3.736   9.099  0.00  0.00    +0.000 A 
ATOM     20  C   UNL     1      44.838   2.350   9.152  0.00  0.00    +0.000 A 
ATOM     21  C   UNL     1      45.805   1.714   8.366  0.00  0.00    +0.000 A 
ATOM     22  C   UNL     1      46.632   2.461   7.520  0.00  0.00    +0.000 A 
ATOM     23  C   UNL     1      46.520   3.856   7.499  0.00  0.00    +0.000 A 
ATOM     24  C   UNL     1      45.555   4.484   8.289  0.00  0.00    +0.000 A 
BRANCH  22  25
ATOM     25  C   UNL     1      47.608   1.733   6.669  0.00  0.00    +0.000 C 
ATOM     26  N   UNL     1      48.747   2.399   6.310  0.00  0.00    +0.000 N 
ATOM     27  O   UNL     1      47.386   0.601   6.259  0.00  0.00    +0.000 OA
ATOM     28  H   UNL     1      48.849   3.397   6.419  0.00  0.00    +0.000 HD
ATOM     29  H   UNL     1      49.334   1.939   5.625  0.00  0.00    +0.000 HD
ENDBRANCH  22  25
ENDBRANCH  18  19
ENDBRANCH  17  18
ENDBRANCH   1  17
TORSDOF 8
ENDMDL
MODEL 6
REMARK VINA RESULT:    -6.799      1.753      8.258
REMARK INTER + INTRA:         -11.147
REMARK INTER:                  -9.891
REMARK INTRA:                  -1.256
REMARK UNBOUND:                -1.167
REMARK  Name = 
REMARK  9 active torsions:
REMARK  status: ('A' for Active; 'I' for Inactive)
REMARK    1  A    between atoms: C_1  and  C_2
REMARK    2  A    between atoms: C_2  and  C_3
REMARK    3  A    between atoms: C_3  and  C_4
REMARK    4  A    between atoms: C_3  and  C_15
REMARK    5  A    between atoms: C_4  and  O_5
REMARK    6  A    between atoms: O_5  and  C_6
REMARK    7  A    between atoms: C_9  and  C_10
REMARK    8  A    between atoms: C_19  and  O_20
REMARK    9  A    between atoms: O_20  and  C_21
REMARK                            x       y       z     vdW  Elec       q    Type
REMARK                         _______ _______ _______ _____ _____    ______ ____
ROOT
ATOM      1  C   UNL     1      45.698   6.519  10.866  0.00  0.00    +0.000 C 
ENDROOT
BRANCH   1   2
ATOM      2  C   UNL     1      45.282   5.168  10.281  0.00  0.00    +0.000 A 
ATOM      3  C   UNL     1      44.521   4.296  11.074  0.00  0.00    +0.000 A 
ATOM      4  C   UNL     1      44.131   3.047  10.592  0.00  0.00    +0.000 A 
ATOM      5  C   UNL     1      44.476   2.655   9.301  0.00  0.00    +0.000 A 
ATOM      6  C   UNL     1      45.182   3.523   8.472  0.00  0.00    +0.000 A 
ATOM      7  C   UNL     1      45.598   4.765   8.968  0.00  0.00    +0.000 A 
BRANCH   6   8
ATOM      8  O   UNL     1      45.552   3.230   7.181  0.00  0.00    +0.000 OA
BRANCH   8   9
ATOM      9  C   UNL     1      46.958   3.016   6.973  0.00  0.00    +0.000 C 
ATOM     10  C   UNL     1      47.332   3.206   5.512  0.00  0.00    +0.000 C 
ATOM     11  C   UNL     1      47.200   1.823   4.904  0.00  0.00    +0.000 C 
ATOM     12  N   UNL     1      47.562   0.874   5.956  0.00  0.00    +0.000 NA
ATOM     13  C   UNL     1      47.300   1.544   7.244  0.00  0.00    +0.000 C 
ATOM     14  H   UNL     1      48.554   0.650   5.890  0.00  0.00    +0.000 HD
ENDBRANCH   8   9
ENDBRANCH   6   8
ENDBRANCH   1   2
BRANCH   1  16
ATOM     15  C   UNL     1      44.051   8.481  11.091  0.00  0.00    +0.000 C 
ATOM     16  C   UNL     1      44.587   7.197  11.706  0.00  0.00    +0.000 C 
ENDBRANCH   1  16
BRANCH   1  17
ATOM     17  C   UNL     1      47.039   6.391  11.615  0.00  0.00    +0.000 C 
BRANCH  17  18
ATOM     18  O   UNL     1      46.895   6.859  12.956  0.00  0.00    +0.000 OA
BRANCH  18  19
ATOM     19  C   UNL     1      47.256   6.000  13.954  0.00  0.00    +0.000 A 
ATOM     20  C   UNL     1      48.047   6.310  15.060  0.00  0.00    +0.000 A 
ATOM     21  C   UNL     1      48.300   5.340  16.035  0.00  0.00    +0.000 A 
ATOM     22  C   UNL     1      47.759   4.055  15.912  0.00  0.00    +0.000 A 
ATOM     23  C   UNL     1      47.002   3.730  14.780  0.00  0.00    +0.000 A 
ATOM     24  C   UNL     1      46.757   4.703  13.808  0.00  0.00    +0.000 A 
BRANCH  22  25
ATOM     25  C   UNL     1      48.015   3.077  17.000  0.00  0.00    +0.000 C 
ATOM     26  N   UNL     1      46.958   2.730  17.793  0.00  0.00    +0.000 N 
ATOM     27  O   UNL     1      49.136   2.635  17.217  0.00  0.00    +0.000 OA
ATOM     28  H   UNL     1      46.092   3.250  17.803  0.00  0.00    +0.000 HD
ATOM     29  H   UNL     1      47.177   2.169  18.607  0.00  0.00    +0.000 HD
ENDBRANCH  22  25
ENDBRANCH  18  19
ENDBRANCH  17  18
ENDBRANCH   1  17
TORSDOF 8
ENDMDL
MODEL 7
REMARK VINA RESULT:    -6.484      3.017      4.893
REMARK INTER + INTRA:         -10.684
REMARK INTER:                  -9.412
REMARK INTRA:                  -1.271
REMARK UNBOUND:                -1.167
REMARK  Name = 
REMARK  9 active torsions:
REMARK  status: ('A' for Active; 'I' for Inactive)
REMARK    1  A    between atoms: C_1  and  C_2
REMARK    2  A    between atoms: C_2  and  C_3
REMARK    3  A    between atoms: C_3  and  C_4
REMARK    4  A    between atoms: C_3  and  C_15
REMARK    5  A    between atoms: C_4  and  O_5
REMARK    6  A    between atoms: O_5  and  C_6
REMARK    7  A    between atoms: C_9  and  C_10
REMARK    8  A    between atoms: C_19  and  O_20
REMARK    9  A    between atoms: O_20  and  C_21
REMARK                            x       y       z     vdW  Elec       q    Type
REMARK                         _______ _______ _______ _____ _____    ______ ____
ROOT
ATOM      1  C   UNL     1      48.216   8.492  12.697  0.00  0.00    +0.000 C 
ENDROOT
BRANCH   1   2
ATOM      2  C   UNL     1      48.433   8.165  14.175  0.00  0.00    +0.000 A 
ATOM      3  C   UNL     1      48.315   9.198  15.118  0.00  0.00    +0.000 A 
ATOM      4  C   UNL     1      48.520   8.954  16.475  0.00  0.00    +0.000 A 
ATOM      5  C   UNL     1      48.826   7.669  16.919  0.00  0.00    +0.000 A 
ATOM      6  C   UNL     1      48.894   6.615  16.012  0.00  0.00    +0.000 A 
ATOM      7  C   UNL     1      48.716   6.868  14.646  0.00  0.00    +0.000 A 
BRANCH   6   8
ATOM      8  O   UNL     1      49.172   5.314  16.358  0.00  0.00    +0.000 OA
BRANCH   8   9
ATOM      9  C   UNL     1      48.655   4.887  17.629  0.00  0.00    +0.000 C 
ATOM     10  C   UNL     1      49.200   3.521  18.012  0.00  0.00    +0.000 C 
ATOM     11  C   UNL     1      48.187   2.539  17.457  0.00  0.00    +0.000 C 
ATOM     12  N   UNL     1      46.885   3.201  17.537  0.00  0.00    +0.000 NA
ATOM     13  C   UNL     1      47.143   4.653  17.516  0.00  0.00    +0.000 C 
ATOM     14  H   UNL     1      46.428   2.953  18.414  0.00  0.00    +0.000 HD
ENDBRANCH   8   9
ENDBRANCH   6   8
ENDBRANCH   1   2
BRANCH   1  16
ATOM     15  C   UNL     1      50.390   7.951  11.434  0.00  0.00    +0.000 C 
ATOM     16  C   UNL     1      48.959   7.530  11.736  0.00  0.00    +0.000 C 
ENDBRANCH   1  16
BRANCH   1  17
ATOM     17  C   UNL     1      46.711   8.621  12.388  0.00  0.00    +0.000 C 
BRANCH  17  18
ATOM     18  O   UNL     1      45.962   7.761  13.247  0.00  0.00    +0.000 OA
BRANCH  18  19
ATOM     19  C   UNL     1      45.559   6.565  12.726  0.00  0.00    +0.000 A 
ATOM     20  C   UNL     1      45.661   5.320  13.348  0.00  0.00    +0.000 A 
ATOM     21  C   UNL     1      45.161   4.178  12.715  0.00  0.00    +0.000 A 
ATOM     22  C   UNL     1      44.551   4.274  11.459  0.00  0.00    +0.000 A 
ATOM     23  C   UNL     1      44.488   5.514  10.816  0.00  0.00    +0.000 A 
ATOM     24  C   UNL     1      44.993   6.651  11.451  0.00  0.00    +0.000 A 
BRANCH  22  25
ATOM     25  C   UNL     1      43.991   3.039  10.854  0.00  0.00    +0.000 C 
ATOM     26  N   UNL     1      44.451   2.681   9.618  0.00  0.00    +0.000 N 
ATOM     27  O   UNL     1      43.114   2.389  11.411  0.00  0.00    +0.000 OA
ATOM     28  H   UNL     1      44.979   3.311   9.032  0.00  0.00    +0.000 HD
ATOM     29  H   UNL     1      43.966   1.916   9.166  0.00  0.00    +0.000 HD
ENDBRANCH  22  25
ENDBRANCH  18  19
ENDBRANCH  17  18
ENDBRANCH   1  17
TORSDOF 8
ENDMDL
MODEL 8
REMARK VINA RESULT:    -6.381      3.246      8.437
REMARK INTER + INTRA:         -10.533
REMARK INTER:                  -9.148
REMARK INTRA:                  -1.386
REMARK UNBOUND:                -1.167
REMARK  Name = 
REMARK  9 active torsions:
REMARK  status: ('A' for Active; 'I' for Inactive)
REMARK    1  A    between atoms: C_1  and  C_2
REMARK    2  A    between atoms: C_2  and  C_3
REMARK    3  A    between atoms: C_3  and  C_4
REMARK    4  A    between atoms: C_3  and  C_15
REMARK    5  A    between atoms: C_4  and  O_5
REMARK    6  A    between atoms: O_5  and  C_6
REMARK    7  A    between atoms: C_9  and  C_10
REMARK    8  A    between atoms: C_19  and  O_20
REMARK    9  A    between atoms: O_20  and  C_21
REMARK                            x       y       z     vdW  Elec       q    Type
REMARK                         _______ _______ _______ _____ _____    ______ ____
ROOT
ATOM      1  C   UNL     1      45.493   5.841  11.396  0.00  0.00    +0.000 C 
ENDROOT
BRANCH   1   2
ATOM      2  C   UNL     1      45.119   4.612  10.566  0.00  0.00    +0.000 A 
ATOM      3  C   UNL     1      44.406   3.573  11.184  0.00  0.00    +0.000 A 
ATOM      4  C   UNL     1      44.056   2.426  10.475  0.00  0.00    +0.000 A 
ATOM      5  C   UNL     1      44.394   2.302   9.128  0.00  0.00    +0.000 A 
ATOM      6  C   UNL     1      45.053   3.341   8.476  0.00  0.00    +0.000 A 
ATOM      7  C   UNL     1      45.429   4.481   9.198  0.00  0.00    +0.000 A 
BRANCH   6   8
ATOM      8  O   UNL     1      45.413   3.317   7.150  0.00  0.00    +0.000 OA
BRANCH   8   9
ATOM      9  C   UNL     1      46.817   3.158   6.892  0.00  0.00    +0.000 C 
ATOM     10  C   UNL     1      47.116   3.255   5.404  0.00  0.00    +0.000 C 
ATOM     11  C   UNL     1      47.032   1.825   4.906  0.00  0.00    +0.000 C 
ATOM     12  N   UNL     1      47.489   0.978   6.007  0.00  0.00    +0.000 NA
ATOM     13  C   UNL     1      47.248   1.730   7.253  0.00  0.00    +0.000 C 
ATOM     14  H   UNL     1      48.489   0.799   5.911  0.00  0.00    +0.000 HD
ENDBRANCH   8   9
ENDBRANCH   6   8
ENDBRANCH   1   2
BRANCH   1  16
ATOM     15  C   UNL     1      44.715   8.292  11.425  0.00  0.00    +0.000 C 
ATOM     16  C   UNL     1      44.320   6.832  11.596  0.00  0.00    +0.000 C 
ENDBRANCH   1  16
BRANCH   1  17
ATOM     17  C   UNL     1      46.164   5.415  12.717  0.00  0.00    +0.000 C 
BRANCH  17  18
ATOM     18  O   UNL     1      47.556   5.731  12.681  0.00  0.00    +0.000 OA
BRANCH  18  19
ATOM     19  C   UNL     1      47.891   7.055  12.682  0.00  0.00    +0.000 A 
ATOM     20  C   UNL     1      48.613   7.722  11.693  0.00  0.00    +0.000 A 
ATOM     21  C   UNL     1      48.843   9.097  11.800  0.00  0.00    +0.000 A 
ATOM     22  C   UNL     1      48.348   9.814  12.894  0.00  0.00    +0.000 A 
ATOM     23  C   UNL     1      47.661   9.138  13.909  0.00  0.00    +0.000 A 
ATOM     24  C   UNL     1      47.438   7.764  13.798  0.00  0.00    +0.000 A 
BRANCH  22  25
ATOM     25  C   UNL     1      48.576  11.281  12.934  0.00  0.00    +0.000 C 
ATOM     26  N   UNL     1      48.494  11.896  14.152  0.00  0.00    +0.000 N 
ATOM     27  O   UNL     1      48.778  11.929  11.915  0.00  0.00    +0.000 OA
ATOM     28  H   UNL     1      48.091  11.446  14.962  0.00  0.00    +0.000 HD
ATOM     29  H   UNL     1      48.519  12.908  14.143  0.00  0.00    +0.000 HD
ENDBRANCH  22  25
ENDBRANCH  18  19
ENDBRANCH  17  18
ENDBRANCH   1  17
TORSDOF 8
ENDMDL
MODEL 9
REMARK VINA RESULT:    -6.335      3.290      7.884
REMARK INTER + INTRA:         -10.465
REMARK INTER:                  -8.998
REMARK INTRA:                  -1.467
REMARK UNBOUND:                -1.167
REMARK  Name = 
REMARK  9 active torsions:
REMARK  status: ('A' for Active; 'I' for Inactive)
REMARK    1  A    between atoms: C_1  and  C_2
REMARK    2  A    between atoms: C_2  and  C_3
REMARK    3  A    between atoms: C_3  and  C_4
REMARK    4  A    between atoms: C_3  and  C_15
REMARK    5  A    between atoms: C_4  and  O_5
REMARK    6  A    between atoms: O_5  and  C_6
REMARK    7  A    between atoms: C_9  and  C_10
REMARK    8  A    between atoms: C_19  and  O_20
REMARK    9  A    between atoms: O_20  and  C_21
REMARK                            x       y       z     vdW  Elec       q    Type
REMARK                         _______ _______ _______ _____ _____    ______ ____
ROOT
ATOM      1  C   UNL     1      49.087   8.111  11.855  0.00  0.00    +0.000 C 
ENDROOT
BRANCH   1   2
ATOM      2  C   UNL     1      47.557   8.106  11.839  0.00  0.00    +0.000 A 
ATOM      3  C   UNL     1      46.876   9.270  12.225  0.00  0.00    +0.000 A 
ATOM      4  C   UNL     1      45.483   9.311  12.244  0.00  0.00    +0.000 A 
ATOM      5  C   UNL     1      44.743   8.195  11.857  0.00  0.00    +0.000 A 
ATOM      6  C   UNL     1      45.393   7.045  11.416  0.00  0.00    +0.000 A 
ATOM      7  C   UNL     1      46.793   6.997  11.426  0.00  0.00    +0.000 A 
BRANCH   6   8
ATOM      8  O   UNL     1      44.749   5.904  11.001  0.00  0.00    +0.000 OA
BRANCH   8   9
ATOM      9  C   UNL     1      44.503   4.925  12.023  0.00  0.00    +0.000 C 
ATOM     10  C   UNL     1      45.141   3.591  11.670  0.00  0.00    +0.000 C 
ATOM     11  C   UNL     1      44.059   2.838  10.922  0.00  0.00    +0.000 C 
ATOM     12  N   UNL     1      42.785   3.262  11.503  0.00  0.00    +0.000 NA
ATOM     13  C   UNL     1      43.004   4.603  12.077  0.00  0.00    +0.000 C 
ATOM     14  H   UNL     1      42.516   2.618  12.246  0.00  0.00    +0.000 HD
ENDBRANCH   8   9
ENDBRANCH   6   8
ENDBRANCH   1   2
BRANCH   1  16
ATOM     15  C   UNL     1      51.127   9.601  12.334  0.00  0.00    +0.000 C 
ATOM     16  C   UNL     1      49.700   9.532  11.809  0.00  0.00    +0.000 C 
ENDBRANCH   1  16
BRANCH   1  17
ATOM     17  C   UNL     1      49.616   7.254  13.022  0.00  0.00    +0.000 C 
BRANCH  17  18
ATOM     18  O   UNL     1      48.930   7.594  14.227  0.00  0.00    +0.000 OA
BRANCH  18  19
ATOM     19  C   UNL     1      48.694   6.581  15.111  0.00  0.00    +0.000 A 
ATOM     20  C   UNL     1      49.325   6.398  16.341  0.00  0.00    +0.000 A 
ATOM     21  C   UNL     1      48.948   5.338  17.172  0.00  0.00    +0.000 A 
ATOM     22  C   UNL     1      47.934   4.457  16.779  0.00  0.00    +0.000 A 
ATOM     23  C   UNL     1      47.332   4.613  15.526  0.00  0.00    +0.000 A 
ATOM     24  C   UNL     1      47.715   5.671  14.700  0.00  0.00    +0.000 A 
BRANCH  22  25
ATOM     25  C   UNL     1      47.537   3.379  17.720  0.00  0.00    +0.000 C 
ATOM     26  N   UNL     1      48.344   3.161  18.802  0.00  0.00    +0.000 N 
ATOM     27  O   UNL     1      46.556   2.675  17.515  0.00  0.00    +0.000 OA
ATOM     28  H   UNL     1      49.275   3.546  18.871  0.00  0.00    +0.000 HD
ATOM     29  H   UNL     1      48.133   2.341  19.356  0.00  0.00    +0.000 HD
ENDBRANCH  22  25
ENDBRANCH  18  19
ENDBRANCH  17  18
ENDBRANCH   1  17
TORSDOF 8
ENDMDL
