MODEL 1
REMARK VINA RESULT:    -8.614      0.000      0.000
REMARK INTER + INTRA:         -12.919
REMARK INTER:                 -12.139
REMARK INTRA:                  -0.780
REMARK UNBOUND:                -0.780
REMARK  Name = 
REMARK  8 active torsions:
REMARK  status: ('A' for Active; 'I' for Inactive)
REMARK    1  A    between atoms: C_1  and  C_2
REMARK    2  A    between atoms: C_2  and  C_3
REMARK    3  A    between atoms: C_3  and  N_4
REMARK    4  A    between atoms: C_3  and  C_17
REMARK    5  A    between atoms: C_5  and  C_7
REMARK    6  A    between atoms: C_20  and  O_21
REMARK    7  A    between atoms: O_21  and  C_22
REMARK    8  A    between atoms: C_22  and  C_23
REMARK                            x       y       z     vdW  Elec       q    Type
REMARK                         _______ _______ _______ _____ _____    ______ ____
ROOT
ATOM      1  C   UNL     1      44.381   4.373  12.922  0.00  0.00    +0.000 C 
ENDROOT
BRANCH   1   2
ATOM      2  C   UNL     1      44.857   4.336  11.481  0.00  0.00    +0.000 A 
ATOM      3  C   UNL     1      44.685   3.177  10.707  0.00  0.00    +0.000 A 
ATOM      4  C   UNL     1      45.026   3.176   9.351  0.00  0.00    +0.000 A 
ATOM      5  C   UNL     1      45.540   4.330   8.761  0.00  0.00    +0.000 A 
ATOM      6  C   UNL     1      45.815   5.444   9.550  0.00  0.00    +0.000 A 
ATOM      7  C   UNL     1      45.476   5.446  10.897  0.00  0.00    +0.000 A 
BRANCH   5   8
ATOM      8  O   UNL     1      45.726   4.291   7.407  0.00  0.00    +0.000 OA
BRANCH   8   9
ATOM      9  C   UNL     1      47.057   3.927   7.017  0.00  0.00    +0.000 C 
BRANCH   9  10
ATOM     10  C   UNL     1      47.046   2.600   6.308  0.00  0.00    +0.000 A 
ATOM     11  C   UNL     1      46.947   2.558   4.917  0.00  0.00    +0.000 A 
ATOM     12  C   UNL     1      46.985   1.322   4.283  0.00  0.00    +0.000 A 
ATOM     13  C   UNL     1      47.128   0.172   5.048  0.00  0.00    +0.000 A 
ATOM     14  C   UNL     1      47.232   0.302   6.423  0.00  0.00    +0.000 A 
ATOM     15  N   UNL     1      47.204   1.487   7.068  0.00  0.00    +0.000 NA
ENDBRANCH   9  10
ENDBRANCH   8   9
ENDBRANCH   5   8
ENDBRANCH   1   2
BRANCH   1  16
ATOM     16  N   UNL     1      45.386   5.047  13.724  0.00  0.00    +0.000 N 
ATOM     17  C   UNL     1      46.522   4.394  14.141  0.00  0.00    +0.000 C 
ATOM     18  O   UNL     1      46.752   3.222  13.872  0.00  0.00    +0.000 OA
ATOM     19  H   UNL     1      45.178   5.971  14.072  0.00  0.00    +0.000 HD
BRANCH  17  20
ATOM     20  C   UNL     1      47.475   5.225  14.874  0.00  0.00    +0.000 A 
ATOM     21  C   UNL     1      48.080   6.355  14.348  0.00  0.00    +0.000 A 
ATOM     22  S   UNL     1      49.300   6.992  15.362  0.00  0.00    +0.000 S 
ATOM     23  C   UNL     1      49.047   5.775  16.527  0.00  0.00    +0.000 A 
ATOM     24  N   UNL     1      49.821   5.689  17.642  0.00  0.00    +0.000 NA
ATOM     25  C   UNL     1      49.519   4.699  18.418  0.00  0.00    +0.000 A 
ATOM     26  N   UNL     1      48.494   3.813  18.198  0.00  0.00    +0.000 N 
ATOM     27  C   UNL     1      47.614   3.934  17.146  0.00  0.00    +0.000 A 
ATOM     28  O   UNL     1      46.569   3.294  17.117  0.00  0.00    +0.000 OA
ATOM     29  C   UNL     1      47.999   4.946  16.182  0.00  0.00    +0.000 A 
ATOM     30  H   UNL     1      48.255   3.120  18.891  0.00  0.00    +0.000 HD
ENDBRANCH  17  20
ENDBRANCH   1  16
BRANCH   1  32
ATOM     31  C   UNL     1      42.334   5.447  11.808  0.00  0.00    +0.000 C 
ATOM     32  C   UNL     1      42.997   5.033  13.118  0.00  0.00    +0.000 C 
ENDBRANCH   1  32
TORSDOF 7
ENDMDL
MODEL 2
REMARK VINA RESULT:    -8.027      2.247      3.776
REMARK INTER + INTRA:         -12.091
REMARK INTER:                 -10.449
REMARK INTRA:                  -1.642
REMARK UNBOUND:                -0.780
REMARK  Name = 
REMARK  8 active torsions:
REMARK  status: ('A' for Active; 'I' for Inactive)
REMARK    1  A    between atoms: C_1  and  C_2
REMARK    2  A    between atoms: C_2  and  C_3
REMARK    3  A    between atoms: C_3  and  N_4
REMARK    4  A    between atoms: C_3  and  C_17
REMARK    5  A    between atoms: C_5  and  C_7
REMARK    6  A    between atoms: C_20  and  O_21
REMARK    7  A    between atoms: O_21  and  C_22
REMARK    8  A    between atoms: C_22  and  C_23
REMARK                            x       y       z     vdW  Elec       q    Type
REMARK                         _______ _______ _______ _____ _____    ______ ____
ROOT
ATOM      1  C   UNL     1      47.490   7.420  13.850  0.00  0.00    +0.000 C 
ENDROOT
BRANCH   1   2
ATOM      2  C   UNL     1      46.560   6.380  13.252  0.00  0.00    +0.000 A 
ATOM      3  C   UNL     1      45.475   6.775  12.452  0.00  0.00    +0.000 A 
ATOM      4  C   UNL     1      44.681   5.817  11.816  0.00  0.00    +0.000 A 
ATOM      5  C   UNL     1      44.965   4.461  11.973  0.00  0.00    +0.000 A 
ATOM      6  C   UNL     1      45.968   4.064  12.852  0.00  0.00    +0.000 A 
ATOM      7  C   UNL     1      46.758   5.016  13.485  0.00  0.00    +0.000 A 
BRANCH   5   8
ATOM      8  O   UNL     1      44.226   3.593  11.217  0.00  0.00    +0.000 OA
BRANCH   8   9
ATOM      9  C   UNL     1      44.017   4.034   9.869  0.00  0.00    +0.000 C 
BRANCH   9  10
ATOM     10  C   UNL     1      45.072   3.460   8.963  0.00  0.00    +0.000 A 
ATOM     11  C   UNL     1      45.308   2.085   8.959  0.00  0.00    +0.000 A 
ATOM     12  C   UNL     1      46.257   1.574   8.081  0.00  0.00    +0.000 A 
ATOM     13  C   UNL     1      46.933   2.442   7.233  0.00  0.00    +0.000 A 
ATOM     14  C   UNL     1      46.629   3.793   7.293  0.00  0.00    +0.000 A 
ATOM     15  N   UNL     1      45.711   4.319   8.130  0.00  0.00    +0.000 NA
ENDBRANCH   9  10
ENDBRANCH   8   9
ENDBRANCH   5   8
ENDBRANCH   1   2
BRANCH   1  16
ATOM     16  N   UNL     1      48.504   6.738  14.632  0.00  0.00    +0.000 N 
ATOM     17  C   UNL     1      48.919   7.230  15.847  0.00  0.00    +0.000 C 
ATOM     18  O   UNL     1      48.471   8.260  16.336  0.00  0.00    +0.000 OA
ATOM     19  H   UNL     1      48.988   5.959  14.212  0.00  0.00    +0.000 HD
BRANCH  17  20
ATOM     20  C   UNL     1      49.889   6.394  16.552  0.00  0.00    +0.000 A 
ATOM     21  C   UNL     1      51.187   6.787  16.835  0.00  0.00    +0.000 A 
ATOM     22  S   UNL     1      52.142   5.523  17.477  0.00  0.00    +0.000 S 
ATOM     23  C   UNL     1      50.844   4.423  17.395  0.00  0.00    +0.000 A 
ATOM     24  N   UNL     1      50.999   3.115  17.735  0.00  0.00    +0.000 NA
ATOM     25  C   UNL     1      49.928   2.405  17.598  0.00  0.00    +0.000 A 
ATOM     26  N   UNL     1      48.710   2.889  17.187  0.00  0.00    +0.000 N 
ATOM     27  C   UNL     1      48.480   4.224  16.948  0.00  0.00    +0.000 A 
ATOM     28  O   UNL     1      47.339   4.661  16.836  0.00  0.00    +0.000 OA
ATOM     29  C   UNL     1      49.684   5.032  16.958  0.00  0.00    +0.000 A 
ATOM     30  H   UNL     1      47.893   2.297  17.191  0.00  0.00    +0.000 HD
ENDBRANCH  17  20
ENDBRANCH   1  16
BRANCH   1  32
ATOM     31  C   UNL     1      48.993   7.620  11.779  0.00  0.00    +0.000 C 
ATOM     32  C   UNL     1      48.146   8.358  12.811  0.00  0.00    +0.000 C 
ENDBRANCH   1  32
TORSDOF 7
ENDMDL
MODEL 3
REMARK VINA RESULT:    -7.834      3.050      4.695
REMARK INTER + INTRA:         -11.820
REMARK INTER:                 -10.348
REMARK INTRA:                  -1.472
REMARK UNBOUND:                -0.780
REMARK  Name = 
REMARK  8 active torsions:
REMARK  status: ('A' for Active; 'I' for Inactive)
REMARK    1  A    between atoms: C_1  and  C_2
REMARK    2  A    between atoms: C_2  and  C_3
REMARK    3  A    between atoms: C_3  and  N_4
REMARK    4  A    between atoms: C_3  and  C_17
REMARK    5  A    between atoms: C_5  and  C_7
REMARK    6  A    between atoms: C_20  and  O_21
REMARK    7  A    between atoms: O_21  and  C_22
REMARK    8  A    between atoms: C_22  and  C_23
REMARK                            x       y       z     vdW  Elec       q    Type
REMARK                         _______ _______ _______ _____ _____    ______ ____
ROOT
ATOM      1  C   UNL     1      47.503   5.011  14.542  0.00  0.00    +0.000 C 
ENDROOT
BRANCH   1   2
ATOM      2  C   UNL     1      46.563   4.752  13.378  0.00  0.00    +0.000 A 
ATOM      3  C   UNL     1      46.301   5.763  12.439  0.00  0.00    +0.000 A 
ATOM      4  C   UNL     1      45.520   5.494  11.312  0.00  0.00    +0.000 A 
ATOM      5  C   UNL     1      44.998   4.217  11.114  0.00  0.00    +0.000 A 
ATOM      6  C   UNL     1      45.163   3.245  12.096  0.00  0.00    +0.000 A 
ATOM      7  C   UNL     1      45.939   3.510  13.217  0.00  0.00    +0.000 A 
BRANCH   5   8
ATOM      8  O   UNL     1      44.356   3.999   9.925  0.00  0.00    +0.000 OA
BRANCH   8   9
ATOM      9  C   UNL     1      44.397   2.634   9.489  0.00  0.00    +0.000 C 
BRANCH   9  10
ATOM     10  C   UNL     1      45.461   2.455   8.440  0.00  0.00    +0.000 A 
ATOM     11  C   UNL     1      45.839   3.537   7.645  0.00  0.00    +0.000 A 
ATOM     12  C   UNL     1      46.855   3.358   6.714  0.00  0.00    +0.000 A 
ATOM     13  C   UNL     1      47.466   2.115   6.609  0.00  0.00    +0.000 A 
ATOM     14  C   UNL     1      47.039   1.096   7.445  0.00  0.00    +0.000 A 
ATOM     15  N   UNL     1      46.059   1.240   8.361  0.00  0.00    +0.000 NA
ENDBRANCH   9  10
ENDBRANCH   8   9
ENDBRANCH   5   8
ENDBRANCH   1   2
BRANCH   1  16
ATOM     16  N   UNL     1      47.756   6.438  14.622  0.00  0.00    +0.000 N 
ATOM     17  C   UNL     1      48.942   6.925  15.121  0.00  0.00    +0.000 C 
ATOM     18  O   UNL     1      49.841   6.199  15.526  0.00  0.00    +0.000 OA
ATOM     19  H   UNL     1      46.997   7.070  14.418  0.00  0.00    +0.000 HD
BRANCH  17  20
ATOM     20  C   UNL     1      49.081   8.378  15.067  0.00  0.00    +0.000 A 
ATOM     21  C   UNL     1      49.215   9.184  16.187  0.00  0.00    +0.000 A 
ATOM     22  S   UNL     1      49.145  10.853  15.820  0.00  0.00    +0.000 S 
ATOM     23  C   UNL     1      48.939  10.537  14.159  0.00  0.00    +0.000 A 
ATOM     24  N   UNL     1      48.743  11.544  13.265  0.00  0.00    +0.000 NA
ATOM     25  C   UNL     1      48.581  11.142  12.047  0.00  0.00    +0.000 A 
ATOM     26  N   UNL     1      48.633   9.833  11.637  0.00  0.00    +0.000 N 
ATOM     27  C   UNL     1      48.945   8.796  12.487  0.00  0.00    +0.000 A 
ATOM     28  O   UNL     1      49.235   7.687  12.053  0.00  0.00    +0.000 OA
ATOM     29  C   UNL     1      49.000   9.186  13.883  0.00  0.00    +0.000 A 
ATOM     30  H   UNL     1      48.590   9.598  10.657  0.00  0.00    +0.000 HD
ENDBRANCH  17  20
ENDBRANCH   1  16
BRANCH   1  32
ATOM     31  C   UNL     1      47.847   3.333  16.453  0.00  0.00    +0.000 C 
ATOM     32  C   UNL     1      46.997   4.472  15.899  0.00  0.00    +0.000 C 
ENDBRANCH   1  32
TORSDOF 7
ENDMDL
MODEL 4
REMARK VINA RESULT:    -7.646      2.689      4.222
REMARK INTER + INTRA:         -11.555
REMARK INTER:                 -10.128
REMARK INTRA:                  -1.427
REMARK UNBOUND:                -0.780
REMARK  Name = 
REMARK  8 active torsions:
REMARK  status: ('A' for Active; 'I' for Inactive)
REMARK    1  A    between atoms: C_1  and  C_2
REMARK    2  A    between atoms: C_2  and  C_3
REMARK    3  A    between atoms: C_3  and  N_4
REMARK    4  A    between atoms: C_3  and  C_17
REMARK    5  A    between atoms: C_5  and  C_7
REMARK    6  A    between atoms: C_20  and  O_21
REMARK    7  A    between atoms: O_21  and  C_22
REMARK    8  A    between atoms: C_22  and  C_23
REMARK                            x       y       z     vdW  Elec       q    Type
REMARK                         _______ _______ _______ _____ _____    ______ ____
ROOT
ATOM      1  C   UNL     1      47.800   4.674  15.316  0.00  0.00    +0.000 C 
ENDROOT
BRANCH   1   2
ATOM      2  C   UNL     1      46.969   4.957  14.078  0.00  0.00    +0.000 A 
ATOM      3  C   UNL     1      47.136   6.158  13.371  0.00  0.00    +0.000 A 
ATOM      4  C   UNL     1      46.448   6.375  12.173  0.00  0.00    +0.000 A 
ATOM      5  C   UNL     1      45.591   5.395  11.675  0.00  0.00    +0.000 A 
ATOM      6  C   UNL     1      45.338   4.252  12.429  0.00  0.00    +0.000 A 
ATOM      7  C   UNL     1      46.021   4.036  13.619  0.00  0.00    +0.000 A 
BRANCH   5   8
ATOM      8  O   UNL     1      45.056   5.625  10.437  0.00  0.00    +0.000 OA
BRANCH   8   9
ATOM      9  C   UNL     1      44.327   4.510   9.907  0.00  0.00    +0.000 C 
BRANCH   9  10
ATOM     10  C   UNL     1      45.208   3.698   8.996  0.00  0.00    +0.000 A 
ATOM     11  C   UNL     1      45.268   2.313   9.144  0.00  0.00    +0.000 A 
ATOM     12  C   UNL     1      46.054   1.581   8.261  0.00  0.00    +0.000 A 
ATOM     13  C   UNL     1      46.747   2.248   7.259  0.00  0.00    +0.000 A 
ATOM     14  C   UNL     1      46.623   3.625   7.174  0.00  0.00    +0.000 A 
ATOM     15  N   UNL     1      45.865   4.362   8.012  0.00  0.00    +0.000 NA
ENDBRANCH   9  10
ENDBRANCH   8   9
ENDBRANCH   5   8
ENDBRANCH   1   2
BRANCH   1  16
ATOM     16  N   UNL     1      47.819   5.867  16.143  0.00  0.00    +0.000 N 
ATOM     17  C   UNL     1      49.001   6.401  16.598  0.00  0.00    +0.000 C 
ATOM     18  O   UNL     1      50.094   5.911  16.344  0.00  0.00    +0.000 OA
ATOM     19  H   UNL     1      46.939   6.229  16.479  0.00  0.00    +0.000 HD
BRANCH  17  20
ATOM     20  C   UNL     1      48.865   7.644  17.353  0.00  0.00    +0.000 A 
ATOM     21  C   UNL     1      49.361   8.866  16.928  0.00  0.00    +0.000 A 
ATOM     22  S   UNL     1      49.233  10.089  18.116  0.00  0.00    +0.000 S 
ATOM     23  C   UNL     1      48.511   9.016  19.224  0.00  0.00    +0.000 A 
ATOM     24  N   UNL     1      48.201   9.405  20.491  0.00  0.00    +0.000 NA
ATOM     25  C   UNL     1      47.680   8.472  21.217  0.00  0.00    +0.000 A 
ATOM     26  N   UNL     1      47.407   7.198  20.782  0.00  0.00    +0.000 N 
ATOM     27  C   UNL     1      47.594   6.797  19.479  0.00  0.00    +0.000 A 
ATOM     28  O   UNL     1      47.108   5.751  19.061  0.00  0.00    +0.000 OA
ATOM     29  C   UNL     1      48.302   7.769  18.669  0.00  0.00    +0.000 A 
ATOM     30  H   UNL     1      46.913   6.546  21.374  0.00  0.00    +0.000 HD
ENDBRANCH  17  20
ENDBRANCH   1  16
BRANCH   1  32
ATOM     31  C   UNL     1      48.448   2.763  16.902  0.00  0.00    +0.000 C 
ATOM     32  C   UNL     1      47.324   3.453  16.136  0.00  0.00    +0.000 C 
ENDBRANCH   1  32
TORSDOF 7
ENDMDL
MODEL 5
REMARK VINA RESULT:    -7.412      1.727      2.236
REMARK INTER + INTRA:         -11.225
REMARK INTER:                 -10.760
REMARK INTRA:                  -0.465
REMARK UNBOUND:                -0.780
REMARK  Name = 
REMARK  8 active torsions:
REMARK  status: ('A' for Active; 'I' for Inactive)
REMARK    1  A    between atoms: C_1  and  C_2
REMARK    2  A    between atoms: C_2  and  C_3
REMARK    3  A    between atoms: C_3  and  N_4
REMARK    4  A    between atoms: C_3  and  C_17
REMARK    5  A    between atoms: C_5  and  C_7
REMARK    6  A    between atoms: C_20  and  O_21
REMARK    7  A    between atoms: O_21  and  C_22
REMARK    8  A    between atoms: C_22  and  C_23
REMARK                            x       y       z     vdW  Elec       q    Type
REMARK                         _______ _______ _______ _____ _____    ______ ____
ROOT
ATOM      1  C   UNL     1      45.168   7.162  12.505  0.00  0.00    +0.000 C 
ENDROOT
BRANCH   1   2
ATOM      2  C   UNL     1      45.154   5.975  11.559  0.00  0.00    +0.000 A 
ATOM      3  C   UNL     1      44.604   4.749  11.967  0.00  0.00    +0.000 A 
ATOM      4  C   UNL     1      44.495   3.688  11.064  0.00  0.00    +0.000 A 
ATOM      5  C   UNL     1      44.933   3.845   9.749  0.00  0.00    +0.000 A 
ATOM      6  C   UNL     1      45.578   5.019   9.372  0.00  0.00    +0.000 A 
ATOM      7  C   UNL     1      45.687   6.074  10.270  0.00  0.00    +0.000 A 
BRANCH   5   8
ATOM      8  O   UNL     1      44.674   2.809   8.893  0.00  0.00    +0.000 OA
BRANCH   8   9
ATOM      9  C   UNL     1      45.747   1.864   8.789  0.00  0.00    +0.000 C 
BRANCH   9  10
ATOM     10  C   UNL     1      46.352   1.915   7.411  0.00  0.00    +0.000 A 
ATOM     11  C   UNL     1      46.321   3.104   6.684  0.00  0.00    +0.000 A 
ATOM     12  C   UNL     1      46.926   3.137   5.434  0.00  0.00    +0.000 A 
ATOM     13  C   UNL     1      47.547   1.992   4.951  0.00  0.00    +0.000 A 
ATOM     14  C   UNL     1      47.543   0.855   5.743  0.00  0.00    +0.000 A 
ATOM     15  N   UNL     1      46.969   0.793   6.962  0.00  0.00    +0.000 NA
ENDBRANCH   9  10
ENDBRANCH   8   9
ENDBRANCH   5   8
ENDBRANCH   1   2
BRANCH   1  16
ATOM     16  N   UNL     1      46.021   6.842  13.635  0.00  0.00    +0.000 N 
ATOM     17  C   UNL     1      47.384   6.729  13.491  0.00  0.00    +0.000 C 
ATOM     18  O   UNL     1      47.954   6.883  12.419  0.00  0.00    +0.000 OA
ATOM     19  H   UNL     1      45.583   6.584  14.507  0.00  0.00    +0.000 HD
BRANCH  17  20
ATOM     20  C   UNL     1      48.116   6.479  14.731  0.00  0.00    +0.000 A 
ATOM     21  C   UNL     1      49.026   7.365  15.283  0.00  0.00    +0.000 A 
ATOM     22  S   UNL     1      49.874   6.708  16.615  0.00  0.00    +0.000 S 
ATOM     23  C   UNL     1      49.043   5.227  16.486  0.00  0.00    +0.000 A 
ATOM     24  N   UNL     1      49.338   4.175  17.295  0.00  0.00    +0.000 NA
ATOM     25  C   UNL     1      48.636   3.115  17.060  0.00  0.00    +0.000 A 
ATOM     26  N   UNL     1      47.644   3.023  16.116  0.00  0.00    +0.000 N 
ATOM     27  C   UNL     1      47.233   4.096  15.358  0.00  0.00    +0.000 A 
ATOM     28  O   UNL     1      46.188   4.056  14.716  0.00  0.00    +0.000 OA
ATOM     29  C   UNL     1      48.083   5.263  15.494  0.00  0.00    +0.000 A 
ATOM     30  H   UNL     1      47.072   2.195  16.048  0.00  0.00    +0.000 HD
ENDBRANCH  17  20
ENDBRANCH   1  16
BRANCH   1  32
ATOM     31  C   UNL     1      44.445   9.324  11.326  0.00  0.00    +0.000 C 
ATOM     32  C   UNL     1      45.610   8.491  11.851  0.00  0.00    +0.000 C 
ENDBRANCH   1  32
TORSDOF 7
ENDMDL
MODEL 6
REMARK VINA RESULT:    -7.326      4.159      6.812
REMARK INTER + INTRA:         -11.103
REMARK INTER:                  -9.825
REMARK INTRA:                  -1.278
REMARK UNBOUND:                -0.780
REMARK  Name = 
REMARK  8 active torsions:
REMARK  status: ('A' for Active; 'I' for Inactive)
REMARK    1  A    between atoms: C_1  and  C_2
REMARK    2  A    between atoms: C_2  and  C_3
REMARK    3  A    between atoms: C_3  and  N_4
REMARK    4  A    between atoms: C_3  and  C_17
REMARK    5  A    between atoms: C_5  and  C_7
REMARK    6  A    between atoms: C_20  and  O_21
REMARK    7  A    between atoms: O_21  and  C_22
REMARK    8  A    between atoms: C_22  and  C_23
REMARK                            x       y       z     vdW  Elec       q    Type
REMARK                         _______ _______ _______ _____ _____    ______ ____
ROOT
ATOM      1  C   UNL     1      45.690   5.169  13.044  0.00  0.00    +0.000 C 
ENDROOT
BRANCH   1   2
ATOM      2  C   UNL     1      45.516   6.613  12.610  0.00  0.00    +0.000 A 
ATOM      3  C   UNL     1      44.602   6.944  11.597  0.00  0.00    +0.000 A 
ATOM      4  C   UNL     1      44.364   8.282  11.270  0.00  0.00    +0.000 A 
ATOM      5  C   UNL     1      45.035   9.296  11.951  0.00  0.00    +0.000 A 
ATOM      6  C   UNL     1      46.022   8.968  12.877  0.00  0.00    +0.000 A 
ATOM      7  C   UNL     1      46.259   7.639  13.203  0.00  0.00    +0.000 A 
BRANCH   5   8
ATOM      8  O   UNL     1      44.654  10.578  11.665  0.00  0.00    +0.000 OA
BRANCH   8   9
ATOM      9  C   UNL     1      43.702  10.673  10.598  0.00  0.00    +0.000 C 
BRANCH   9  10
ATOM     10  C   UNL     1      42.324  10.921  11.151  0.00  0.00    +0.000 A 
ATOM     11  C   UNL     1      41.253  10.141  10.715  0.00  0.00    +0.000 A 
ATOM     12  C   UNL     1      39.999  10.359  11.274  0.00  0.00    +0.000 A 
ATOM     13  C   UNL     1      39.853  11.336  12.250  0.00  0.00    +0.000 A 
ATOM     14  C   UNL     1      40.972  12.058  12.635  0.00  0.00    +0.000 A 
ATOM     15  N   UNL     1      42.202  11.867  12.115  0.00  0.00    +0.000 NA
ENDBRANCH   9  10
ENDBRANCH   8   9
ENDBRANCH   5   8
ENDBRANCH   1   2
BRANCH   1  16
ATOM     16  N   UNL     1      46.277   5.152  14.371  0.00  0.00    +0.000 N 
ATOM     17  C   UNL     1      47.098   4.125  14.775  0.00  0.00    +0.000 C 
ATOM     18  O   UNL     1      47.375   3.173  14.056  0.00  0.00    +0.000 OA
ATOM     19  H   UNL     1      45.976   5.848  15.036  0.00  0.00    +0.000 HD
BRANCH  17  20
ATOM     20  C   UNL     1      47.674   4.285  16.108  0.00  0.00    +0.000 A 
ATOM     21  C   UNL     1      47.454   3.407  17.157  0.00  0.00    +0.000 A 
ATOM     22  S   UNL     1      48.086   3.969  18.642  0.00  0.00    +0.000 S 
ATOM     23  C   UNL     1      48.671   5.396  17.919  0.00  0.00    +0.000 A 
ATOM     24  N   UNL     1      49.271   6.370  18.655  0.00  0.00    +0.000 NA
ATOM     25  C   UNL     1      49.640   7.400  17.965  0.00  0.00    +0.000 A 
ATOM     26  N   UNL     1      49.496   7.528  16.606  0.00  0.00    +0.000 N 
ATOM     27  C   UNL     1      49.004   6.520  15.808  0.00  0.00    +0.000 A 
ATOM     28  O   UNL     1      49.125   6.560  14.589  0.00  0.00    +0.000 OA
ATOM     29  C   UNL     1      48.454   5.405  16.556  0.00  0.00    +0.000 A 
ATOM     30  H   UNL     1      49.890   8.319  16.119  0.00  0.00    +0.000 HD
ENDBRANCH  17  20
ENDBRANCH   1  16
BRANCH   1  32
ATOM     31  C   UNL     1      44.393   3.239  11.955  0.00  0.00    +0.000 C 
ATOM     32  C   UNL     1      44.388   4.336  13.016  0.00  0.00    +0.000 C 
ENDBRANCH   1  32
TORSDOF 7
ENDMDL
MODEL 7
REMARK VINA RESULT:    -7.188      4.100      5.129
REMARK INTER + INTRA:         -10.909
REMARK INTER:                  -9.553
REMARK INTRA:                  -1.356
REMARK UNBOUND:                -0.780
REMARK  Name = 
REMARK  8 active torsions:
REMARK  status: ('A' for Active; 'I' for Inactive)
REMARK    1  A    between atoms: C_1  and  C_2
REMARK    2  A    between atoms: C_2  and  C_3
REMARK    3  A    between atoms: C_3  and  N_4
REMARK    4  A    between atoms: C_3  and  C_17
REMARK    5  A    between atoms: C_5  and  C_7
REMARK    6  A    between atoms: C_20  and  O_21
REMARK    7  A    between atoms: O_21  and  C_22
REMARK    8  A    between atoms: C_22  and  C_23
REMARK                            x       y       z     vdW  Elec       q    Type
REMARK                         _______ _______ _______ _____ _____    ______ ____
ROOT
ATOM      1  C   UNL     1      46.545   7.614  12.953  0.00  0.00    +0.000 C 
ENDROOT
BRANCH   1   2
ATOM      2  C   UNL     1      46.155   6.327  12.247  0.00  0.00    +0.000 A 
ATOM      3  C   UNL     1      46.237   5.097  12.919  0.00  0.00    +0.000 A 
ATOM      4  C   UNL     1      45.780   3.926  12.308  0.00  0.00    +0.000 A 
ATOM      5  C   UNL     1      45.239   3.976  11.024  0.00  0.00    +0.000 A 
ATOM      6  C   UNL     1      45.259   5.173  10.314  0.00  0.00    +0.000 A 
ATOM      7  C   UNL     1      45.712   6.338  10.921  0.00  0.00    +0.000 A 
BRANCH   5   8
ATOM      8  O   UNL     1      44.696   2.815  10.546  0.00  0.00    +0.000 OA
BRANCH   8   9
ATOM      9  C   UNL     1      44.349   2.869   9.156  0.00  0.00    +0.000 C 
BRANCH   9  10
ATOM     10  C   UNL     1      45.501   2.393   8.313  0.00  0.00    +0.000 A 
ATOM     11  C   UNL     1      46.199   3.300   7.517  0.00  0.00    +0.000 A 
ATOM     12  C   UNL     1      47.287   2.843   6.783  0.00  0.00    +0.000 A 
ATOM     13  C   UNL     1      47.650   1.505   6.869  0.00  0.00    +0.000 A 
ATOM     14  C   UNL     1      46.910   0.673   7.695  0.00  0.00    +0.000 A 
ATOM     15  N   UNL     1      45.853   1.087   8.423  0.00  0.00    +0.000 NA
ENDBRANCH   9  10
ENDBRANCH   8   9
ENDBRANCH   5   8
ENDBRANCH   1   2
BRANCH   1  16
ATOM     16  N   UNL     1      47.764   8.120  12.351  0.00  0.00    +0.000 N 
ATOM     17  C   UNL     1      48.999   7.656  12.742  0.00  0.00    +0.000 C 
ATOM     18  O   UNL     1      49.145   6.806  13.610  0.00  0.00    +0.000 OA
ATOM     19  H   UNL     1      47.697   8.908  11.724  0.00  0.00    +0.000 HD
BRANCH  17  20
ATOM     20  C   UNL     1      50.128   8.203  11.993  0.00  0.00    +0.000 A 
ATOM     21  C   UNL     1      50.856   7.485  11.058  0.00  0.00    +0.000 A 
ATOM     22  S   UNL     1      52.241   8.322  10.505  0.00  0.00    +0.000 S 
ATOM     23  C   UNL     1      51.898   9.663  11.498  0.00  0.00    +0.000 A 
ATOM     24  N   UNL     1      52.738  10.730  11.564  0.00  0.00    +0.000 NA
ATOM     25  C   UNL     1      52.350  11.657  12.378  0.00  0.00    +0.000 A 
ATOM     26  N   UNL     1      51.184  11.629  13.103  0.00  0.00    +0.000 N 
ATOM     27  C   UNL     1      50.250  10.626  12.977  0.00  0.00    +0.000 A 
ATOM     28  O   UNL     1      49.119  10.752  13.432  0.00  0.00    +0.000 OA
ATOM     29  C   UNL     1      50.707   9.504  12.179  0.00  0.00    +0.000 A 
ATOM     30  H   UNL     1      50.898  12.427  13.649  0.00  0.00    +0.000 HD
ENDBRANCH  17  20
ENDBRANCH   1  16
BRANCH   1  32
ATOM     31  C   UNL     1      45.807   9.923  12.109  0.00  0.00    +0.000 C 
ATOM     32  C   UNL     1      45.445   8.700  12.947  0.00  0.00    +0.000 C 
ENDBRANCH   1  32
TORSDOF 7
ENDMDL
MODEL 8
REMARK VINA RESULT:    -7.102      2.970      4.161
REMARK INTER + INTRA:         -10.788
REMARK INTER:                  -9.547
REMARK INTRA:                  -1.241
REMARK UNBOUND:                -0.780
REMARK  Name = 
REMARK  8 active torsions:
REMARK  status: ('A' for Active; 'I' for Inactive)
REMARK    1  A    between atoms: C_1  and  C_2
REMARK    2  A    between atoms: C_2  and  C_3
REMARK    3  A    between atoms: C_3  and  N_4
REMARK    4  A    between atoms: C_3  and  C_17
REMARK    5  A    between atoms: C_5  and  C_7
REMARK    6  A    between atoms: C_20  and  O_21
REMARK    7  A    between atoms: O_21  and  C_22
REMARK    8  A    between atoms: C_22  and  C_23
REMARK                            x       y       z     vdW  Elec       q    Type
REMARK                         _______ _______ _______ _____ _____    ______ ____
ROOT
ATOM      1  C   UNL     1      47.584   5.037  14.798  0.00  0.00    +0.000 C 
ENDROOT
BRANCH   1   2
ATOM      2  C   UNL     1      46.643   4.728  13.648  0.00  0.00    +0.000 A 
ATOM      3  C   UNL     1      46.173   5.760  12.819  0.00  0.00    +0.000 A 
ATOM      4  C   UNL     1      45.392   5.465  11.698  0.00  0.00    +0.000 A 
ATOM      5  C   UNL     1      45.076   4.141  11.397  0.00  0.00    +0.000 A 
ATOM      6  C   UNL     1      45.446   3.127  12.277  0.00  0.00    +0.000 A 
ATOM      7  C   UNL     1      46.223   3.418  13.391  0.00  0.00    +0.000 A 
BRANCH   5   8
ATOM      8  O   UNL     1      44.421   3.924  10.216  0.00  0.00    +0.000 OA
BRANCH   8   9
ATOM      9  C   UNL     1      45.094   4.467   9.073  0.00  0.00    +0.000 C 
BRANCH   9  10
ATOM     10  C   UNL     1      45.817   3.376   8.329  0.00  0.00    +0.000 A 
ATOM     11  C   UNL     1      46.730   3.707   7.329  0.00  0.00    +0.000 A 
ATOM     12  C   UNL     1      47.417   2.684   6.688  0.00  0.00    +0.000 A 
ATOM     13  C   UNL     1      47.181   1.368   7.065  0.00  0.00    +0.000 A 
ATOM     14  C   UNL     1      46.266   1.126   8.078  0.00  0.00    +0.000 A 
ATOM     15  N   UNL     1      45.588   2.098   8.722  0.00  0.00    +0.000 NA
ENDBRANCH   9  10
ENDBRANCH   8   9
ENDBRANCH   5   8
ENDBRANCH   1   2
BRANCH   1  16
ATOM     16  N   UNL     1      47.702   6.478  14.924  0.00  0.00    +0.000 N 
ATOM     17  C   UNL     1      48.914   7.075  15.181  0.00  0.00    +0.000 C 
ATOM     18  O   UNL     1      49.951   6.440  15.322  0.00  0.00    +0.000 OA
ATOM     19  H   UNL     1      46.855   7.027  14.941  0.00  0.00    +0.000 HD
BRANCH  17  20
ATOM     20  C   UNL     1      48.888   8.536  15.204  0.00  0.00    +0.000 A 
ATOM     21  C   UNL     1      49.151   9.332  14.101  0.00  0.00    +0.000 A 
ATOM     22  S   UNL     1      49.252  10.994  14.487  0.00  0.00    +0.000 S 
ATOM     23  C   UNL     1      48.944  10.690  16.134  0.00  0.00    +0.000 A 
ATOM     24  N   UNL     1      48.958  11.691  17.055  0.00  0.00    +0.000 NA
ATOM     25  C   UNL     1      48.728  11.297  18.265  0.00  0.00    +0.000 A 
ATOM     26  N   UNL     1      48.451  10.003  18.631  0.00  0.00    +0.000 N 
ATOM     27  C   UNL     1      48.310   8.982  17.718  0.00  0.00    +0.000 A 
ATOM     28  O   UNL     1      47.815   7.908  18.040  0.00  0.00    +0.000 OA
ATOM     29  C   UNL     1      48.693   9.353  16.369  0.00  0.00    +0.000 A 
ATOM     30  H   UNL     1      48.189   9.781  19.580  0.00  0.00    +0.000 HD
ENDBRANCH  17  20
ENDBRANCH   1  16
BRANCH   1  32
ATOM     31  C   UNL     1      48.075   3.259  16.584  0.00  0.00    +0.000 C 
ATOM     32  C   UNL     1      47.168   4.406  16.146  0.00  0.00    +0.000 C 
ENDBRANCH   1  32
TORSDOF 7
ENDMDL
MODEL 9
REMARK VINA RESULT:    -7.042      4.243      6.241
REMARK INTER + INTRA:         -10.703
REMARK INTER:                  -9.208
REMARK INTRA:                  -1.495
REMARK UNBOUND:                -0.780
REMARK  Name = 
REMARK  8 active torsions:
REMARK  status: ('A' for Active; 'I' for Inactive)
REMARK    1  A    between atoms: C_1  and  C_2
REMARK    2  A    between atoms: C_2  and  C_3
REMARK    3  A    between atoms: C_3  and  N_4
REMARK    4  A    between atoms: C_3  and  C_17
REMARK    5  A    between atoms: C_5  and  C_7
REMARK    6  A    between atoms: C_20  and  O_21
REMARK    7  A    between atoms: O_21  and  C_22
REMARK    8  A    between atoms: C_22  and  C_23
REMARK                            x       y       z     vdW  Elec       q    Type
REMARK                         _______ _______ _______ _____ _____    ______ ____
ROOT
ATOM      1  C   UNL     1      45.533   5.098  13.045  0.00  0.00    +0.000 C 
ENDROOT
BRANCH   1   2
ATOM      2  C   UNL     1      45.415   6.529  12.553  0.00  0.00    +0.000 A 
ATOM      3  C   UNL     1      44.495   6.860  11.546  0.00  0.00    +0.000 A 
ATOM      4  C   UNL     1      44.311   8.193  11.166  0.00  0.00    +0.000 A 
ATOM      5  C   UNL     1      45.044   9.202  11.789  0.00  0.00    +0.000 A 
ATOM      6  C   UNL     1      46.035   8.868  12.707  0.00  0.00    +0.000 A 
ATOM      7  C   UNL     1      46.218   7.543  13.086  0.00  0.00    +0.000 A 
BRANCH   5   8
ATOM      8  O   UNL     1      44.716  10.487  11.456  0.00  0.00    +0.000 OA
BRANCH   8   9
ATOM      9  C   UNL     1      45.740  11.443  11.762  0.00  0.00    +0.000 C 
BRANCH   9  10
ATOM     10  C   UNL     1      46.476  11.835  10.510  0.00  0.00    +0.000 A 
ATOM     11  C   UNL     1      47.869  11.775  10.478  0.00  0.00    +0.000 A 
ATOM     12  C   UNL     1      48.524  12.098   9.296  0.00  0.00    +0.000 A 
ATOM     13  C   UNL     1      47.775  12.463   8.184  0.00  0.00    +0.000 A 
ATOM     14  C   UNL     1      46.394  12.484   8.297  0.00  0.00    +0.000 A 
ATOM     15  N   UNL     1      45.730  12.171   9.429  0.00  0.00    +0.000 NA
ENDBRANCH   9  10
ENDBRANCH   8   9
ENDBRANCH   5   8
ENDBRANCH   1   2
BRANCH   1  16
ATOM     16  N   UNL     1      46.162   5.109  14.353  0.00  0.00    +0.000 N 
ATOM     17  C   UNL     1      47.034   4.115  14.733  0.00  0.00    +0.000 C 
ATOM     18  O   UNL     1      47.325   3.173  14.009  0.00  0.00    +0.000 OA
ATOM     19  H   UNL     1      45.855   5.795  15.026  0.00  0.00    +0.000 HD
BRANCH  17  20
ATOM     20  C   UNL     1      47.645   4.303  16.047  0.00  0.00    +0.000 A 
ATOM     21  C   UNL     1      47.435   3.459  17.126  0.00  0.00    +0.000 A 
ATOM     22  S   UNL     1      48.114   4.051  18.579  0.00  0.00    +0.000 S 
ATOM     23  C   UNL     1      48.706   5.446  17.801  0.00  0.00    +0.000 A 
ATOM     24  N   UNL     1      49.341   6.429  18.494  0.00  0.00    +0.000 NA
ATOM     25  C   UNL     1      49.711   7.432  17.766  0.00  0.00    +0.000 A 
ATOM     26  N   UNL     1      49.537   7.524  16.408  0.00  0.00    +0.000 N 
ATOM     27  C   UNL     1      49.007   6.503  15.652  0.00  0.00    +0.000 A 
ATOM     28  O   UNL     1      49.099   6.506  14.429  0.00  0.00    +0.000 OA
ATOM     29  C   UNL     1      48.456   5.420  16.444  0.00  0.00    +0.000 A 
ATOM     30  H   UNL     1      49.933   8.293  15.888  0.00  0.00    +0.000 HD
ENDBRANCH  17  20
ENDBRANCH   1  16
BRANCH   1  32
ATOM     31  C   UNL     1      44.129   3.156  12.125  0.00  0.00    +0.000 C 
ATOM     32  C   UNL     1      44.191   4.332  13.095  0.00  0.00    +0.000 C 
ENDBRANCH   1  32
TORSDOF 7
ENDMDL
