MODEL 1
REMARK VINA RESULT:    -7.476      0.000      0.000
REMARK INTER + INTRA:         -11.418
REMARK INTER:                 -10.535
REMARK INTRA:                  -0.883
REMARK UNBOUND:                -0.883
REMARK  Name = 
REMARK  7 active torsions:
REMARK  status: ('A' for Active; 'I' for Inactive)
REMARK    1  A    between atoms: C_2  and  C_3
REMARK    2  A    between atoms: C_4  and  C_5
REMARK    3  A    between atoms: C_9  and  C_10
REMARK    4  A    between atoms: C_10  and  C_11
REMARK    5  A    between atoms: C_11  and  N_12
REMARK    6  A    between atoms: N_12  and  C_13
REMARK    7  A    between atoms: C_16  and  C_17
REMARK                            x       y       z     vdW  Elec       q    Type
REMARK                         _______ _______ _______ _____ _____    ______ ____
ROOT
ATOM      1  N   UNL     1      43.767   4.365  10.272  0.00  0.00    +0.000 N 
ATOM      2  H   UNL     1      43.947   5.352  10.424  0.00  0.00    +0.000 HD
ENDROOT
BRANCH   1   3
ATOM      3  C   UNL     1      44.616   3.743   9.351  0.00  0.00    +0.000 A 
ATOM      4  C   UNL     1      45.476   4.457   8.509  0.00  0.00    +0.000 A 
ATOM      5  C   UNL     1      46.382   3.809   7.660  0.00  0.00    +0.000 A 
ATOM      6  C   UNL     1      46.475   2.416   7.656  0.00  0.00    +0.000 A 
ATOM      7  C   UNL     1      45.641   1.679   8.499  0.00  0.00    +0.000 A 
ATOM      8  C   UNL     1      44.726   2.342   9.341  0.00  0.00    +0.000 A 
BRANCH   6   9
ATOM      9  C   UNL     1      47.453   1.793   6.727  0.00  0.00    +0.000 C 
ATOM     10  N   UNL     1      48.475   2.570   6.258  0.00  0.00    +0.000 N 
ATOM     11  O   UNL     1      47.335   0.630   6.359  0.00  0.00    +0.000 OA
ATOM     12  H   UNL     1      48.522   3.570   6.384  0.00  0.00    +0.000 HD
ATOM     13  H   UNL     1      49.069   2.150   5.554  0.00  0.00    +0.000 HD
ENDBRANCH   6   9
ENDBRANCH   1   3
BRANCH   1  14
ATOM     14  C   UNL     1      43.223   3.606  11.404  0.00  0.00    +0.000 C 
BRANCH  14  15
ATOM     15  C   UNL     1      43.299   4.387  12.718  0.00  0.00    +0.000 C 
BRANCH  15  20
ATOM     16  C   UNL     1      45.883   7.029  12.956  0.00  0.00    +0.000 A 
ATOM     17  C   UNL     1      47.063   6.333  13.204  0.00  0.00    +0.000 A 
ATOM     18  C   UNL     1      47.014   4.952  13.287  0.00  0.00    +0.000 A 
ATOM     19  C   UNL     1      45.794   4.295  13.131  0.00  0.00    +0.000 A 
ATOM     20  C   UNL     1      44.649   5.048  12.892  0.00  0.00    +0.000 A 
ATOM     21  N   UNL     1      44.686   6.400  12.813  0.00  0.00    +0.000 NA
BRANCH  16  23
ATOM     22  C   UNL     1      45.040   9.121  11.996  0.00  0.00    +0.000 C 
ATOM     23  C   UNL     1      45.892   8.489  12.814  0.00  0.00    +0.000 C 
BRANCH  22  25
ATOM     24  N   UNL     1      45.082  11.875  11.608  0.00  0.00    +0.000 NA
ATOM     25  C   UNL     1      45.063  10.626  11.783  0.00  0.00    +0.000 C 
ENDBRANCH  22  25
ENDBRANCH  16  23
ENDBRANCH  15  20
ENDBRANCH  14  15
ENDBRANCH   1  14
TORSDOF 7
ENDMDL
MODEL 2
REMARK VINA RESULT:    -7.437      2.162      3.971
REMARK INTER + INTRA:         -11.363
REMARK INTER:                 -10.707
REMARK INTRA:                  -0.656
REMARK UNBOUND:                -0.883
REMARK  Name = 
REMARK  7 active torsions:
REMARK  status: ('A' for Active; 'I' for Inactive)
REMARK    1  A    between atoms: C_2  and  C_3
REMARK    2  A    between atoms: C_4  and  C_5
REMARK    3  A    between atoms: C_9  and  C_10
REMARK    4  A    between atoms: C_10  and  C_11
REMARK    5  A    between atoms: C_11  and  N_12
REMARK    6  A    between atoms: N_12  and  C_13
REMARK    7  A    between atoms: C_16  and  C_17
REMARK                            x       y       z     vdW  Elec       q    Type
REMARK                         _______ _______ _______ _____ _____    ______ ____
ROOT
ATOM      1  N   UNL     1      43.579   4.410  10.103  0.00  0.00    +0.000 N 
ATOM      2  H   UNL     1      43.506   5.410   9.946  0.00  0.00    +0.000 HD
ENDROOT
BRANCH   1   3
ATOM      3  C   UNL     1      44.585   3.768   9.374  0.00  0.00    +0.000 A 
ATOM      4  C   UNL     1      44.732   2.376   9.346  0.00  0.00    +0.000 A 
ATOM      5  C   UNL     1      45.689   1.751   8.537  0.00  0.00    +0.000 A 
ATOM      6  C   UNL     1      46.510   2.510   7.700  0.00  0.00    +0.000 A 
ATOM      7  C   UNL     1      46.373   3.899   7.694  0.00  0.00    +0.000 A 
ATOM      8  C   UNL     1      45.414   4.517   8.521  0.00  0.00    +0.000 A 
BRANCH   6   9
ATOM      9  C   UNL     1      47.508   1.784   6.873  0.00  0.00    +0.000 C 
ATOM     10  N   UNL     1      48.542   2.501   6.341  0.00  0.00    +0.000 N 
ATOM     11  O   UNL     1      47.398   0.585   6.642  0.00  0.00    +0.000 OA
ATOM     12  H   UNL     1      48.588   3.509   6.351  0.00  0.00    +0.000 HD
ATOM     13  H   UNL     1      49.153   2.003   5.705  0.00  0.00    +0.000 HD
ENDBRANCH   6   9
ENDBRANCH   1   3
BRANCH   1  14
ATOM     14  C   UNL     1      43.202   3.916  11.432  0.00  0.00    +0.000 C 
BRANCH  14  15
ATOM     15  C   UNL     1      43.291   5.005  12.504  0.00  0.00    +0.000 C 
BRANCH  15  20
ATOM     16  C   UNL     1      46.615   4.823  14.127  0.00  0.00    +0.000 A 
ATOM     17  C   UNL     1      47.348   5.842  13.524  0.00  0.00    +0.000 A 
ATOM     18  C   UNL     1      46.730   6.622  12.560  0.00  0.00    +0.000 A 
ATOM     19  C   UNL     1      45.405   6.366  12.212  0.00  0.00    +0.000 A 
ATOM     20  C   UNL     1      44.730   5.328  12.847  0.00  0.00    +0.000 A 
ATOM     21  N   UNL     1      45.327   4.557  13.787  0.00  0.00    +0.000 NA
BRANCH  16  23
ATOM     22  C   UNL     1      47.447   4.491  16.409  0.00  0.00    +0.000 C 
ATOM     23  C   UNL     1      47.212   4.000  15.184  0.00  0.00    +0.000 C 
BRANCH  22  25
ATOM     24  N   UNL     1      48.672   3.009  18.418  0.00  0.00    +0.000 NA
ATOM     25  C   UNL     1      48.117   3.682  17.507  0.00  0.00    +0.000 C 
ENDBRANCH  22  25
ENDBRANCH  16  23
ENDBRANCH  15  20
ENDBRANCH  14  15
ENDBRANCH   1  14
TORSDOF 7
ENDMDL
MODEL 3
REMARK VINA RESULT:    -6.763      2.081      2.445
REMARK INTER + INTRA:         -10.414
REMARK INTER:                  -9.722
REMARK INTRA:                  -0.692
REMARK UNBOUND:                -0.883
REMARK  Name = 
REMARK  7 active torsions:
REMARK  status: ('A' for Active; 'I' for Inactive)
REMARK    1  A    between atoms: C_2  and  C_3
REMARK    2  A    between atoms: C_4  and  C_5
REMARK    3  A    between atoms: C_9  and  C_10
REMARK    4  A    between atoms: C_10  and  C_11
REMARK    5  A    between atoms: C_11  and  N_12
REMARK    6  A    between atoms: N_12  and  C_13
REMARK    7  A    between atoms: C_16  and  C_17
REMARK                            x       y       z     vdW  Elec       q    Type
REMARK                         _______ _______ _______ _____ _____    ______ ____
ROOT
ATOM      1  N   UNL     1      44.479   3.640  10.343  0.00  0.00    +0.000 N 
ATOM      2  H   UNL     1      44.247   2.912  11.011  0.00  0.00    +0.000 HD
ENDROOT
BRANCH   1   3
ATOM      3  C   UNL     1      45.153   3.202   9.199  0.00  0.00    +0.000 A 
ATOM      4  C   UNL     1      45.654   4.079   8.230  0.00  0.00    +0.000 A 
ATOM      5  C   UNL     1      46.405   3.623   7.140  0.00  0.00    +0.000 A 
ATOM      6  C   UNL     1      46.705   2.266   7.007  0.00  0.00    +0.000 A 
ATOM      7  C   UNL     1      46.233   1.371   7.968  0.00  0.00    +0.000 A 
ATOM      8  C   UNL     1      45.469   1.840   9.055  0.00  0.00    +0.000 A 
BRANCH   6   9
ATOM      9  C   UNL     1      47.500   1.849   5.822  0.00  0.00    +0.000 C 
ATOM     10  N   UNL     1      48.280   2.790   5.212  0.00  0.00    +0.000 N 
ATOM     11  O   UNL     1      47.437   0.709   5.379  0.00  0.00    +0.000 OA
ATOM     12  H   UNL     1      48.237   3.776   5.422  0.00  0.00    +0.000 HD
ATOM     13  H   UNL     1      48.736   2.506   4.353  0.00  0.00    +0.000 HD
ENDBRANCH   6   9
ENDBRANCH   1   3
BRANCH   1  14
ATOM     14  C   UNL     1      43.569   4.789  10.269  0.00  0.00    +0.000 C 
BRANCH  14  15
ATOM     15  C   UNL     1      43.549   5.600  11.566  0.00  0.00    +0.000 C 
BRANCH  15  20
ATOM     16  C   UNL     1      47.077   6.455  12.300  0.00  0.00    +0.000 A 
ATOM     17  C   UNL     1      47.397   5.674  13.407  0.00  0.00    +0.000 A 
ATOM     18  C   UNL     1      46.428   4.831  13.925  0.00  0.00    +0.000 A 
ATOM     19  C   UNL     1      45.164   4.791  13.339  0.00  0.00    +0.000 A 
ATOM     20  C   UNL     1      44.905   5.602  12.239  0.00  0.00    +0.000 A 
ATOM     21  N   UNL     1      45.845   6.433  11.727  0.00  0.00    +0.000 NA
BRANCH  16  23
ATOM     22  C   UNL     1      49.367   7.303  12.075  0.00  0.00    +0.000 C 
ATOM     23  C   UNL     1      48.083   7.330  11.688  0.00  0.00    +0.000 C 
BRANCH  22  25
ATOM     24  N   UNL     1      51.294   9.010  11.024  0.00  0.00    +0.000 NA
ATOM     25  C   UNL     1      50.420   8.237  11.501  0.00  0.00    +0.000 C 
ENDBRANCH  22  25
ENDBRANCH  16  23
ENDBRANCH  15  20
ENDBRANCH  14  15
ENDBRANCH   1  14
TORSDOF 7
ENDMDL
MODEL 4
REMARK VINA RESULT:    -6.471      2.123      3.205
REMARK INTER + INTRA:         -10.003
REMARK INTER:                  -9.359
REMARK INTRA:                  -0.644
REMARK UNBOUND:                -0.883
REMARK  Name = 
REMARK  7 active torsions:
REMARK  status: ('A' for Active; 'I' for Inactive)
REMARK    1  A    between atoms: C_2  and  C_3
REMARK    2  A    between atoms: C_4  and  C_5
REMARK    3  A    between atoms: C_9  and  C_10
REMARK    4  A    between atoms: C_10  and  C_11
REMARK    5  A    between atoms: C_11  and  N_12
REMARK    6  A    between atoms: N_12  and  C_13
REMARK    7  A    between atoms: C_16  and  C_17
REMARK                            x       y       z     vdW  Elec       q    Type
REMARK                         _______ _______ _______ _____ _____    ______ ____
ROOT
ATOM      1  N   UNL     1      43.524   3.653  10.535  0.00  0.00    +0.000 N 
ATOM      2  H   UNL     1      42.685   3.081  10.526  0.00  0.00    +0.000 HD
ENDROOT
BRANCH   1   3
ATOM      3  C   UNL     1      44.445   3.371   9.522  0.00  0.00    +0.000 A 
ATOM      4  C   UNL     1      45.091   4.369   8.784  0.00  0.00    +0.000 A 
ATOM      5  C   UNL     1      46.077   4.065   7.837  0.00  0.00    +0.000 A 
ATOM      6  C   UNL     1      46.469   2.742   7.626  0.00  0.00    +0.000 A 
ATOM      7  C   UNL     1      45.854   1.727   8.361  0.00  0.00    +0.000 A 
ATOM      8  C   UNL     1      44.856   2.045   9.303  0.00  0.00    +0.000 A 
BRANCH   6   9
ATOM      9  C   UNL     1      47.516   2.489   6.602  0.00  0.00    +0.000 C 
ATOM     10  N   UNL     1      47.392   3.112   5.392  0.00  0.00    +0.000 N 
ATOM     11  O   UNL     1      48.447   1.721   6.814  0.00  0.00    +0.000 OA
ATOM     12  H   UNL     1      46.564   3.611   5.101  0.00  0.00    +0.000 HD
ATOM     13  H   UNL     1      48.064   2.849   4.681  0.00  0.00    +0.000 HD
ENDBRANCH   6   9
ENDBRANCH   1   3
BRANCH   1  14
ATOM     14  C   UNL     1      43.390   5.021  11.051  0.00  0.00    +0.000 C 
BRANCH  14  15
ATOM     15  C   UNL     1      43.957   5.167  12.465  0.00  0.00    +0.000 C 
BRANCH  15  20
ATOM     16  C   UNL     1      47.150   6.873  13.250  0.00  0.00    +0.000 A 
ATOM     17  C   UNL     1      47.016   8.134  12.674  0.00  0.00    +0.000 A 
ATOM     18  C   UNL     1      45.838   8.440  12.014  0.00  0.00    +0.000 A 
ATOM     19  C   UNL     1      44.825   7.485  11.934  0.00  0.00    +0.000 A 
ATOM     20  C   UNL     1      45.023   6.242  12.525  0.00  0.00    +0.000 A 
ATOM     21  N   UNL     1      46.174   5.931  13.168  0.00  0.00    +0.000 NA
BRANCH  16  23
ATOM     22  C   UNL     1      48.834   7.298  14.980  0.00  0.00    +0.000 C 
ATOM     23  C   UNL     1      48.361   6.518  13.997  0.00  0.00    +0.000 C 
BRANCH  22  25
ATOM     24  N   UNL     1      51.183   6.732  16.357  0.00  0.00    +0.000 NA
ATOM     25  C   UNL     1      50.118   6.988  15.732  0.00  0.00    +0.000 C 
ENDBRANCH  22  25
ENDBRANCH  16  23
ENDBRANCH  15  20
ENDBRANCH  14  15
ENDBRANCH   1  14
TORSDOF 7
ENDMDL
MODEL 5
REMARK VINA RESULT:    -6.310      4.212     10.173
REMARK INTER + INTRA:          -9.776
REMARK INTER:                  -9.282
REMARK INTRA:                  -0.495
REMARK UNBOUND:                -0.883
REMARK  Name = 
REMARK  7 active torsions:
REMARK  status: ('A' for Active; 'I' for Inactive)
REMARK    1  A    between atoms: C_2  and  C_3
REMARK    2  A    between atoms: C_4  and  C_5
REMARK    3  A    between atoms: C_9  and  C_10
REMARK    4  A    between atoms: C_10  and  C_11
REMARK    5  A    between atoms: C_11  and  N_12
REMARK    6  A    between atoms: N_12  and  C_13
REMARK    7  A    between atoms: C_16  and  C_17
REMARK                            x       y       z     vdW  Elec       q    Type
REMARK                         _______ _______ _______ _____ _____    ______ ____
ROOT
ATOM      1  N   UNL     1      47.189   3.525   6.776  0.00  0.00    +0.000 N 
ATOM      2  H   UNL     1      47.768   4.359   6.771  0.00  0.00    +0.000 HD
ENDROOT
BRANCH   1   3
ATOM      3  C   UNL     1      46.238   3.471   7.799  0.00  0.00    +0.000 A 
ATOM      4  C   UNL     1      45.738   2.266   8.309  0.00  0.00    +0.000 A 
ATOM      5  C   UNL     1      44.855   2.235   9.395  0.00  0.00    +0.000 A 
ATOM      6  C   UNL     1      44.469   3.419  10.027  0.00  0.00    +0.000 A 
ATOM      7  C   UNL     1      44.965   4.633   9.550  0.00  0.00    +0.000 A 
ATOM      8  C   UNL     1      45.846   4.653   8.450  0.00  0.00    +0.000 A 
BRANCH   6   9
ATOM      9  C   UNL     1      43.524   3.314  11.168  0.00  0.00    +0.000 C 
ATOM     10  N   UNL     1      43.389   2.099  11.779  0.00  0.00    +0.000 N 
ATOM     11  O   UNL     1      42.856   4.274  11.536  0.00  0.00    +0.000 OA
ATOM     12  H   UNL     1      43.776   1.242  11.413  0.00  0.00    +0.000 HD
ATOM     13  H   UNL     1      42.671   2.032  12.490  0.00  0.00    +0.000 HD
ENDBRANCH   6   9
ENDBRANCH   1   3
BRANCH   1  14
ATOM     14  C   UNL     1      46.913   2.898   5.478  0.00  0.00    +0.000 C 
BRANCH  14  15
ATOM     15  C   UNL     1      47.629   1.555   5.317  0.00  0.00    +0.000 C 
BRANCH  15  20
ATOM     16  C   UNL     1      46.576  -1.451   3.428  0.00  0.00    +0.000 A 
ATOM     17  C   UNL     1      45.768  -0.951   2.410  0.00  0.00    +0.000 A 
ATOM     18  C   UNL     1      45.569   0.417   2.333  0.00  0.00    +0.000 A 
ATOM     19  C   UNL     1      46.168   1.255   3.273  0.00  0.00    +0.000 A 
ATOM     20  C   UNL     1      46.958   0.692   4.269  0.00  0.00    +0.000 A 
ATOM     21  N   UNL     1      47.156  -0.645   4.356  0.00  0.00    +0.000 NA
BRANCH  16  23
ATOM     22  C   UNL     1      46.595  -3.581   4.642  0.00  0.00    +0.000 C 
ATOM     23  C   UNL     1      46.852  -2.888   3.523  0.00  0.00    +0.000 C 
BRANCH  22  25
ATOM     24  N   UNL     1      47.197  -6.282   4.916  0.00  0.00    +0.000 NA
ATOM     25  C   UNL     1      46.925  -5.057   4.792  0.00  0.00    +0.000 C 
ENDBRANCH  22  25
ENDBRANCH  16  23
ENDBRANCH  15  20
ENDBRANCH  14  15
ENDBRANCH   1  14
TORSDOF 7
ENDMDL
MODEL 6
REMARK VINA RESULT:    -6.289      4.810      7.278
REMARK INTER + INTRA:          -9.745
REMARK INTER:                  -9.044
REMARK INTRA:                  -0.701
REMARK UNBOUND:                -0.883
REMARK  Name = 
REMARK  7 active torsions:
REMARK  status: ('A' for Active; 'I' for Inactive)
REMARK    1  A    between atoms: C_2  and  C_3
REMARK    2  A    between atoms: C_4  and  C_5
REMARK    3  A    between atoms: C_9  and  C_10
REMARK    4  A    between atoms: C_10  and  C_11
REMARK    5  A    between atoms: C_11  and  N_12
REMARK    6  A    between atoms: N_12  and  C_13
REMARK    7  A    between atoms: C_16  and  C_17
REMARK                            x       y       z     vdW  Elec       q    Type
REMARK                         _______ _______ _______ _____ _____    ______ ____
ROOT
ATOM      1  N   UNL     1      47.140   7.041  13.917  0.00  0.00    +0.000 N 
ATOM      2  H   UNL     1      47.029   8.048  13.858  0.00  0.00    +0.000 HD
ENDROOT
BRANCH   1   3
ATOM      3  C   UNL     1      46.361   6.305  13.019  0.00  0.00    +0.000 A 
ATOM      4  C   UNL     1      46.211   6.662  11.674  0.00  0.00    +0.000 A 
ATOM      5  C   UNL     1      45.501   5.860  10.772  0.00  0.00    +0.000 A 
ATOM      6  C   UNL     1      44.945   4.650  11.190  0.00  0.00    +0.000 A 
ATOM      7  C   UNL     1      45.093   4.260  12.522  0.00  0.00    +0.000 A 
ATOM      8  C   UNL     1      45.801   5.081  13.422  0.00  0.00    +0.000 A 
BRANCH   6   9
ATOM      9  C   UNL     1      44.198   3.851  10.183  0.00  0.00    +0.000 C 
ATOM     10  N   UNL     1      43.986   4.408   8.953  0.00  0.00    +0.000 N 
ATOM     11  O   UNL     1      43.753   2.741  10.450  0.00  0.00    +0.000 OA
ATOM     12  H   UNL     1      44.174   5.375   8.736  0.00  0.00    +0.000 HD
ATOM     13  H   UNL     1      43.395   3.883   8.320  0.00  0.00    +0.000 HD
ENDBRANCH   6   9
ENDBRANCH   1   3
BRANCH   1  14
ATOM     14  C   UNL     1      48.454   6.540  14.336  0.00  0.00    +0.000 C 
BRANCH  14  15
ATOM     15  C   UNL     1      48.650   6.619  15.852  0.00  0.00    +0.000 C 
BRANCH  15  20
ATOM     16  C   UNL     1      49.696   3.424  17.404  0.00  0.00    +0.000 A 
ATOM     17  C   UNL     1      48.500   2.765  17.674  0.00  0.00    +0.000 A 
ATOM     18  C   UNL     1      47.310   3.383  17.326  0.00  0.00    +0.000 A 
ATOM     19  C   UNL     1      47.336   4.643  16.730  0.00  0.00    +0.000 A 
ATOM     20  C   UNL     1      48.564   5.251  16.494  0.00  0.00    +0.000 A 
ATOM     21  N   UNL     1      49.733   4.657  16.833  0.00  0.00    +0.000 NA
BRANCH  16  23
ATOM     22  C   UNL     1      51.256   1.534  17.334  0.00  0.00    +0.000 C 
ATOM     23  C   UNL     1      50.983   2.790  17.713  0.00  0.00    +0.000 C 
BRANCH  22  25
ATOM     24  N   UNL     1      53.635   0.247  17.981  0.00  0.00    +0.000 NA
ATOM     25  C   UNL     1      52.556   0.830  17.688  0.00  0.00    +0.000 C 
ENDBRANCH  22  25
ENDBRANCH  16  23
ENDBRANCH  15  20
ENDBRANCH  14  15
ENDBRANCH   1  14
TORSDOF 7
ENDMDL
MODEL 7
REMARK VINA RESULT:    -6.149      3.294      7.340
REMARK INTER + INTRA:          -9.548
REMARK INTER:                  -8.527
REMARK INTRA:                  -1.022
REMARK UNBOUND:                -0.883
REMARK  Name = 
REMARK  7 active torsions:
REMARK  status: ('A' for Active; 'I' for Inactive)
REMARK    1  A    between atoms: C_2  and  C_3
REMARK    2  A    between atoms: C_4  and  C_5
REMARK    3  A    between atoms: C_9  and  C_10
REMARK    4  A    between atoms: C_10  and  C_11
REMARK    5  A    between atoms: C_11  and  N_12
REMARK    6  A    between atoms: N_12  and  C_13
REMARK    7  A    between atoms: C_16  and  C_17
REMARK                            x       y       z     vdW  Elec       q    Type
REMARK                         _______ _______ _______ _____ _____    ______ ____
ROOT
ATOM      1  N   UNL     1      46.588   6.053  11.881  0.00  0.00    +0.000 N 
ATOM      2  H   UNL     1      47.258   5.943  11.127  0.00  0.00    +0.000 HD
ENDROOT
BRANCH   1   3
ATOM      3  C   UNL     1      47.059   5.695  13.148  0.00  0.00    +0.000 A 
ATOM      4  C   UNL     1      47.886   6.526  13.914  0.00  0.00    +0.000 A 
ATOM      5  C   UNL     1      48.270   6.186  15.217  0.00  0.00    +0.000 A 
ATOM      6  C   UNL     1      47.804   5.009  15.806  0.00  0.00    +0.000 A 
ATOM      7  C   UNL     1      46.964   4.171  15.073  0.00  0.00    +0.000 A 
ATOM      8  C   UNL     1      46.593   4.518  13.758  0.00  0.00    +0.000 A 
BRANCH   6   9
ATOM      9  C   UNL     1      48.256   4.706  17.189  0.00  0.00    +0.000 C 
ATOM     10  N   UNL     1      47.307   4.624  18.169  0.00  0.00    +0.000 N 
ATOM     11  O   UNL     1      49.443   4.567  17.458  0.00  0.00    +0.000 OA
ATOM     12  H   UNL     1      46.344   4.899  18.042  0.00  0.00    +0.000 HD
ATOM     13  H   UNL     1      47.649   4.511  19.116  0.00  0.00    +0.000 HD
ENDBRANCH   6   9
ENDBRANCH   1   3
BRANCH   1  14
ATOM     14  C   UNL     1      45.596   7.125  11.738  0.00  0.00    +0.000 C 
BRANCH  14  15
ATOM     15  C   UNL     1      44.185   6.582  11.497  0.00  0.00    +0.000 C 
BRANCH  15  20
ATOM     16  C   UNL     1      44.912   3.757   9.215  0.00  0.00    +0.000 A 
ATOM     17  C   UNL     1      44.342   2.653   9.844  0.00  0.00    +0.000 A 
ATOM     18  C   UNL     1      43.689   2.840  11.051  0.00  0.00    +0.000 A 
ATOM     19  C   UNL     1      43.626   4.117  11.609  0.00  0.00    +0.000 A 
ATOM     20  C   UNL     1      44.221   5.177  10.934  0.00  0.00    +0.000 A 
ATOM     21  N   UNL     1      44.866   5.003   9.756  0.00  0.00    +0.000 NA
BRANCH  16  23
ATOM     22  C   UNL     1      46.338   2.552   7.626  0.00  0.00    +0.000 C 
ATOM     23  C   UNL     1      45.575   3.616   7.915  0.00  0.00    +0.000 C 
BRANCH  22  25
ATOM     24  N   UNL     1      47.704   2.282   5.219  0.00  0.00    +0.000 NA
ATOM     25  C   UNL     1      47.084   2.405   6.310  0.00  0.00    +0.000 C 
ENDBRANCH  22  25
ENDBRANCH  16  23
ENDBRANCH  15  20
ENDBRANCH  14  15
ENDBRANCH   1  14
TORSDOF 7
ENDMDL
MODEL 8
REMARK VINA RESULT:    -6.058      3.544      5.974
REMARK INTER + INTRA:          -9.421
REMARK INTER:                  -8.327
REMARK INTRA:                  -1.094
REMARK UNBOUND:                -0.883
REMARK  Name = 
REMARK  7 active torsions:
REMARK  status: ('A' for Active; 'I' for Inactive)
REMARK    1  A    between atoms: C_2  and  C_3
REMARK    2  A    between atoms: C_4  and  C_5
REMARK    3  A    between atoms: C_9  and  C_10
REMARK    4  A    between atoms: C_10  and  C_11
REMARK    5  A    between atoms: C_11  and  N_12
REMARK    6  A    between atoms: N_12  and  C_13
REMARK    7  A    between atoms: C_16  and  C_17
REMARK                            x       y       z     vdW  Elec       q    Type
REMARK                         _______ _______ _______ _____ _____    ______ ____
ROOT
ATOM      1  N   UNL     1      46.988   7.368  12.789  0.00  0.00    +0.000 N 
ATOM      2  H   UNL     1      46.536   8.002  13.440  0.00  0.00    +0.000 HD
ENDROOT
BRANCH   1   3
ATOM      3  C   UNL     1      46.198   6.298  12.358  0.00  0.00    +0.000 A 
ATOM      4  C   UNL     1      45.716   6.188  11.048  0.00  0.00    +0.000 A 
ATOM      5  C   UNL     1      45.004   5.063  10.616  0.00  0.00    +0.000 A 
ATOM      6  C   UNL     1      44.782   3.992  11.483  0.00  0.00    +0.000 A 
ATOM      7  C   UNL     1      45.266   4.066  12.790  0.00  0.00    +0.000 A 
ATOM      8  C   UNL     1      45.972   5.209  13.217  0.00  0.00    +0.000 A 
BRANCH   6   9
ATOM      9  C   UNL     1      44.013   2.832  10.962  0.00  0.00    +0.000 C 
ATOM     10  N   UNL     1      44.496   2.187   9.858  0.00  0.00    +0.000 N 
ATOM     11  O   UNL     1      42.960   2.478  11.479  0.00  0.00    +0.000 OA
ATOM     12  H   UNL     1      45.254   2.537   9.292  0.00  0.00    +0.000 HD
ATOM     13  H   UNL     1      43.905   1.463   9.468  0.00  0.00    +0.000 HD
ENDBRANCH   6   9
ENDBRANCH   1   3
BRANCH   1  14
ATOM     14  C   UNL     1      48.000   7.944  11.895  0.00  0.00    +0.000 C 
BRANCH  14  15
ATOM     15  C   UNL     1      49.422   7.531  12.286  0.00  0.00    +0.000 C 
BRANCH  15  20
ATOM     16  C   UNL     1      49.353   6.670  15.887  0.00  0.00    +0.000 A 
ATOM     17  C   UNL     1      49.994   7.739  16.508  0.00  0.00    +0.000 A 
ATOM     18  C   UNL     1      50.456   8.782  15.723  0.00  0.00    +0.000 A 
ATOM     19  C   UNL     1      50.279   8.734  14.341  0.00  0.00    +0.000 A 
ATOM     20  C   UNL     1      49.637   7.635  13.781  0.00  0.00    +0.000 A 
ATOM     21  N   UNL     1      49.185   6.608  14.540  0.00  0.00    +0.000 NA
BRANCH  16  23
ATOM     22  C   UNL     1      47.847   4.761  16.200  0.00  0.00    +0.000 C 
ATOM     23  C   UNL     1      48.807   5.564  16.681  0.00  0.00    +0.000 C 
BRANCH  22  25
ATOM     24  N   UNL     1      46.701   2.717  17.697  0.00  0.00    +0.000 NA
ATOM     25  C   UNL     1      47.220   3.644  17.019  0.00  0.00    +0.000 C 
ENDBRANCH  22  25
ENDBRANCH  16  23
ENDBRANCH  15  20
ENDBRANCH  14  15
ENDBRANCH   1  14
TORSDOF 7
ENDMDL
MODEL 9
REMARK VINA RESULT:    -5.861      4.676      8.407
REMARK INTER + INTRA:          -9.143
REMARK INTER:                  -8.670
REMARK INTRA:                  -0.472
REMARK UNBOUND:                -0.883
REMARK  Name = 
REMARK  7 active torsions:
REMARK  status: ('A' for Active; 'I' for Inactive)
REMARK    1  A    between atoms: C_2  and  C_3
REMARK    2  A    between atoms: C_4  and  C_5
REMARK    3  A    between atoms: C_9  and  C_10
REMARK    4  A    between atoms: C_10  and  C_11
REMARK    5  A    between atoms: C_11  and  N_12
REMARK    6  A    between atoms: N_12  and  C_13
REMARK    7  A    between atoms: C_16  and  C_17
REMARK                            x       y       z     vdW  Elec       q    Type
REMARK                         _______ _______ _______ _____ _____    ______ ____
ROOT
ATOM      1  N   UNL     1      46.604   4.434  14.738  0.00  0.00    +0.000 N 
ATOM      2  H   UNL     1      46.329   3.493  14.477  0.00  0.00    +0.000 HD
ENDROOT
BRANCH   1   3
ATOM      3  C   UNL     1      47.402   4.522  15.882  0.00  0.00    +0.000 A 
ATOM      4  C   UNL     1      48.236   5.616  16.145  0.00  0.00    +0.000 A 
ATOM      5  C   UNL     1      48.957   5.724  17.340  0.00  0.00    +0.000 A 
ATOM      6  C   UNL     1      48.835   4.746  18.330  0.00  0.00    +0.000 A 
ATOM      7  C   UNL     1      47.997   3.654  18.103  0.00  0.00    +0.000 A 
ATOM      8  C   UNL     1      47.285   3.550  16.891  0.00  0.00    +0.000 A 
BRANCH   6   9
ATOM      9  C   UNL     1      49.633   4.920  19.571  0.00  0.00    +0.000 C 
ATOM     10  N   UNL     1      49.301   4.159  20.657  0.00  0.00    +0.000 N 
ATOM     11  O   UNL     1      50.539   5.741  19.640  0.00  0.00    +0.000 OA
ATOM     12  H   UNL     1      48.463   3.600  20.714  0.00  0.00    +0.000 HD
ATOM     13  H   UNL     1      49.797   4.364  21.516  0.00  0.00    +0.000 HD
ENDBRANCH   6   9
ENDBRANCH   1   3
BRANCH   1  14
ATOM     14  C   UNL     1      46.765   5.406  13.650  0.00  0.00    +0.000 C 
BRANCH  14  15
ATOM     15  C   UNL     1      45.424   5.842  13.056  0.00  0.00    +0.000 C 
BRANCH  15  20
ATOM     16  C   UNL     1      44.919   3.938   9.920  0.00  0.00    +0.000 A 
ATOM     17  C   UNL     1      43.975   2.971  10.254  0.00  0.00    +0.000 A 
ATOM     18  C   UNL     1      43.479   2.947  11.547  0.00  0.00    +0.000 A 
ATOM     19  C   UNL     1      43.939   3.876  12.479  0.00  0.00    +0.000 A 
ATOM     20  C   UNL     1      44.888   4.813  12.084  0.00  0.00    +0.000 A 
ATOM     21  N   UNL     1      45.382   4.842  10.823  0.00  0.00    +0.000 NA
BRANCH  16  23
ATOM     22  C   UNL     1      45.857   2.948   7.883  0.00  0.00    +0.000 C 
ATOM     23  C   UNL     1      45.440   4.032   8.552  0.00  0.00    +0.000 C 
BRANCH  22  25
ATOM     24  N   UNL     1      46.953   3.080   5.331  0.00  0.00    +0.000 NA
ATOM     25  C   UNL     1      46.455   3.020   6.488  0.00  0.00    +0.000 C 
ENDBRANCH  22  25
ENDBRANCH  16  23
ENDBRANCH  15  20
ENDBRANCH  14  15
ENDBRANCH   1  14
TORSDOF 7
ENDMDL
