MODEL 1
REMARK VINA RESULT:    -7.647      0.000      0.000
REMARK INTER + INTRA:         -11.899
REMARK INTER:                 -10.553
REMARK INTRA:                  -1.346
REMARK UNBOUND:                -1.346
REMARK  Name = 
REMARK  8 active torsions:
REMARK  status: ('A' for Active; 'I' for Inactive)
REMARK    1  A    between atoms: C_1  and  C_2
REMARK    2  A    between atoms: C_2  and  N_3
REMARK    3  A    between atoms: C_2  and  C_16
REMARK    4  A    between atoms: C_4  and  C_6
REMARK    5  A    between atoms: C_19  and  C_20
REMARK    6  A    between atoms: C_20  and  C_21
REMARK    7  A    between atoms: C_26  and  C_27
REMARK    8  A    between atoms: C_27  and  O_28
REMARK                            x       y       z     vdW  Elec       q    Type
REMARK                         _______ _______ _______ _____ _____    ______ ____
ROOT
ATOM      1  C   UNL     1      49.889   7.843  11.877  0.00  0.00    +0.000 C 
ATOM      2  C   UNL     1      48.598   7.568  12.645  0.00  0.00    +0.000 C 
ENDROOT
BRANCH   2   3
ATOM      3  C   UNL     1      48.885   7.090  14.053  0.00  0.00    +0.000 A 
ATOM      4  C   UNL     1      48.020   6.184  14.677  0.00  0.00    +0.000 A 
ATOM      5  C   UNL     1      48.347   5.634  15.919  0.00  0.00    +0.000 A 
ATOM      6  C   UNL     1      49.550   5.969  16.560  0.00  0.00    +0.000 A 
ATOM      7  C   UNL     1      50.395   6.905  15.955  0.00  0.00    +0.000 A 
ATOM      8  C   UNL     1      50.056   7.475  14.728  0.00  0.00    +0.000 A 
BRANCH   6   9
ATOM      9  C   UNL     1      49.924   5.359  17.892  0.00  0.00    +0.000 C 
BRANCH   9  10
ATOM     10  C   UNL     1      50.921   4.214  17.840  0.00  0.00    +0.000 A 
ATOM     11  C   UNL     1      52.266   4.526  18.138  0.00  0.00    +0.000 A 
ATOM     12  C   UNL     1      53.270   3.562  18.073  0.00  0.00    +0.000 A 
ATOM     13  C   UNL     1      52.943   2.248  17.773  0.00  0.00    +0.000 A 
ATOM     14  C   UNL     1      51.618   1.909  17.506  0.00  0.00    +0.000 A 
ATOM     15  C   UNL     1      50.597   2.883  17.478  0.00  0.00    +0.000 A 
BRANCH  15  16
ATOM     16  C   UNL     1      49.206   2.442  17.077  0.00  0.00    +0.000 C 
BRANCH  16  17
ATOM     17  O   UNL     1      49.223   1.700  15.855  0.00  0.00    +0.000 OA
ATOM     18  H   UNL     1      48.575   0.981  15.959  0.00  0.00    +0.000 HD
ENDBRANCH  16  17
ENDBRANCH  15  16
ENDBRANCH   9  10
ENDBRANCH   6   9
ENDBRANCH   2   3
BRANCH   2  19
ATOM     19  N   UNL     1      47.780   6.580  11.968  0.00  0.00    +0.000 N 
ATOM     20  C   UNL     1      46.484   6.813  11.590  0.00  0.00    +0.000 C 
ATOM     21  O   UNL     1      45.934   7.895  11.748  0.00  0.00    +0.000 OA
ATOM     22  H   UNL     1      48.122   5.624  11.973  0.00  0.00    +0.000 HD
BRANCH  20  23
ATOM     23  C   UNL     1      45.813   5.697  10.901  0.00  0.00    +0.000 A 
ATOM     24  C   UNL     1      45.907   5.586   9.521  0.00  0.00    +0.000 A 
ATOM     25  S   UNL     1      45.059   4.250   8.883  0.00  0.00    +0.000 S 
ATOM     26  C   UNL     1      44.515   3.787  10.428  0.00  0.00    +0.000 A 
ATOM     27  N   UNL     1      43.698   2.712  10.593  0.00  0.00    +0.000 NA
ATOM     28  C   UNL     1      43.340   2.491  11.814  0.00  0.00    +0.000 A 
ATOM     29  N   UNL     1      43.739   3.248  12.892  0.00  0.00    +0.000 N 
ATOM     30  C   UNL     1      44.602   4.303  12.778  0.00  0.00    +0.000 A 
ATOM     31  O   UNL     1      45.024   4.888  13.767  0.00  0.00    +0.000 OA
ATOM     32  C   UNL     1      45.004   4.621  11.417  0.00  0.00    +0.000 A 
ATOM     33  H   UNL     1      43.456   3.001  13.828  0.00  0.00    +0.000 HD
ENDBRANCH  20  23
ENDBRANCH   2  19
TORSDOF 7
ENDMDL
MODEL 2
REMARK VINA RESULT:    -7.577      3.814      8.087
REMARK INTER + INTRA:         -11.802
REMARK INTER:                 -10.430
REMARK INTRA:                  -1.372
REMARK UNBOUND:                -1.346
REMARK  Name = 
REMARK  8 active torsions:
REMARK  status: ('A' for Active; 'I' for Inactive)
REMARK    1  A    between atoms: C_1  and  C_2
REMARK    2  A    between atoms: C_2  and  N_3
REMARK    3  A    between atoms: C_2  and  C_16
REMARK    4  A    between atoms: C_4  and  C_6
REMARK    5  A    between atoms: C_19  and  C_20
REMARK    6  A    between atoms: C_20  and  C_21
REMARK    7  A    between atoms: C_26  and  C_27
REMARK    8  A    between atoms: C_27  and  O_28
REMARK                            x       y       z     vdW  Elec       q    Type
REMARK                         _______ _______ _______ _____ _____    ______ ____
ROOT
ATOM      1  C   UNL     1      48.170   9.752  13.573  0.00  0.00    +0.000 C 
ATOM      2  C   UNL     1      48.218   8.249  13.841  0.00  0.00    +0.000 C 
ENDROOT
BRANCH   2   3
ATOM      3  C   UNL     1      47.082   7.529  13.144  0.00  0.00    +0.000 A 
ATOM      4  C   UNL     1      46.081   8.259  12.495  0.00  0.00    +0.000 A 
ATOM      5  C   UNL     1      45.106   7.606  11.736  0.00  0.00    +0.000 A 
ATOM      6  C   UNL     1      45.118   6.208  11.601  0.00  0.00    +0.000 A 
ATOM      7  C   UNL     1      46.096   5.476  12.282  0.00  0.00    +0.000 A 
ATOM      8  C   UNL     1      47.051   6.126  13.062  0.00  0.00    +0.000 A 
BRANCH   6   9
ATOM      9  C   UNL     1      44.083   5.494  10.760  0.00  0.00    +0.000 C 
BRANCH   9  10
ATOM     10  C   UNL     1      44.598   4.344   9.911  0.00  0.00    +0.000 A 
ATOM     11  C   UNL     1      45.347   4.686   8.763  0.00  0.00    +0.000 A 
ATOM     12  C   UNL     1      45.825   3.713   7.888  0.00  0.00    +0.000 A 
ATOM     13  C   UNL     1      45.624   2.371   8.176  0.00  0.00    +0.000 A 
ATOM     14  C   UNL     1      44.916   2.008   9.320  0.00  0.00    +0.000 A 
ATOM     15  C   UNL     1      44.344   2.975  10.173  0.00  0.00    +0.000 A 
BRANCH  15  16
ATOM     16  C   UNL     1      43.503   2.490  11.334  0.00  0.00    +0.000 C 
BRANCH  16  17
ATOM     17  O   UNL     1      44.255   2.462  12.550  0.00  0.00    +0.000 OA
ATOM     18  H   UNL     1      44.137   1.572  12.927  0.00  0.00    +0.000 HD
ENDBRANCH  16  17
ENDBRANCH  15  16
ENDBRANCH   9  10
ENDBRANCH   6   9
ENDBRANCH   2   3
BRANCH   2  19
ATOM     19  N   UNL     1      48.156   7.963  15.262  0.00  0.00    +0.000 N 
ATOM     20  C   UNL     1      49.054   7.149  15.901  0.00  0.00    +0.000 C 
ATOM     21  O   UNL     1      50.010   6.643  15.330  0.00  0.00    +0.000 OA
ATOM     22  H   UNL     1      47.295   8.209  15.739  0.00  0.00    +0.000 HD
BRANCH  20  23
ATOM     23  C   UNL     1      48.843   6.985  17.349  0.00  0.00    +0.000 A 
ATOM     24  C   UNL     1      48.709   8.107  18.156  0.00  0.00    +0.000 A 
ATOM     25  S   UNL     1      48.489   7.740  19.806  0.00  0.00    +0.000 S 
ATOM     26  C   UNL     1      48.590   6.068  19.506  0.00  0.00    +0.000 A 
ATOM     27  N   UNL     1      48.509   5.164  20.520  0.00  0.00    +0.000 NA
ATOM     28  C   UNL     1      48.630   3.932  20.153  0.00  0.00    +0.000 A 
ATOM     29  N   UNL     1      48.811   3.520  18.853  0.00  0.00    +0.000 N 
ATOM     30  C   UNL     1      48.842   4.390  17.798  0.00  0.00    +0.000 A 
ATOM     31  O   UNL     1      48.895   3.987  16.643  0.00  0.00    +0.000 OA
ATOM     32  C   UNL     1      48.754   5.795  18.160  0.00  0.00    +0.000 A 
ATOM     33  H   UNL     1      48.858   2.539  18.624  0.00  0.00    +0.000 HD
ENDBRANCH  20  23
ENDBRANCH   2  19
TORSDOF 7
ENDMDL
MODEL 3
REMARK VINA RESULT:    -7.510      3.833      8.191
REMARK INTER + INTRA:         -11.711
REMARK INTER:                 -10.132
REMARK INTRA:                  -1.578
REMARK UNBOUND:                -1.346
REMARK  Name = 
REMARK  8 active torsions:
REMARK  status: ('A' for Active; 'I' for Inactive)
REMARK    1  A    between atoms: C_1  and  C_2
REMARK    2  A    between atoms: C_2  and  N_3
REMARK    3  A    between atoms: C_2  and  C_16
REMARK    4  A    between atoms: C_4  and  C_6
REMARK    5  A    between atoms: C_19  and  C_20
REMARK    6  A    between atoms: C_20  and  C_21
REMARK    7  A    between atoms: C_26  and  C_27
REMARK    8  A    between atoms: C_27  and  O_28
REMARK                            x       y       z     vdW  Elec       q    Type
REMARK                         _______ _______ _______ _____ _____    ______ ____
ROOT
ATOM      1  C   UNL     1      48.024   9.482  14.471  0.00  0.00    +0.000 C 
ATOM      2  C   UNL     1      48.282   7.992  14.253  0.00  0.00    +0.000 C 
ENDROOT
BRANCH   2   3
ATOM      3  C   UNL     1      47.307   7.405  13.253  0.00  0.00    +0.000 A 
ATOM      4  C   UNL     1      47.284   6.025  13.021  0.00  0.00    +0.000 A 
ATOM      5  C   UNL     1      46.301   5.460  12.205  0.00  0.00    +0.000 A 
ATOM      6  C   UNL     1      45.313   6.261  11.610  0.00  0.00    +0.000 A 
ATOM      7  C   UNL     1      45.361   7.645  11.809  0.00  0.00    +0.000 A 
ATOM      8  C   UNL     1      46.358   8.212  12.601  0.00  0.00    +0.000 A 
BRANCH   6   9
ATOM      9  C   UNL     1      44.230   5.656  10.746  0.00  0.00    +0.000 C 
BRANCH   9  10
ATOM     10  C   UNL     1      44.639   4.449   9.918  0.00  0.00    +0.000 A 
ATOM     11  C   UNL     1      45.412   4.701   8.764  0.00  0.00    +0.000 A 
ATOM     12  C   UNL     1      45.801   3.672   7.908  0.00  0.00    +0.000 A 
ATOM     13  C   UNL     1      45.482   2.359   8.221  0.00  0.00    +0.000 A 
ATOM     14  C   UNL     1      44.747   2.082   9.372  0.00  0.00    +0.000 A 
ATOM     15  C   UNL     1      44.265   3.113  10.207  0.00  0.00    +0.000 A 
BRANCH  15  16
ATOM     16  C   UNL     1      43.388   2.726  11.378  0.00  0.00    +0.000 C 
BRANCH  16  17
ATOM     17  O   UNL     1      44.163   2.465  12.551  0.00  0.00    +0.000 OA
ATOM     18  H   UNL     1      44.592   1.602  12.412  0.00  0.00    +0.000 HD
ENDBRANCH  16  17
ENDBRANCH  15  16
ENDBRANCH   9  10
ENDBRANCH   6   9
ENDBRANCH   2   3
BRANCH   2  19
ATOM     19  N   UNL     1      48.187   7.251  15.496  0.00  0.00    +0.000 N 
ATOM     20  C   UNL     1      49.237   6.555  16.034  0.00  0.00    +0.000 C 
ATOM     21  O   UNL     1      50.354   6.551  15.533  0.00  0.00    +0.000 OA
ATOM     22  H   UNL     1      47.252   7.077  15.853  0.00  0.00    +0.000 HD
BRANCH  20  23
ATOM     23  C   UNL     1      48.960   5.873  17.310  0.00  0.00    +0.000 A 
ATOM     24  C   UNL     1      49.150   4.502  17.411  0.00  0.00    +0.000 A 
ATOM     25  S   UNL     1      48.766   3.870  18.948  0.00  0.00    +0.000 S 
ATOM     26  C   UNL     1      48.307   5.404  19.526  0.00  0.00    +0.000 A 
ATOM     27  N   UNL     1      47.837   5.567  20.792  0.00  0.00    +0.000 NA
ATOM     28  C   UNL     1      47.499   6.779  21.088  0.00  0.00    +0.000 A 
ATOM     29  N   UNL     1      47.604   7.848  20.229  0.00  0.00    +0.000 N 
ATOM     30  C   UNL     1      48.122   7.739  18.969  0.00  0.00    +0.000 A 
ATOM     31  O   UNL     1      48.304   8.726  18.268  0.00  0.00    +0.000 OA
ATOM     32  C   UNL     1      48.479   6.387  18.568  0.00  0.00    +0.000 A 
ATOM     33  H   UNL     1      47.360   8.779  20.533  0.00  0.00    +0.000 HD
ENDBRANCH  20  23
ENDBRANCH   2  19
TORSDOF 7
ENDMDL
MODEL 4
REMARK VINA RESULT:    -7.197      4.152      5.947
REMARK INTER + INTRA:         -11.278
REMARK INTER:                  -9.986
REMARK INTRA:                  -1.292
REMARK UNBOUND:                -1.346
REMARK  Name = 
REMARK  8 active torsions:
REMARK  status: ('A' for Active; 'I' for Inactive)
REMARK    1  A    between atoms: C_1  and  C_2
REMARK    2  A    between atoms: C_2  and  N_3
REMARK    3  A    between atoms: C_2  and  C_16
REMARK    4  A    between atoms: C_4  and  C_6
REMARK    5  A    between atoms: C_19  and  C_20
REMARK    6  A    between atoms: C_20  and  C_21
REMARK    7  A    between atoms: C_26  and  C_27
REMARK    8  A    between atoms: C_27  and  O_28
REMARK                            x       y       z     vdW  Elec       q    Type
REMARK                         _______ _______ _______ _____ _____    ______ ____
ROOT
ATOM      1  C   UNL     1      47.520   3.218  17.084  0.00  0.00    +0.000 C 
ATOM      2  C   UNL     1      47.953   4.509  16.392  0.00  0.00    +0.000 C 
ENDROOT
BRANCH   2   3
ATOM      3  C   UNL     1      48.039   5.659  17.375  0.00  0.00    +0.000 A 
ATOM      4  C   UNL     1      47.210   5.683  18.501  0.00  0.00    +0.000 A 
ATOM      5  C   UNL     1      47.375   6.665  19.481  0.00  0.00    +0.000 A 
ATOM      6  C   UNL     1      48.380   7.639  19.362  0.00  0.00    +0.000 A 
ATOM      7  C   UNL     1      49.182   7.637  18.217  0.00  0.00    +0.000 A 
ATOM      8  C   UNL     1      49.000   6.674  17.225  0.00  0.00    +0.000 A 
BRANCH   6   9
ATOM      9  C   UNL     1      48.583   8.690  20.430  0.00  0.00    +0.000 C 
BRANCH   9  10
ATOM     10  C   UNL     1      47.410   9.625  20.671  0.00  0.00    +0.000 A 
ATOM     11  C   UNL     1      46.689   9.445  21.872  0.00  0.00    +0.000 A 
ATOM     12  C   UNL     1      45.567  10.216  22.171  0.00  0.00    +0.000 A 
ATOM     13  C   UNL     1      45.179  11.230  21.308  0.00  0.00    +0.000 A 
ATOM     14  C   UNL     1      45.895  11.448  20.132  0.00  0.00    +0.000 A 
ATOM     15  C   UNL     1      46.979  10.623  19.763  0.00  0.00    +0.000 A 
BRANCH  15  16
ATOM     16  C   UNL     1      47.632  10.868  18.419  0.00  0.00    +0.000 C 
BRANCH  16  17
ATOM     17  O   UNL     1      47.168  12.082  17.824  0.00  0.00    +0.000 OA
ATOM     18  H   UNL     1      47.328  12.788  18.475  0.00  0.00    +0.000 HD
ENDBRANCH  16  17
ENDBRANCH  15  16
ENDBRANCH   9  10
ENDBRANCH   6   9
ENDBRANCH   2   3
BRANCH   2  19
ATOM     19  N   UNL     1      47.040   4.869  15.324  0.00  0.00    +0.000 N 
ATOM     20  C   UNL     1      47.431   5.555  14.204  0.00  0.00    +0.000 C 
ATOM     21  O   UNL     1      48.595   5.870  13.995  0.00  0.00    +0.000 OA
ATOM     22  H   UNL     1      46.048   4.791  15.527  0.00  0.00    +0.000 HD
BRANCH  20  23
ATOM     23  C   UNL     1      46.369   5.821  13.219  0.00  0.00    +0.000 A 
ATOM     24  C   UNL     1      46.077   7.130  12.860  0.00  0.00    +0.000 A 
ATOM     25  S   UNL     1      44.812   7.260  11.724  0.00  0.00    +0.000 S 
ATOM     26  C   UNL     1      44.591   5.573  11.691  0.00  0.00    +0.000 A 
ATOM     27  N   UNL     1      43.621   5.005  10.925  0.00  0.00    +0.000 NA
ATOM     28  C   UNL     1      43.547   3.719  11.017  0.00  0.00    +0.000 A 
ATOM     29  N   UNL     1      44.372   2.946  11.802  0.00  0.00    +0.000 N 
ATOM     30  C   UNL     1      45.394   3.470  12.544  0.00  0.00    +0.000 A 
ATOM     31  O   UNL     1      46.179   2.747  13.144  0.00  0.00    +0.000 OA
ATOM     32  C   UNL     1      45.495   4.920  12.509  0.00  0.00    +0.000 A 
ATOM     33  H   UNL     1      44.290   1.940  11.801  0.00  0.00    +0.000 HD
ENDBRANCH  20  23
ENDBRANCH   2  19
TORSDOF 7
ENDMDL
MODEL 5
REMARK VINA RESULT:    -7.067      4.201      8.257
REMARK INTER + INTRA:         -11.099
REMARK INTER:                  -9.390
REMARK INTRA:                  -1.709
REMARK UNBOUND:                -1.346
REMARK  Name = 
REMARK  8 active torsions:
REMARK  status: ('A' for Active; 'I' for Inactive)
REMARK    1  A    between atoms: C_1  and  C_2
REMARK    2  A    between atoms: C_2  and  N_3
REMARK    3  A    between atoms: C_2  and  C_16
REMARK    4  A    between atoms: C_4  and  C_6
REMARK    5  A    between atoms: C_19  and  C_20
REMARK    6  A    between atoms: C_20  and  C_21
REMARK    7  A    between atoms: C_26  and  C_27
REMARK    8  A    between atoms: C_27  and  O_28
REMARK                            x       y       z     vdW  Elec       q    Type
REMARK                         _______ _______ _______ _____ _____    ______ ____
ROOT
ATOM      1  C   UNL     1      48.944   6.255  15.903  0.00  0.00    +0.000 C 
ATOM      2  C   UNL     1      48.859   7.256  14.752  0.00  0.00    +0.000 C 
ENDROOT
BRANCH   2   3
ATOM      3  C   UNL     1      47.834   6.825  13.723  0.00  0.00    +0.000 A 
ATOM      4  C   UNL     1      47.267   5.548  13.789  0.00  0.00    +0.000 A 
ATOM      5  C   UNL     1      46.225   5.190  12.928  0.00  0.00    +0.000 A 
ATOM      6  C   UNL     1      45.722   6.105  11.989  0.00  0.00    +0.000 A 
ATOM      7  C   UNL     1      46.316   7.367  11.897  0.00  0.00    +0.000 A 
ATOM      8  C   UNL     1      47.374   7.715  12.737  0.00  0.00    +0.000 A 
BRANCH   6   9
ATOM      9  C   UNL     1      44.578   5.736  11.072  0.00  0.00    +0.000 C 
BRANCH   9  10
ATOM     10  C   UNL     1      44.830   4.565  10.136  0.00  0.00    +0.000 A 
ATOM     11  C   UNL     1      45.613   4.824   8.990  0.00  0.00    +0.000 A 
ATOM     12  C   UNL     1      45.865   3.835   8.041  0.00  0.00    +0.000 A 
ATOM     13  C   UNL     1      45.397   2.546   8.249  0.00  0.00    +0.000 A 
ATOM     14  C   UNL     1      44.648   2.259   9.390  0.00  0.00    +0.000 A 
ATOM     15  C   UNL     1      44.303   3.263  10.319  0.00  0.00    +0.000 A 
BRANCH  15  16
ATOM     16  C   UNL     1      43.401   2.882  11.473  0.00  0.00    +0.000 C 
BRANCH  16  17
ATOM     17  O   UNL     1      44.154   2.420  12.598  0.00  0.00    +0.000 OA
ATOM     18  H   UNL     1      44.465   1.525  12.374  0.00  0.00    +0.000 HD
ENDBRANCH  16  17
ENDBRANCH  15  16
ENDBRANCH   9  10
ENDBRANCH   6   9
ENDBRANCH   2   3
BRANCH   2  19
ATOM     19  N   UNL     1      50.143   7.422  14.099  0.00  0.00    +0.000 N 
ATOM     20  C   UNL     1      50.805   8.620  14.044  0.00  0.00    +0.000 C 
ATOM     21  O   UNL     1      50.387   9.632  14.591  0.00  0.00    +0.000 OA
ATOM     22  H   UNL     1      50.444   6.670  13.486  0.00  0.00    +0.000 HD
BRANCH  20  23
ATOM     23  C   UNL     1      52.104   8.597  13.351  0.00  0.00    +0.000 A 
ATOM     24  C   UNL     1      53.254   8.970  14.034  0.00  0.00    +0.000 A 
ATOM     25  S   UNL     1      54.667   8.902  13.081  0.00  0.00    +0.000 S 
ATOM     26  C   UNL     1      53.788   8.397  11.714  0.00  0.00    +0.000 A 
ATOM     27  N   UNL     1      54.405   8.182  10.520  0.00  0.00    +0.000 NA
ATOM     28  C   UNL     1      53.614   7.830   9.562  0.00  0.00    +0.000 A 
ATOM     29  N   UNL     1      52.256   7.659   9.696  0.00  0.00    +0.000 N 
ATOM     30  C   UNL     1      51.604   7.810  10.889  0.00  0.00    +0.000 A 
ATOM     31  O   UNL     1      50.414   7.544  11.001  0.00  0.00    +0.000 OA
ATOM     32  C   UNL     1      52.442   8.248  11.993  0.00  0.00    +0.000 A 
ATOM     33  H   UNL     1      51.697   7.343   8.918  0.00  0.00    +0.000 HD
ENDBRANCH  20  23
ENDBRANCH   2  19
TORSDOF 7
ENDMDL
MODEL 6
REMARK VINA RESULT:    -6.920      1.803      2.646
REMARK INTER + INTRA:         -10.896
REMARK INTER:                  -9.406
REMARK INTRA:                  -1.490
REMARK UNBOUND:                -1.346
REMARK  Name = 
REMARK  8 active torsions:
REMARK  status: ('A' for Active; 'I' for Inactive)
REMARK    1  A    between atoms: C_1  and  C_2
REMARK    2  A    between atoms: C_2  and  N_3
REMARK    3  A    between atoms: C_2  and  C_16
REMARK    4  A    between atoms: C_4  and  C_6
REMARK    5  A    between atoms: C_19  and  C_20
REMARK    6  A    between atoms: C_20  and  C_21
REMARK    7  A    between atoms: C_26  and  C_27
REMARK    8  A    between atoms: C_27  and  O_28
REMARK                            x       y       z     vdW  Elec       q    Type
REMARK                         _______ _______ _______ _____ _____    ______ ____
ROOT
ATOM      1  C   UNL     1      49.762   8.130  11.439  0.00  0.00    +0.000 C 
ATOM      2  C   UNL     1      48.523   7.836  12.283  0.00  0.00    +0.000 C 
ENDROOT
BRANCH   2   3
ATOM      3  C   UNL     1      48.900   7.434  13.694  0.00  0.00    +0.000 A 
ATOM      4  C   UNL     1      48.092   6.544  14.410  0.00  0.00    +0.000 A 
ATOM      5  C   UNL     1      48.500   6.063  15.657  0.00  0.00    +0.000 A 
ATOM      6  C   UNL     1      49.730   6.452  16.210  0.00  0.00    +0.000 A 
ATOM      7  C   UNL     1      50.519   7.372  15.512  0.00  0.00    +0.000 A 
ATOM      8  C   UNL     1      50.099   7.874  14.281  0.00  0.00    +0.000 A 
BRANCH   6   9
ATOM      9  C   UNL     1      50.192   5.917  17.547  0.00  0.00    +0.000 C 
BRANCH   9  10
ATOM     10  C   UNL     1      49.315   6.261  18.739  0.00  0.00    +0.000 A 
ATOM     11  C   UNL     1      49.468   7.553  19.288  0.00  0.00    +0.000 A 
ATOM     12  C   UNL     1      48.748   7.957  20.412  0.00  0.00    +0.000 A 
ATOM     13  C   UNL     1      47.810   7.103  20.971  0.00  0.00    +0.000 A 
ATOM     14  C   UNL     1      47.619   5.834  20.426  0.00  0.00    +0.000 A 
ATOM     15  C   UNL     1      48.398   5.369  19.346  0.00  0.00    +0.000 A 
BRANCH  15  16
ATOM     16  C   UNL     1      48.193   3.942  18.886  0.00  0.00    +0.000 C 
BRANCH  16  17
ATOM     17  O   UNL     1      46.992   3.803  18.123  0.00  0.00    +0.000 OA
ATOM     18  H   UNL     1      46.276   3.638  18.761  0.00  0.00    +0.000 HD
ENDBRANCH  16  17
ENDBRANCH  15  16
ENDBRANCH   9  10
ENDBRANCH   6   9
ENDBRANCH   2   3
BRANCH   2  19
ATOM     19  N   UNL     1      47.717   6.785  11.691  0.00  0.00    +0.000 N 
ATOM     20  C   UNL     1      46.371   6.908  11.472  0.00  0.00    +0.000 C 
ATOM     21  O   UNL     1      45.754   7.938  11.709  0.00  0.00    +0.000 OA
ATOM     22  H   UNL     1      48.137   5.862  11.642  0.00  0.00    +0.000 HD
BRANCH  20  23
ATOM     23  C   UNL     1      45.720   5.743  10.850  0.00  0.00    +0.000 A 
ATOM     24  C   UNL     1      45.822   5.549   9.479  0.00  0.00    +0.000 A 
ATOM     25  S   UNL     1      44.998   4.165   8.921  0.00  0.00    +0.000 S 
ATOM     26  C   UNL     1      44.452   3.788  10.488  0.00  0.00    +0.000 A 
ATOM     27  N   UNL     1      43.651   2.713  10.715  0.00  0.00    +0.000 NA
ATOM     28  C   UNL     1      43.289   2.562  11.946  0.00  0.00    +0.000 A 
ATOM     29  N   UNL     1      43.672   3.389  12.977  0.00  0.00    +0.000 N 
ATOM     30  C   UNL     1      44.519   4.447  12.803  0.00  0.00    +0.000 A 
ATOM     31  O   UNL     1      44.929   5.098  13.756  0.00  0.00    +0.000 OA
ATOM     32  C   UNL     1      44.924   4.688  11.427  0.00  0.00    +0.000 A 
ATOM     33  H   UNL     1      43.388   3.195  13.926  0.00  0.00    +0.000 HD
ENDBRANCH  20  23
ENDBRANCH   2  19
TORSDOF 7
ENDMDL
MODEL 7
REMARK VINA RESULT:    -6.846      2.483      3.656
REMARK INTER + INTRA:         -10.794
REMARK INTER:                  -9.473
REMARK INTRA:                  -1.320
REMARK UNBOUND:                -1.346
REMARK  Name = 
REMARK  8 active torsions:
REMARK  status: ('A' for Active; 'I' for Inactive)
REMARK    1  A    between atoms: C_1  and  C_2
REMARK    2  A    between atoms: C_2  and  N_3
REMARK    3  A    between atoms: C_2  and  C_16
REMARK    4  A    between atoms: C_4  and  C_6
REMARK    5  A    between atoms: C_19  and  C_20
REMARK    6  A    between atoms: C_20  and  C_21
REMARK    7  A    between atoms: C_26  and  C_27
REMARK    8  A    between atoms: C_27  and  O_28
REMARK                            x       y       z     vdW  Elec       q    Type
REMARK                         _______ _______ _______ _____ _____    ______ ____
ROOT
ATOM      1  C   UNL     1      49.031   7.652  11.617  0.00  0.00    +0.000 C 
ATOM      2  C   UNL     1      47.849   7.536  12.577  0.00  0.00    +0.000 C 
ENDROOT
BRANCH   2   3
ATOM      3  C   UNL     1      48.316   7.429  14.014  0.00  0.00    +0.000 A 
ATOM      4  C   UNL     1      48.096   6.252  14.737  0.00  0.00    +0.000 A 
ATOM      5  C   UNL     1      48.640   6.093  16.015  0.00  0.00    +0.000 A 
ATOM      6  C   UNL     1      49.424   7.104  16.593  0.00  0.00    +0.000 A 
ATOM      7  C   UNL     1      49.610   8.296  15.886  0.00  0.00    +0.000 A 
ATOM      8  C   UNL     1      49.044   8.466  14.623  0.00  0.00    +0.000 A 
BRANCH   6   9
ATOM      9  C   UNL     1      50.038   6.931  17.964  0.00  0.00    +0.000 C 
BRANCH   9  10
ATOM     10  C   UNL     1      49.081   7.049  19.139  0.00  0.00    +0.000 A 
ATOM     11  C   UNL     1      48.664   8.351  19.492  0.00  0.00    +0.000 A 
ATOM     12  C   UNL     1      47.826   8.578  20.582  0.00  0.00    +0.000 A 
ATOM     13  C   UNL     1      47.332   7.502  21.305  0.00  0.00    +0.000 A 
ATOM     14  C   UNL     1      47.704   6.205  20.956  0.00  0.00    +0.000 A 
ATOM     15  C   UNL     1      48.622   5.955  19.913  0.00  0.00    +0.000 A 
BRANCH  15  16
ATOM     16  C   UNL     1      49.049   4.524  19.671  0.00  0.00    +0.000 C 
BRANCH  16  17
ATOM     17  O   UNL     1      48.402   3.623  20.574  0.00  0.00    +0.000 OA
ATOM     18  H   UNL     1      48.589   2.725  20.251  0.00  0.00    +0.000 HD
ENDBRANCH  16  17
ENDBRANCH  15  16
ENDBRANCH   9  10
ENDBRANCH   6   9
ENDBRANCH   2   3
BRANCH   2  19
ATOM     19  N   UNL     1      47.022   6.387  12.262  0.00  0.00    +0.000 N 
ATOM     20  C   UNL     1      45.710   6.491  11.884  0.00  0.00    +0.000 C 
ATOM     21  O   UNL     1      45.149   7.569  11.731  0.00  0.00    +0.000 OA
ATOM     22  H   UNL     1      47.379   5.479  12.541  0.00  0.00    +0.000 HD
BRANCH  20  23
ATOM     23  C   UNL     1      45.031   5.218  11.590  0.00  0.00    +0.000 A 
ATOM     24  C   UNL     1      44.278   4.597  12.577  0.00  0.00    +0.000 A 
ATOM     25  S   UNL     1      43.575   3.126  12.077  0.00  0.00    +0.000 S 
ATOM     26  C   UNL     1      44.273   3.253  10.530  0.00  0.00    +0.000 A 
ATOM     27  N   UNL     1      44.091   2.283   9.594  0.00  0.00    +0.000 NA
ATOM     28  C   UNL     1      44.701   2.495   8.475  0.00  0.00    +0.000 A 
ATOM     29  N   UNL     1      45.469   3.604   8.204  0.00  0.00    +0.000 N 
ATOM     30  C   UNL     1      45.633   4.627   9.096  0.00  0.00    +0.000 A 
ATOM     31  O   UNL     1      46.232   5.650   8.786  0.00  0.00    +0.000 OA
ATOM     32  C   UNL     1      45.002   4.420  10.389  0.00  0.00    +0.000 A 
ATOM     33  H   UNL     1      45.888   3.731   7.295  0.00  0.00    +0.000 HD
ENDBRANCH  20  23
ENDBRANCH   2  19
TORSDOF 7
ENDMDL
MODEL 8
REMARK VINA RESULT:    -6.356      2.897      4.434
REMARK INTER + INTRA:         -10.117
REMARK INTER:                  -8.839
REMARK INTRA:                  -1.278
REMARK UNBOUND:                -1.346
REMARK  Name = 
REMARK  8 active torsions:
REMARK  status: ('A' for Active; 'I' for Inactive)
REMARK    1  A    between atoms: C_1  and  C_2
REMARK    2  A    between atoms: C_2  and  N_3
REMARK    3  A    between atoms: C_2  and  C_16
REMARK    4  A    between atoms: C_4  and  C_6
REMARK    5  A    between atoms: C_19  and  C_20
REMARK    6  A    between atoms: C_20  and  C_21
REMARK    7  A    between atoms: C_26  and  C_27
REMARK    8  A    between atoms: C_27  and  O_28
REMARK                            x       y       z     vdW  Elec       q    Type
REMARK                         _______ _______ _______ _____ _____    ______ ____
ROOT
ATOM      1  C   UNL     1      46.762   3.000  17.718  0.00  0.00    +0.000 C 
ATOM      2  C   UNL     1      47.653   3.318  16.520  0.00  0.00    +0.000 C 
ENDROOT
BRANCH   2   3
ATOM      3  C   UNL     1      48.986   3.887  16.960  0.00  0.00    +0.000 A 
ATOM      4  C   UNL     1      50.015   3.030  17.367  0.00  0.00    +0.000 A 
ATOM      5  C   UNL     1      51.288   3.534  17.645  0.00  0.00    +0.000 A 
ATOM      6  C   UNL     1      51.564   4.904  17.513  0.00  0.00    +0.000 A 
ATOM      7  C   UNL     1      50.525   5.765  17.145  0.00  0.00    +0.000 A 
ATOM      8  C   UNL     1      49.247   5.266  16.894  0.00  0.00    +0.000 A 
BRANCH   6   9
ATOM      9  C   UNL     1      52.945   5.455  17.786  0.00  0.00    +0.000 C 
BRANCH   9  10
ATOM     10  C   UNL     1      53.038   6.493  18.893  0.00  0.00    +0.000 A 
ATOM     11  C   UNL     1      53.195   7.838  18.491  0.00  0.00    +0.000 A 
ATOM     12  C   UNL     1      53.339   8.865  19.423  0.00  0.00    +0.000 A 
ATOM     13  C   UNL     1      53.261   8.580  20.778  0.00  0.00    +0.000 A 
ATOM     14  C   UNL     1      53.075   7.264  21.198  0.00  0.00    +0.000 A 
ATOM     15  C   UNL     1      53.017   6.196  20.277  0.00  0.00    +0.000 A 
BRANCH  15  16
ATOM     16  C   UNL     1      52.917   4.790  20.827  0.00  0.00    +0.000 C 
BRANCH  16  17
ATOM     17  O   UNL     1      51.556   4.405  21.041  0.00  0.00    +0.000 OA
ATOM     18  H   UNL     1      51.092   5.197  21.366  0.00  0.00    +0.000 HD
ENDBRANCH  16  17
ENDBRANCH  15  16
ENDBRANCH   9  10
ENDBRANCH   6   9
ENDBRANCH   2   3
BRANCH   2  19
ATOM     19  N   UNL     1      47.013   4.259  15.619  0.00  0.00    +0.000 N 
ATOM     20  C   UNL     1      46.875   4.032  14.275  0.00  0.00    +0.000 C 
ATOM     21  O   UNL     1      47.234   2.992  13.740  0.00  0.00    +0.000 OA
ATOM     22  H   UNL     1      46.861   5.198  15.974  0.00  0.00    +0.000 HD
BRANCH  20  23
ATOM     23  C   UNL     1      46.187   5.092  13.520  0.00  0.00    +0.000 A 
ATOM     24  C   UNL     1      46.742   6.364  13.460  0.00  0.00    +0.000 A 
ATOM     25  S   UNL     1      45.810   7.474  12.562  0.00  0.00    +0.000 S 
ATOM     26  C   UNL     1      44.618   6.302  12.242  0.00  0.00    +0.000 A 
ATOM     27  N   UNL     1      43.501   6.610  11.529  0.00  0.00    +0.000 NA
ATOM     28  C   UNL     1      42.668   5.633  11.386  0.00  0.00    +0.000 A 
ATOM     29  N   UNL     1      42.861   4.365  11.885  0.00  0.00    +0.000 N 
ATOM     30  C   UNL     1      43.993   3.998  12.558  0.00  0.00    +0.000 A 
ATOM     31  O   UNL     1      44.185   2.836  12.893  0.00  0.00    +0.000 OA
ATOM     32  C   UNL     1      44.947   5.073  12.785  0.00  0.00    +0.000 A 
ATOM     33  H   UNL     1      42.191   3.633  11.705  0.00  0.00    +0.000 HD
ENDBRANCH  20  23
ENDBRANCH   2  19
TORSDOF 7
ENDMDL
MODEL 9
REMARK VINA RESULT:    -6.255      3.884      7.960
REMARK INTER + INTRA:          -9.978
REMARK INTER:                  -8.538
REMARK INTRA:                  -1.440
REMARK UNBOUND:                -1.346
REMARK  Name = 
REMARK  8 active torsions:
REMARK  status: ('A' for Active; 'I' for Inactive)
REMARK    1  A    between atoms: C_1  and  C_2
REMARK    2  A    between atoms: C_2  and  N_3
REMARK    3  A    between atoms: C_2  and  C_16
REMARK    4  A    between atoms: C_4  and  C_6
REMARK    5  A    between atoms: C_19  and  C_20
REMARK    6  A    between atoms: C_20  and  C_21
REMARK    7  A    between atoms: C_26  and  C_27
REMARK    8  A    between atoms: C_27  and  O_28
REMARK                            x       y       z     vdW  Elec       q    Type
REMARK                         _______ _______ _______ _____ _____    ______ ____
ROOT
ATOM      1  C   UNL     1      50.261   9.731  13.799  0.00  0.00    +0.000 C 
ATOM      2  C   UNL     1      49.967   8.233  13.813  0.00  0.00    +0.000 C 
ENDROOT
BRANCH   2   3
ATOM      3  C   UNL     1      48.669   7.919  13.097  0.00  0.00    +0.000 A 
ATOM      4  C   UNL     1      48.269   6.590  12.919  0.00  0.00    +0.000 A 
ATOM      5  C   UNL     1      47.013   6.295  12.383  0.00  0.00    +0.000 A 
ATOM      6  C   UNL     1      46.125   7.321  12.022  0.00  0.00    +0.000 A 
ATOM      7  C   UNL     1      46.542   8.649  12.163  0.00  0.00    +0.000 A 
ATOM      8  C   UNL     1      47.806   8.944  12.672  0.00  0.00    +0.000 A 
BRANCH   6   9
ATOM      9  C   UNL     1      44.754   7.011  11.465  0.00  0.00    +0.000 C 
BRANCH   9  10
ATOM     10  C   UNL     1      44.359   5.544  11.454  0.00  0.00    +0.000 A 
ATOM     11  C   UNL     1      43.669   5.061  12.587  0.00  0.00    +0.000 A 
ATOM     12  C   UNL     1      43.303   3.722  12.702  0.00  0.00    +0.000 A 
ATOM     13  C   UNL     1      43.558   2.847  11.657  0.00  0.00    +0.000 A 
ATOM     14  C   UNL     1      44.210   3.307  10.514  0.00  0.00    +0.000 A 
ATOM     15  C   UNL     1      44.671   4.636  10.411  0.00  0.00    +0.000 A 
BRANCH  15  16
ATOM     16  C   UNL     1      45.460   5.021   9.178  0.00  0.00    +0.000 C 
BRANCH  16  17
ATOM     17  O   UNL     1      44.966   4.359   8.011  0.00  0.00    +0.000 OA
ATOM     18  H   UNL     1      45.360   4.814   7.247  0.00  0.00    +0.000 HD
ENDBRANCH  16  17
ENDBRANCH  15  16
ENDBRANCH   9  10
ENDBRANCH   6   9
ENDBRANCH   2   3
BRANCH   2  19
ATOM     19  N   UNL     1      49.895   7.720  15.168  0.00  0.00    +0.000 N 
ATOM     20  C   UNL     1      50.984   7.238  15.844  0.00  0.00    +0.000 C 
ATOM     21  O   UNL     1      52.114   7.254  15.374  0.00  0.00    +0.000 OA
ATOM     22  H   UNL     1      48.968   7.522  15.531  0.00  0.00    +0.000 HD
BRANCH  20  23
ATOM     23  C   UNL     1      50.724   6.772  17.217  0.00  0.00    +0.000 A 
ATOM     24  C   UNL     1      51.443   7.313  18.274  0.00  0.00    +0.000 A 
ATOM     25  S   UNL     1      51.030   6.650  19.791  0.00  0.00    +0.000 S 
ATOM     26  C   UNL     1      49.894   5.598  19.085  0.00  0.00    +0.000 A 
ATOM     27  N   UNL     1      49.190   4.713  19.841  0.00  0.00    +0.000 NA
ATOM     28  C   UNL     1      48.384   3.956  19.173  0.00  0.00    +0.000 A 
ATOM     29  N   UNL     1      48.210   4.017  17.809  0.00  0.00    +0.000 N 
ATOM     30  C   UNL     1      48.855   4.928  17.019  0.00  0.00    +0.000 A 
ATOM     31  O   UNL     1      48.597   5.030  15.827  0.00  0.00    +0.000 OA
ATOM     32  C   UNL     1      49.808   5.777  17.716  0.00  0.00    +0.000 A 
ATOM     33  H   UNL     1      47.534   3.425  17.349  0.00  0.00    +0.000 HD
ENDBRANCH  20  23
ENDBRANCH   2  19
TORSDOF 7
ENDMDL
