MODEL 1
REMARK VINA RESULT:    -8.015      0.000      0.000
REMARK INTER + INTRA:         -13.006
REMARK INTER:                 -11.763
REMARK INTRA:                  -1.243
REMARK UNBOUND:                -1.243
REMARK  Name = 
REMARK  11 active torsions:
REMARK  status: ('A' for Active; 'I' for Inactive)
REMARK    1  A    between atoms: C_1  and  C_2
REMARK    2  A    between atoms: C_2  and  C_3
REMARK    3  A    between atoms: C_2  and  N_20
REMARK    4  A    between atoms: C_3  and  C_4
REMARK    5  A    between atoms: C_7  and  C_8
REMARK    6  A    between atoms: C_8  and  N_9
REMARK    7  A    between atoms: N_9  and  C_10
REMARK    8  A    between atoms: N_9  and  C_11
REMARK    9  A    between atoms: C_11  and  C_12
REMARK   10  A    between atoms: N_20  and  C_21
REMARK   11  A    between atoms: C_22  and  C_24
REMARK                            x       y       z     vdW  Elec       q    Type
REMARK                         _______ _______ _______ _____ _____    ______ ____
ROOT
ATOM      1  C   UNL     1      48.779   8.084  14.129  0.00  0.00    +0.000 C 
ENDROOT
BRANCH   1   2
ATOM      2  C   UNL     1      47.566   7.422  13.518  0.00  0.00    +0.000 A 
ATOM      3  C   UNL     1      46.485   8.194  13.079  0.00  0.00    +0.000 A 
ATOM      4  C   UNL     1      45.348   7.590  12.545  0.00  0.00    +0.000 A 
ATOM      5  C   UNL     1      45.287   6.199  12.398  0.00  0.00    +0.000 A 
ATOM      6  C   UNL     1      46.373   5.424  12.821  0.00  0.00    +0.000 A 
ATOM      7  C   UNL     1      47.502   6.031  13.373  0.00  0.00    +0.000 A 
BRANCH   5   8
ATOM      8  C   UNL     1      44.080   5.550  11.752  0.00  0.00    +0.000 C 
BRANCH   8   9
ATOM      9  N   UNL     1      44.350   4.173  11.286  0.00  0.00    +0.000 NA
ATOM     10  C   UNL     1      43.584   3.197  12.073  0.00  0.00    +0.000 C 
BRANCH   9  11
ATOM     11  C   UNL     1      43.977   4.032   9.861  0.00  0.00    +0.000 C 
BRANCH  11  12
ATOM     12  C   UNL     1      45.070   3.487   8.958  0.00  0.00    +0.000 A 
ATOM     13  C   UNL     1      45.357   2.122   8.934  0.00  0.00    +0.000 A 
ATOM     14  C   UNL     1      46.321   1.654   8.046  0.00  0.00    +0.000 A 
ATOM     15  C   UNL     1      46.976   2.554   7.214  0.00  0.00    +0.000 A 
ATOM     16  C   UNL     1      46.650   3.896   7.316  0.00  0.00    +0.000 A 
ATOM     17  N   UNL     1      45.717   4.380   8.164  0.00  0.00    +0.000 NA
ENDBRANCH  11  12
ENDBRANCH   9  11
ENDBRANCH   8   9
ENDBRANCH   5   8
ENDBRANCH   1   2
BRANCH   1  19
ATOM     18  C   UNL     1      48.751   9.681  16.106  0.00  0.00    +0.000 C 
ATOM     19  C   UNL     1      48.754   8.208  15.682  0.00  0.00    +0.000 C 
BRANCH  19  20
ATOM     20  N   UNL     1      49.763   7.335  16.343  0.00  0.00    +0.000 N 
ATOM     21  C   UNL     1      51.119   7.230  15.818  0.00  0.00    +0.000 C 
ATOM     22  C   UNL     1      49.402   6.761  17.570  0.00  0.00    +0.000 C 
ATOM     23  O   UNL     1      48.454   7.208  18.221  0.00  0.00    +0.000 OA
BRANCH  22  24
ATOM     24  C   UNL     1      50.031   5.495  17.999  0.00  0.00    +0.000 A 
ATOM     25  C   UNL     1      51.188   5.451  18.755  0.00  0.00    +0.000 A 
ATOM     26  S   UNL     1      52.009   3.968  18.646  0.00  0.00    +0.000 S 
ATOM     27  C   UNL     1      50.786   3.295  17.650  0.00  0.00    +0.000 A 
ATOM     28  C   UNL     1      50.822   2.035  17.042  0.00  0.00    +0.000 A 
ATOM     29  N   UNL     1      49.737   1.559  16.395  0.00  0.00    +0.000 NA
ATOM     30  C   UNL     1      48.627   2.321  16.362  0.00  0.00    +0.000 A 
ATOM     31  C   UNL     1      48.554   3.603  16.881  0.00  0.00    +0.000 A 
ATOM     32 CL   UNL     1      47.083   4.464  16.933  0.00  0.00    +0.000 Cl
ATOM     33  C   UNL     1      49.690   4.157  17.509  0.00  0.00    +0.000 A 
ENDBRANCH  22  24
ENDBRANCH  19  20
ENDBRANCH   1  19
TORSDOF 8
ENDMDL
MODEL 2
REMARK VINA RESULT:    -7.093      2.105      2.510
REMARK INTER + INTRA:         -11.653
REMARK INTER:                 -10.095
REMARK INTRA:                  -1.558
REMARK UNBOUND:                -1.243
REMARK  Name = 
REMARK  11 active torsions:
REMARK  status: ('A' for Active; 'I' for Inactive)
REMARK    1  A    between atoms: C_1  and  C_2
REMARK    2  A    between atoms: C_2  and  C_3
REMARK    3  A    between atoms: C_2  and  N_20
REMARK    4  A    between atoms: C_3  and  C_4
REMARK    5  A    between atoms: C_7  and  C_8
REMARK    6  A    between atoms: C_8  and  N_9
REMARK    7  A    between atoms: N_9  and  C_10
REMARK    8  A    between atoms: N_9  and  C_11
REMARK    9  A    between atoms: C_11  and  C_12
REMARK   10  A    between atoms: N_20  and  C_21
REMARK   11  A    between atoms: C_22  and  C_24
REMARK                            x       y       z     vdW  Elec       q    Type
REMARK                         _______ _______ _______ _____ _____    ______ ____
ROOT
ATOM      1  C   UNL     1      49.043   9.362  12.954  0.00  0.00    +0.000 C 
ENDROOT
BRANCH   1   2
ATOM      2  C   UNL     1      47.845   8.505  12.615  0.00  0.00    +0.000 A 
ATOM      3  C   UNL     1      46.576   8.844  13.096  0.00  0.00    +0.000 A 
ATOM      4  C   UNL     1      45.471   8.042  12.816  0.00  0.00    +0.000 A 
ATOM      5  C   UNL     1      45.606   6.904  12.011  0.00  0.00    +0.000 A 
ATOM      6  C   UNL     1      46.872   6.572  11.515  0.00  0.00    +0.000 A 
ATOM      7  C   UNL     1      47.979   7.366  11.812  0.00  0.00    +0.000 A 
BRANCH   5   8
ATOM      8  C   UNL     1      44.391   6.075  11.649  0.00  0.00    +0.000 C 
BRANCH   8   9
ATOM      9  N   UNL     1      44.728   4.667  11.345  0.00  0.00    +0.000 NA
ATOM     10  C   UNL     1      44.203   3.769  12.383  0.00  0.00    +0.000 C 
BRANCH   9  11
ATOM     11  C   UNL     1      44.153   4.272  10.040  0.00  0.00    +0.000 C 
BRANCH  11  12
ATOM     12  C   UNL     1      45.126   3.618   9.076  0.00  0.00    +0.000 A 
ATOM     13  C   UNL     1      45.290   2.233   9.062  0.00  0.00    +0.000 A 
ATOM     14  C   UNL     1      46.143   1.667   8.119  0.00  0.00    +0.000 A 
ATOM     15  C   UNL     1      46.814   2.492   7.225  0.00  0.00    +0.000 A 
ATOM     16  C   UNL     1      46.615   3.858   7.320  0.00  0.00    +0.000 A 
ATOM     17  N   UNL     1      45.791   4.437   8.220  0.00  0.00    +0.000 NA
ENDBRANCH  11  12
ENDBRANCH   9  11
ENDBRANCH   8   9
ENDBRANCH   5   8
ENDBRANCH   1   2
BRANCH   1  19
ATOM     18  C   UNL     1      50.144  10.852  14.695  0.00  0.00    +0.000 C 
ATOM     19  C   UNL     1      49.268   9.613  14.477  0.00  0.00    +0.000 C 
BRANCH  19  20
ATOM     20  N   UNL     1      49.676   8.381  15.206  0.00  0.00    +0.000 N 
ATOM     21  C   UNL     1      50.946   7.726  14.917  0.00  0.00    +0.000 C 
ATOM     22  C   UNL     1      48.872   7.984  16.284  0.00  0.00    +0.000 C 
ATOM     23  O   UNL     1      48.080   8.774  16.804  0.00  0.00    +0.000 OA
BRANCH  22  24
ATOM     24  C   UNL     1      48.828   6.562  16.680  0.00  0.00    +0.000 A 
ATOM     25  C   UNL     1      48.151   5.600  15.953  0.00  0.00    +0.000 A 
ATOM     26  S   UNL     1      47.770   4.214  16.857  0.00  0.00    +0.000 S 
ATOM     27  C   UNL     1      48.587   4.817  18.239  0.00  0.00    +0.000 A 
ATOM     28  C   UNL     1      48.622   4.215  19.501  0.00  0.00    +0.000 A 
ATOM     29  N   UNL     1      49.416   4.713  20.473  0.00  0.00    +0.000 NA
ATOM     30  C   UNL     1      50.174   5.790  20.190  0.00  0.00    +0.000 A 
ATOM     31  C   UNL     1      50.127   6.472  18.986  0.00  0.00    +0.000 A 
ATOM     32 CL   UNL     1      51.210   7.743  18.636  0.00  0.00    +0.000 Cl
ATOM     33  C   UNL     1      49.262   6.016  17.969  0.00  0.00    +0.000 A 
ENDBRANCH  22  24
ENDBRANCH  19  20
ENDBRANCH   1  19
TORSDOF 8
ENDMDL
MODEL 3
REMARK VINA RESULT:    -6.782      1.650      2.150
REMARK INTER + INTRA:         -11.197
REMARK INTER:                  -9.455
REMARK INTRA:                  -1.742
REMARK UNBOUND:                -1.243
REMARK  Name = 
REMARK  11 active torsions:
REMARK  status: ('A' for Active; 'I' for Inactive)
REMARK    1  A    between atoms: C_1  and  C_2
REMARK    2  A    between atoms: C_2  and  C_3
REMARK    3  A    between atoms: C_2  and  N_20
REMARK    4  A    between atoms: C_3  and  C_4
REMARK    5  A    between atoms: C_7  and  C_8
REMARK    6  A    between atoms: C_8  and  N_9
REMARK    7  A    between atoms: N_9  and  C_10
REMARK    8  A    between atoms: N_9  and  C_11
REMARK    9  A    between atoms: C_11  and  C_12
REMARK   10  A    between atoms: N_20  and  C_21
REMARK   11  A    between atoms: C_22  and  C_24
REMARK                            x       y       z     vdW  Elec       q    Type
REMARK                         _______ _______ _______ _____ _____    ______ ____
ROOT
ATOM      1  C   UNL     1      49.505   8.208  13.666  0.00  0.00    +0.000 C 
ENDROOT
BRANCH   1   2
ATOM      2  C   UNL     1      48.168   7.730  13.149  0.00  0.00    +0.000 A 
ATOM      3  C   UNL     1      47.016   8.494  13.358  0.00  0.00    +0.000 A 
ATOM      4  C   UNL     1      45.773   8.047  12.914  0.00  0.00    +0.000 A 
ATOM      5  C   UNL     1      45.664   6.840  12.212  0.00  0.00    +0.000 A 
ATOM      6  C   UNL     1      46.818   6.080  11.986  0.00  0.00    +0.000 A 
ATOM      7  C   UNL     1      48.057   6.523  12.448  0.00  0.00    +0.000 A 
BRANCH   5   8
ATOM      8  C   UNL     1      44.323   6.390  11.668  0.00  0.00    +0.000 C 
BRANCH   8   9
ATOM      9  N   UNL     1      44.270   4.936  11.405  0.00  0.00    +0.000 NA
ATOM     10  C   UNL     1      43.320   4.276  12.312  0.00  0.00    +0.000 C 
BRANCH   9  11
ATOM     11  C   UNL     1      43.848   4.682  10.010  0.00  0.00    +0.000 C 
BRANCH  11  12
ATOM     12  C   UNL     1      44.812   3.848   9.185  0.00  0.00    +0.000 A 
ATOM     13  C   UNL     1      44.918   2.472   9.391  0.00  0.00    +0.000 A 
ATOM     14  C   UNL     1      45.766   1.734   8.570  0.00  0.00    +0.000 A 
ATOM     15  C   UNL     1      46.489   2.382   7.576  0.00  0.00    +0.000 A 
ATOM     16  C   UNL     1      46.345   3.753   7.453  0.00  0.00    +0.000 A 
ATOM     17  N   UNL     1      45.528   4.497   8.230  0.00  0.00    +0.000 NA
ENDBRANCH  11  12
ENDBRANCH   9  11
ENDBRANCH   8   9
ENDBRANCH   5   8
ENDBRANCH   1   2
BRANCH   1  19
ATOM     18  C   UNL     1      50.088  10.675  13.857  0.00  0.00    +0.000 C 
ATOM     19  C   UNL     1      49.451   9.477  14.570  0.00  0.00    +0.000 C 
BRANCH  19  20
ATOM     20  N   UNL     1      49.919   9.212  15.957  0.00  0.00    +0.000 N 
ATOM     21  C   UNL     1      51.327   9.346  16.311  0.00  0.00    +0.000 C 
ATOM     22  C   UNL     1      48.934   8.995  16.931  0.00  0.00    +0.000 C 
ATOM     23  O   UNL     1      47.763   9.330  16.730  0.00  0.00    +0.000 OA
BRANCH  22  24
ATOM     24  C   UNL     1      49.251   8.189  18.128  0.00  0.00    +0.000 A 
ATOM     25  C   UNL     1      49.464   8.748  19.375  0.00  0.00    +0.000 A 
ATOM     26  S   UNL     1      50.340   7.741  20.425  0.00  0.00    +0.000 S 
ATOM     27  C   UNL     1      50.385   6.474  19.271  0.00  0.00    +0.000 A 
ATOM     28  C   UNL     1      51.073   5.263  19.405  0.00  0.00    +0.000 A 
ATOM     29  N   UNL     1      50.919   4.285  18.488  0.00  0.00    +0.000 NA
ATOM     30  C   UNL     1      50.081   4.503  17.456  0.00  0.00    +0.000 A 
ATOM     31  C   UNL     1      49.431   5.704  17.230  0.00  0.00    +0.000 A 
ATOM     32 CL   UNL     1      48.276   5.875  15.986  0.00  0.00    +0.000 Cl
ATOM     33  C   UNL     1      49.619   6.770  18.135  0.00  0.00    +0.000 A 
ENDBRANCH  22  24
ENDBRANCH  19  20
ENDBRANCH   1  19
TORSDOF 8
ENDMDL
MODEL 4
REMARK VINA RESULT:    -6.645      2.134      2.870
REMARK INTER + INTRA:         -10.996
REMARK INTER:                  -9.940
REMARK INTRA:                  -1.056
REMARK UNBOUND:                -1.243
REMARK  Name = 
REMARK  11 active torsions:
REMARK  status: ('A' for Active; 'I' for Inactive)
REMARK    1  A    between atoms: C_1  and  C_2
REMARK    2  A    between atoms: C_2  and  C_3
REMARK    3  A    between atoms: C_2  and  N_20
REMARK    4  A    between atoms: C_3  and  C_4
REMARK    5  A    between atoms: C_7  and  C_8
REMARK    6  A    between atoms: C_8  and  N_9
REMARK    7  A    between atoms: N_9  and  C_10
REMARK    8  A    between atoms: N_9  and  C_11
REMARK    9  A    between atoms: C_11  and  C_12
REMARK   10  A    between atoms: N_20  and  C_21
REMARK   11  A    between atoms: C_22  and  C_24
REMARK                            x       y       z     vdW  Elec       q    Type
REMARK                         _______ _______ _______ _____ _____    ______ ____
ROOT
ATOM      1  C   UNL     1      47.292   9.077  13.700  0.00  0.00    +0.000 C 
ENDROOT
BRANCH   1   2
ATOM      2  C   UNL     1      46.502   8.040  12.935  0.00  0.00    +0.000 A 
ATOM      3  C   UNL     1      45.330   8.400  12.262  0.00  0.00    +0.000 A 
ATOM      4  C   UNL     1      44.577   7.445  11.581  0.00  0.00    +0.000 A 
ATOM      5  C   UNL     1      45.006   6.113  11.524  0.00  0.00    +0.000 A 
ATOM      6  C   UNL     1      46.187   5.752  12.183  0.00  0.00    +0.000 A 
ATOM      7  C   UNL     1      46.928   6.707  12.879  0.00  0.00    +0.000 A 
BRANCH   5   8
ATOM      8  C   UNL     1      44.224   5.091  10.724  0.00  0.00    +0.000 C 
BRANCH   8   9
ATOM      9  N   UNL     1      44.698   3.707  10.942  0.00  0.00    +0.000 NA
ATOM     10  C   UNL     1      44.152   3.158  12.190  0.00  0.00    +0.000 C 
BRANCH   9  11
ATOM     11  C   UNL     1      44.281   2.840   9.818  0.00  0.00    +0.000 C 
BRANCH  11  12
ATOM     12  C   UNL     1      45.326   2.637   8.735  0.00  0.00    +0.000 A 
ATOM     13  C   UNL     1      45.735   3.703   7.933  0.00  0.00    +0.000 A 
ATOM     14  C   UNL     1      46.741   3.490   6.995  0.00  0.00    +0.000 A 
ATOM     15  C   UNL     1      47.305   2.226   6.875  0.00  0.00    +0.000 A 
ATOM     16  C   UNL     1      46.826   1.216   7.693  0.00  0.00    +0.000 A 
ATOM     17  N   UNL     1      45.855   1.392   8.614  0.00  0.00    +0.000 NA
ENDBRANCH  11  12
ENDBRANCH   9  11
ENDBRANCH   8   9
ENDBRANCH   5   8
ENDBRANCH   1   2
BRANCH   1  19
ATOM     18  C   UNL     1      48.466   9.603  11.507  0.00  0.00    +0.000 C 
ATOM     19  C   UNL     1      48.629   9.519  13.029  0.00  0.00    +0.000 C 
BRANCH  19  20
ATOM     20  N   UNL     1      49.801   8.746  13.524  0.00  0.00    +0.000 N 
ATOM     21  C   UNL     1      50.346   7.637  12.751  0.00  0.00    +0.000 C 
ATOM     22  C   UNL     1      50.449   9.236  14.667  0.00  0.00    +0.000 C 
ATOM     23  O   UNL     1      50.275  10.399  15.041  0.00  0.00    +0.000 OA
BRANCH  22  24
ATOM     24  C   UNL     1      51.193   8.307  15.541  0.00  0.00    +0.000 A 
ATOM     25  C   UNL     1      52.558   8.109  15.438  0.00  0.00    +0.000 A 
ATOM     26  S   UNL     1      53.081   6.644  16.118  0.00  0.00    +0.000 S 
ATOM     27  C   UNL     1      51.501   6.263  16.663  0.00  0.00    +0.000 A 
ATOM     28  C   UNL     1      51.109   5.069  17.278  0.00  0.00    +0.000 A 
ATOM     29  N   UNL     1      49.866   4.940  17.791  0.00  0.00    +0.000 NA
ATOM     30  C   UNL     1      49.028   5.991  17.703  0.00  0.00    +0.000 A 
ATOM     31  C   UNL     1      49.333   7.170  17.043  0.00  0.00    +0.000 A 
ATOM     32 CL   UNL     1      48.284   8.514  17.086  0.00  0.00    +0.000 Cl
ATOM     33  C   UNL     1      50.600   7.314  16.441  0.00  0.00    +0.000 A 
ENDBRANCH  22  24
ENDBRANCH  19  20
ENDBRANCH   1  19
TORSDOF 8
ENDMDL
MODEL 5
REMARK VINA RESULT:    -6.277      1.332      2.049
REMARK INTER + INTRA:         -10.456
REMARK INTER:                  -9.490
REMARK INTRA:                  -0.965
REMARK UNBOUND:                -1.243
REMARK  Name = 
REMARK  11 active torsions:
REMARK  status: ('A' for Active; 'I' for Inactive)
REMARK    1  A    between atoms: C_1  and  C_2
REMARK    2  A    between atoms: C_2  and  C_3
REMARK    3  A    between atoms: C_2  and  N_20
REMARK    4  A    between atoms: C_3  and  C_4
REMARK    5  A    between atoms: C_7  and  C_8
REMARK    6  A    between atoms: C_8  and  N_9
REMARK    7  A    between atoms: N_9  and  C_10
REMARK    8  A    between atoms: N_9  and  C_11
REMARK    9  A    between atoms: C_11  and  C_12
REMARK   10  A    between atoms: N_20  and  C_21
REMARK   11  A    between atoms: C_22  and  C_24
REMARK                            x       y       z     vdW  Elec       q    Type
REMARK                         _______ _______ _______ _____ _____    ______ ____
ROOT
ATOM      1  C   UNL     1      50.683   8.587  14.898  0.00  0.00    +0.000 C 
ENDROOT
BRANCH   1   2
ATOM      2  C   UNL     1      49.367   8.091  14.346  0.00  0.00    +0.000 A 
ATOM      3  C   UNL     1      48.885   6.827  14.698  0.00  0.00    +0.000 A 
ATOM      4  C   UNL     1      47.689   6.347  14.169  0.00  0.00    +0.000 A 
ATOM      5  C   UNL     1      46.926   7.143  13.305  0.00  0.00    +0.000 A 
ATOM      6  C   UNL     1      47.398   8.416  12.963  0.00  0.00    +0.000 A 
ATOM      7  C   UNL     1      48.605   8.885  13.480  0.00  0.00    +0.000 A 
BRANCH   5   8
ATOM      8  C   UNL     1      45.591   6.649  12.787  0.00  0.00    +0.000 C 
BRANCH   8   9
ATOM      9  N   UNL     1      45.689   5.338  12.108  0.00  0.00    +0.000 NA
ATOM     10  C   UNL     1      45.485   4.240  13.062  0.00  0.00    +0.000 C 
BRANCH   9  11
ATOM     11  C   UNL     1      44.668   5.237  11.042  0.00  0.00    +0.000 C 
BRANCH  11  12
ATOM     12  C   UNL     1      45.032   4.323   9.884  0.00  0.00    +0.000 A 
ATOM     13  C   UNL     1      45.769   4.805   8.803  0.00  0.00    +0.000 A 
ATOM     14  C   UNL     1      46.137   3.921   7.793  0.00  0.00    +0.000 A 
ATOM     15  C   UNL     1      45.756   2.588   7.882  0.00  0.00    +0.000 A 
ATOM     16  C   UNL     1      45.005   2.194   8.976  0.00  0.00    +0.000 A 
ATOM     17  N   UNL     1      44.636   3.027   9.973  0.00  0.00    +0.000 NA
ENDBRANCH  11  12
ENDBRANCH   9  11
ENDBRANCH   8   9
ENDBRANCH   5   8
ENDBRANCH   1   2
BRANCH   1  19
ATOM     18  C   UNL     1      51.414   9.741  17.042  0.00  0.00    +0.000 C 
ATOM     19  C   UNL     1      50.848   8.449  16.442  0.00  0.00    +0.000 C 
BRANCH  19  20
ATOM     20  N   UNL     1      51.532   7.186  16.834  0.00  0.00    +0.000 N 
ATOM     21  C   UNL     1      52.673   6.687  16.077  0.00  0.00    +0.000 C 
ATOM     22  C   UNL     1      51.139   6.600  18.046  0.00  0.00    +0.000 C 
ATOM     23  O   UNL     1      50.517   7.251  18.890  0.00  0.00    +0.000 OA
BRANCH  22  24
ATOM     24  C   UNL     1      51.299   5.144  18.240  0.00  0.00    +0.000 A 
ATOM     25  C   UNL     1      52.458   4.575  18.735  0.00  0.00    +0.000 A 
ATOM     26  S   UNL     1      52.620   2.929  18.348  0.00  0.00    +0.000 S 
ATOM     27  C   UNL     1      51.088   2.896  17.579  0.00  0.00    +0.000 A 
ATOM     28  C   UNL     1      50.539   1.813  16.884  0.00  0.00    +0.000 A 
ATOM     29  N   UNL     1      49.265   1.860  16.442  0.00  0.00    +0.000 NA
ATOM     30  C   UNL     1      48.540   2.967  16.696  0.00  0.00    +0.000 A 
ATOM     31  C   UNL     1      49.049   4.098  17.313  0.00  0.00    +0.000 A 
ATOM     32 CL   UNL     1      48.048   5.413  17.733  0.00  0.00    +0.000 Cl
ATOM     33  C   UNL     1      50.396   4.106  17.733  0.00  0.00    +0.000 A 
ENDBRANCH  22  24
ENDBRANCH  19  20
ENDBRANCH   1  19
TORSDOF 8
ENDMDL
MODEL 6
REMARK VINA RESULT:    -6.145      3.062      8.310
REMARK INTER + INTRA:         -10.262
REMARK INTER:                  -8.707
REMARK INTRA:                  -1.555
REMARK UNBOUND:                -1.243
REMARK  Name = 
REMARK  11 active torsions:
REMARK  status: ('A' for Active; 'I' for Inactive)
REMARK    1  A    between atoms: C_1  and  C_2
REMARK    2  A    between atoms: C_2  and  C_3
REMARK    3  A    between atoms: C_2  and  N_20
REMARK    4  A    between atoms: C_3  and  C_4
REMARK    5  A    between atoms: C_7  and  C_8
REMARK    6  A    between atoms: C_8  and  N_9
REMARK    7  A    between atoms: N_9  and  C_10
REMARK    8  A    between atoms: N_9  and  C_11
REMARK    9  A    between atoms: C_11  and  C_12
REMARK   10  A    between atoms: N_20  and  C_21
REMARK   11  A    between atoms: C_22  and  C_24
REMARK                            x       y       z     vdW  Elec       q    Type
REMARK                         _______ _______ _______ _____ _____    ______ ____
ROOT
ATOM      1  C   UNL     1      47.291   8.991  14.168  0.00  0.00    +0.000 C 
ENDROOT
BRANCH   1   2
ATOM      2  C   UNL     1      48.495   8.540  14.964  0.00  0.00    +0.000 A 
ATOM      3  C   UNL     1      48.785   7.179  15.095  0.00  0.00    +0.000 A 
ATOM      4  C   UNL     1      49.873   6.752  15.854  0.00  0.00    +0.000 A 
ATOM      5  C   UNL     1      50.722   7.684  16.463  0.00  0.00    +0.000 A 
ATOM      6  C   UNL     1      50.444   9.049  16.320  0.00  0.00    +0.000 A 
ATOM      7  C   UNL     1      49.342   9.472  15.576  0.00  0.00    +0.000 A 
BRANCH   5   8
ATOM      8  C   UNL     1      51.945   7.221  17.228  0.00  0.00    +0.000 C 
BRANCH   8   9
ATOM      9  N   UNL     1      52.362   5.849  16.867  0.00  0.00    +0.000 NA
ATOM     10  C   UNL     1      53.780   5.818  16.484  0.00  0.00    +0.000 C 
BRANCH   9  11
ATOM     11  C   UNL     1      52.159   4.934  18.011  0.00  0.00    +0.000 C 
BRANCH  11  12
ATOM     12  C   UNL     1      50.817   4.224  18.041  0.00  0.00    +0.000 A 
ATOM     13  C   UNL     1      49.824   4.618  18.940  0.00  0.00    +0.000 A 
ATOM     14  C   UNL     1      48.586   3.985  18.892  0.00  0.00    +0.000 A 
ATOM     15  C   UNL     1      48.371   2.976  17.961  0.00  0.00    +0.000 A 
ATOM     16  C   UNL     1      49.415   2.629  17.120  0.00  0.00    +0.000 A 
ATOM     17  N   UNL     1      50.626   3.227  17.139  0.00  0.00    +0.000 NA
ENDBRANCH  11  12
ENDBRANCH   9  11
ENDBRANCH   8   9
ENDBRANCH   5   8
ENDBRANCH   1   2
BRANCH   1  19
ATOM     18  C   UNL     1      47.818  10.100  11.943  0.00  0.00    +0.000 C 
ATOM     19  C   UNL     1      47.404   8.792  12.626  0.00  0.00    +0.000 C 
BRANCH  19  20
ATOM     20  N   UNL     1      46.222   8.094  12.051  0.00  0.00    +0.000 N 
ATOM     21  C   UNL     1      45.140   8.844  11.426  0.00  0.00    +0.000 C 
ATOM     22  C   UNL     1      46.279   6.694  11.988  0.00  0.00    +0.000 C 
ATOM     23  O   UNL     1      47.356   6.100  12.088  0.00  0.00    +0.000 OA
BRANCH  22  24
ATOM     24  C   UNL     1      45.027   5.910  11.995  0.00  0.00    +0.000 A 
ATOM     25  C   UNL     1      44.090   5.998  13.009  0.00  0.00    +0.000 A 
ATOM     26  S   UNL     1      43.061   4.651  13.096  0.00  0.00    +0.000 S 
ATOM     27  C   UNL     1      43.776   3.938  11.711  0.00  0.00    +0.000 A 
ATOM     28  C   UNL     1      43.485   2.671  11.194  0.00  0.00    +0.000 A 
ATOM     29  N   UNL     1      44.011   2.276  10.016  0.00  0.00    +0.000 NA
ATOM     30  C   UNL     1      44.809   3.134   9.353  0.00  0.00    +0.000 A 
ATOM     31  C   UNL     1      45.193   4.371   9.846  0.00  0.00    +0.000 A 
ATOM     32 CL   UNL     1      46.091   5.471   8.902  0.00  0.00    +0.000 Cl
ATOM     33  C   UNL     1      44.711   4.790  11.104  0.00  0.00    +0.000 A 
ENDBRANCH  22  24
ENDBRANCH  19  20
ENDBRANCH   1  19
TORSDOF 8
ENDMDL
MODEL 7
REMARK VINA RESULT:    -6.113      1.992      3.237
REMARK INTER + INTRA:         -10.215
REMARK INTER:                  -8.683
REMARK INTRA:                  -1.532
REMARK UNBOUND:                -1.243
REMARK  Name = 
REMARK  11 active torsions:
REMARK  status: ('A' for Active; 'I' for Inactive)
REMARK    1  A    between atoms: C_1  and  C_2
REMARK    2  A    between atoms: C_2  and  C_3
REMARK    3  A    between atoms: C_2  and  N_20
REMARK    4  A    between atoms: C_3  and  C_4
REMARK    5  A    between atoms: C_7  and  C_8
REMARK    6  A    between atoms: C_8  and  N_9
REMARK    7  A    between atoms: N_9  and  C_10
REMARK    8  A    between atoms: N_9  and  C_11
REMARK    9  A    between atoms: C_11  and  C_12
REMARK   10  A    between atoms: N_20  and  C_21
REMARK   11  A    between atoms: C_22  and  C_24
REMARK                            x       y       z     vdW  Elec       q    Type
REMARK                         _______ _______ _______ _____ _____    ______ ____
ROOT
ATOM      1  C   UNL     1      49.395   7.979  17.893  0.00  0.00    +0.000 C 
ENDROOT
BRANCH   1   2
ATOM      2  C   UNL     1      48.884   7.958  16.471  0.00  0.00    +0.000 A 
ATOM      3  C   UNL     1      48.426   9.133  15.868  0.00  0.00    +0.000 A 
ATOM      4  C   UNL     1      47.922   9.117  14.569  0.00  0.00    +0.000 A 
ATOM      5  C   UNL     1      47.906   7.929  13.828  0.00  0.00    +0.000 A 
ATOM      6  C   UNL     1      48.380   6.753  14.424  0.00  0.00    +0.000 A 
ATOM      7  C   UNL     1      48.866   6.769  15.731  0.00  0.00    +0.000 A 
BRANCH   5   8
ATOM      8  C   UNL     1      47.425   7.928  12.392  0.00  0.00    +0.000 C 
BRANCH   8   9
ATOM      9  N   UNL     1      46.114   7.264  12.227  0.00  0.00    +0.000 NA
ATOM     10  C   UNL     1      45.099   8.221  11.763  0.00  0.00    +0.000 C 
BRANCH   9  11
ATOM     11  C   UNL     1      46.216   6.166  11.241  0.00  0.00    +0.000 C 
BRANCH  11  12
ATOM     12  C   UNL     1      45.220   5.035  11.426  0.00  0.00    +0.000 A 
ATOM     13  C   UNL     1      44.839   4.239  10.346  0.00  0.00    +0.000 A 
ATOM     14  C   UNL     1      43.973   3.172  10.570  0.00  0.00    +0.000 A 
ATOM     15  C   UNL     1      43.505   2.933  11.857  0.00  0.00    +0.000 A 
ATOM     16  C   UNL     1      43.912   3.784  12.870  0.00  0.00    +0.000 A 
ATOM     17  N   UNL     1      44.754   4.824  12.685  0.00  0.00    +0.000 NA
ENDBRANCH  11  12
ENDBRANCH   9  11
ENDBRANCH   8   9
ENDBRANCH   5   8
ENDBRANCH   1   2
BRANCH   1  19
ATOM     18  C   UNL     1      51.480   9.253  17.193  0.00  0.00    +0.000 C 
ATOM     19  C   UNL     1      50.943   8.093  18.039  0.00  0.00    +0.000 C 
BRANCH  19  20
ATOM     20  N   UNL     1      51.632   6.785  17.876  0.00  0.00    +0.000 N 
ATOM     21  C   UNL     1      52.426   6.501  16.687  0.00  0.00    +0.000 C 
ATOM     22  C   UNL     1      51.620   5.917  18.977  0.00  0.00    +0.000 C 
ATOM     23  O   UNL     1      51.354   6.335  20.107  0.00  0.00    +0.000 OA
BRANCH  22  24
ATOM     24  C   UNL     1      51.738   4.460  18.763  0.00  0.00    +0.000 A 
ATOM     25  C   UNL     1      52.914   3.763  18.969  0.00  0.00    +0.000 A 
ATOM     26  S   UNL     1      52.972   2.278  18.147  0.00  0.00    +0.000 S 
ATOM     27  C   UNL     1      51.374   2.474  17.557  0.00  0.00    +0.000 A 
ATOM     28  C   UNL     1      50.719   1.623  16.660  0.00  0.00    +0.000 A 
ATOM     29  N   UNL     1      49.412   1.804  16.378  0.00  0.00    +0.000 NA
ATOM     30  C   UNL     1      48.760   2.813  16.988  0.00  0.00    +0.000 A 
ATOM     31  C   UNL     1      49.371   3.731  17.826  0.00  0.00    +0.000 A 
ATOM     32 CL   UNL     1      48.468   4.901  18.678  0.00  0.00    +0.000 Cl
ATOM     33  C   UNL     1      50.751   3.608  18.094  0.00  0.00    +0.000 A 
ENDBRANCH  22  24
ENDBRANCH  19  20
ENDBRANCH   1  19
TORSDOF 8
ENDMDL
MODEL 8
REMARK VINA RESULT:    -5.725      5.485      7.179
REMARK INTER + INTRA:          -9.646
REMARK INTER:                  -8.198
REMARK INTRA:                  -1.448
REMARK UNBOUND:                -1.243
REMARK  Name = 
REMARK  11 active torsions:
REMARK  status: ('A' for Active; 'I' for Inactive)
REMARK    1  A    between atoms: C_1  and  C_2
REMARK    2  A    between atoms: C_2  and  C_3
REMARK    3  A    between atoms: C_2  and  N_20
REMARK    4  A    between atoms: C_3  and  C_4
REMARK    5  A    between atoms: C_7  and  C_8
REMARK    6  A    between atoms: C_8  and  N_9
REMARK    7  A    between atoms: N_9  and  C_10
REMARK    8  A    between atoms: N_9  and  C_11
REMARK    9  A    between atoms: C_11  and  C_12
REMARK   10  A    between atoms: N_20  and  C_21
REMARK   11  A    between atoms: C_22  and  C_24
REMARK                            x       y       z     vdW  Elec       q    Type
REMARK                         _______ _______ _______ _____ _____    ______ ____
ROOT
ATOM      1  C   UNL     1      51.834   8.668  12.956  0.00  0.00    +0.000 C 
ENDROOT
BRANCH   1   2
ATOM      2  C   UNL     1      50.407   8.171  12.943  0.00  0.00    +0.000 A 
ATOM      3  C   UNL     1      49.735   7.920  14.143  0.00  0.00    +0.000 A 
ATOM      4  C   UNL     1      48.430   7.431  14.141  0.00  0.00    +0.000 A 
ATOM      5  C   UNL     1      47.753   7.222  12.934  0.00  0.00    +0.000 A 
ATOM      6  C   UNL     1      48.417   7.488  11.730  0.00  0.00    +0.000 A 
ATOM      7  C   UNL     1      49.729   7.960  11.735  0.00  0.00    +0.000 A 
BRANCH   5   8
ATOM      8  C   UNL     1      46.311   6.759  12.935  0.00  0.00    +0.000 C 
BRANCH   8   9
ATOM      9  N   UNL     1      46.146   5.395  12.386  0.00  0.00    +0.000 NA
ATOM     10  C   UNL     1      46.028   4.408  13.467  0.00  0.00    +0.000 C 
BRANCH   9  11
ATOM     11  C   UNL     1      44.931   5.325  11.544  0.00  0.00    +0.000 C 
BRANCH  11  12
ATOM     12  C   UNL     1      45.060   4.478  10.291  0.00  0.00    +0.000 A 
ATOM     13  C   UNL     1      45.706   4.977   9.159  0.00  0.00    +0.000 A 
ATOM     14  C   UNL     1      45.861   4.147   8.053  0.00  0.00    +0.000 A 
ATOM     15  C   UNL     1      45.363   2.850   8.099  0.00  0.00    +0.000 A 
ATOM     16  C   UNL     1      44.714   2.439   9.251  0.00  0.00    +0.000 A 
ATOM     17  N   UNL     1      44.552   3.219  10.341  0.00  0.00    +0.000 NA
ENDBRANCH  11  12
ENDBRANCH   9  11
ENDBRANCH   8   9
ENDBRANCH   5   8
ENDBRANCH   1   2
BRANCH   1  19
ATOM     18  C   UNL     1      50.909  10.998  13.371  0.00  0.00    +0.000 C 
ATOM     19  C   UNL     1      52.008  10.191  12.672  0.00  0.00    +0.000 C 
BRANCH  19  20
ATOM     20  N   UNL     1      52.223  10.484  11.229  0.00  0.00    +0.000 N 
ATOM     21  C   UNL     1      51.155  11.046  10.412  0.00  0.00    +0.000 C 
ATOM     22  C   UNL     1      53.532  10.353  10.742  0.00  0.00    +0.000 C 
ATOM     23  O   UNL     1      54.493  10.327  11.515  0.00  0.00    +0.000 OA
BRANCH  22  24
ATOM     24  C   UNL     1      53.754  10.054   9.312  0.00  0.00    +0.000 A 
ATOM     25  C   UNL     1      54.093  11.023   8.386  0.00  0.00    +0.000 A 
ATOM     26  S   UNL     1      53.748  10.576   6.784  0.00  0.00    +0.000 S 
ATOM     27  C   UNL     1      53.214   9.020   7.269  0.00  0.00    +0.000 A 
ATOM     28  C   UNL     1      52.649   8.048   6.437  0.00  0.00    +0.000 A 
ATOM     29  N   UNL     1      52.397   6.808   6.908  0.00  0.00    +0.000 NA
ATOM     30  C   UNL     1      52.715   6.534   8.188  0.00  0.00    +0.000 A 
ATOM     31  C   UNL     1      53.208   7.473   9.079  0.00  0.00    +0.000 A 
ATOM     32 CL   UNL     1      53.721   7.035  10.646  0.00  0.00    +0.000 Cl
ATOM     33  C   UNL     1      53.424   8.796   8.637  0.00  0.00    +0.000 A 
ENDBRANCH  22  24
ENDBRANCH  19  20
ENDBRANCH   1  19
TORSDOF 8
ENDMDL
MODEL 9
REMARK VINA RESULT:    -5.281      2.986      5.352
REMARK INTER + INTRA:          -8.994
REMARK INTER:                  -7.522
REMARK INTRA:                  -1.472
REMARK UNBOUND:                -1.243
REMARK  Name = 
REMARK  11 active torsions:
REMARK  status: ('A' for Active; 'I' for Inactive)
REMARK    1  A    between atoms: C_1  and  C_2
REMARK    2  A    between atoms: C_2  and  C_3
REMARK    3  A    between atoms: C_2  and  N_20
REMARK    4  A    between atoms: C_3  and  C_4
REMARK    5  A    between atoms: C_7  and  C_8
REMARK    6  A    between atoms: C_8  and  N_9
REMARK    7  A    between atoms: N_9  and  C_10
REMARK    8  A    between atoms: N_9  and  C_11
REMARK    9  A    between atoms: C_11  and  C_12
REMARK   10  A    between atoms: N_20  and  C_21
REMARK   11  A    between atoms: C_22  and  C_24
REMARK                            x       y       z     vdW  Elec       q    Type
REMARK                         _______ _______ _______ _____ _____    ______ ____
ROOT
ATOM      1  C   UNL     1      49.644   4.685  17.479  0.00  0.00    +0.000 C 
ENDROOT
BRANCH   1   2
ATOM      2  C   UNL     1      49.061   5.461  16.321  0.00  0.00    +0.000 A 
ATOM      3  C   UNL     1      49.511   6.754  16.039  0.00  0.00    +0.000 A 
ATOM      4  C   UNL     1      48.957   7.490  14.994  0.00  0.00    +0.000 A 
ATOM      5  C   UNL     1      47.966   6.928  14.179  0.00  0.00    +0.000 A 
ATOM      6  C   UNL     1      47.524   5.627  14.448  0.00  0.00    +0.000 A 
ATOM      7  C   UNL     1      48.069   4.901  15.507  0.00  0.00    +0.000 A 
BRANCH   5   8
ATOM      8  C   UNL     1      47.416   7.703  12.999  0.00  0.00    +0.000 C 
BRANCH   8   9
ATOM      9  N   UNL     1      45.977   7.449  12.767  0.00  0.00    +0.000 NA
ATOM     10  C   UNL     1      45.235   8.713  12.661  0.00  0.00    +0.000 C 
BRANCH   9  11
ATOM     11  C   UNL     1      45.787   6.681  11.517  0.00  0.00    +0.000 C 
BRANCH  11  12
ATOM     12  C   UNL     1      44.948   5.423  11.653  0.00  0.00    +0.000 A 
ATOM     13  C   UNL     1      44.356   5.091  12.872  0.00  0.00    +0.000 A 
ATOM     14  C   UNL     1      43.541   3.965  12.938  0.00  0.00    +0.000 A 
ATOM     15  C   UNL     1      43.344   3.197  11.797  0.00  0.00    +0.000 A 
ATOM     16  C   UNL     1      43.986   3.581  10.632  0.00  0.00    +0.000 A 
ATOM     17  N   UNL     1      44.779   4.670  10.534  0.00  0.00    +0.000 NA
ENDBRANCH  11  12
ENDBRANCH   9  11
ENDBRANCH   8   9
ENDBRANCH   5   8
ENDBRANCH   1   2
BRANCH   1  19
ATOM     18  C   UNL     1      47.679   3.130  17.905  0.00  0.00    +0.000 C 
ATOM     19  C   UNL     1      48.607   4.180  18.527  0.00  0.00    +0.000 C 
BRANCH  19  20
ATOM     20  N   UNL     1      47.944   5.293  19.260  0.00  0.00    +0.000 N 
ATOM     21  C   UNL     1      46.618   5.758  18.873  0.00  0.00    +0.000 C 
ATOM     22  C   UNL     1      48.574   5.751  20.426  0.00  0.00    +0.000 C 
ATOM     23  O   UNL     1      49.431   5.066  20.991  0.00  0.00    +0.000 OA
BRANCH  22  24
ATOM     24  C   UNL     1      48.355   7.140  20.879  0.00  0.00    +0.000 A 
ATOM     25  C   UNL     1      47.427   7.477  21.847  0.00  0.00    +0.000 A 
ATOM     26  S   UNL     1      46.961   9.109  21.797  0.00  0.00    +0.000 S 
ATOM     27  C   UNL     1      48.063   9.448  20.527  0.00  0.00    +0.000 A 
ATOM     28  C   UNL     1      48.185  10.664  19.847  0.00  0.00    +0.000 A 
ATOM     29  N   UNL     1      49.186  10.853  18.961  0.00  0.00    +0.000 NA
ATOM     30  C   UNL     1      50.061   9.849  18.761  0.00  0.00    +0.000 A 
ATOM     31  C   UNL     1      49.949   8.599  19.348  0.00  0.00    +0.000 A 
ATOM     32 CL   UNL     1      51.163   7.415  19.166  0.00  0.00    +0.000 Cl
ATOM     33  C   UNL     1      48.879   8.346  20.232  0.00  0.00    +0.000 A 
ENDBRANCH  22  24
ENDBRANCH  19  20
ENDBRANCH   1  19
TORSDOF 8
ENDMDL
