MODEL 1
REMARK VINA RESULT:    -7.044      0.000      0.000
REMARK INTER + INTRA:         -12.255
REMARK INTER:                 -10.544
REMARK INTRA:                  -1.712
REMARK UNBOUND:                -1.712
REMARK  Name = 
REMARK  9 active torsions:
REMARK  status: ('A' for Active; 'I' for Inactive)
REMARK    1  A    between atoms: C_2  and  C_19
REMARK    2  A    between atoms: N_3  and  C_4
REMARK    3  A    between atoms: C_4  and  C_5
REMARK    4  A    between atoms: C_9  and  C_10
REMARK    5  A    between atoms: C_10  and  S_11
REMARK    6  A    between atoms: S_11  and  N_14
REMARK    7  A    between atoms: N_14  and  C_15
REMARK    8  A    between atoms: C_15  and  C_16
REMARK    9  A    between atoms: C_16  and  O_17
REMARK                            x       y       z     vdW  Elec       q    Type
REMARK                         _______ _______ _______ _____ _____    ______ ____
ROOT
ATOM      1  C   UNL     1      46.774   8.050  12.813  0.00  0.00    +0.000 C 
ENDROOT
BRANCH   1   2
ATOM      2  C   UNL     1      45.457   7.506  12.334  0.00  0.00    +0.000 A 
ATOM      3  C   UNL     1      44.664   8.200  11.421  0.00  0.00    +0.000 A 
ATOM      4  C   UNL     1      43.482   7.613  10.995  0.00  0.00    +0.000 A 
ATOM      5  N   UNL     1      43.044   6.401  11.408  0.00  0.00    +0.000 NA
ATOM      6  C   UNL     1      43.783   5.767  12.351  0.00  0.00    +0.000 A 
ATOM      7  C   UNL     1      44.991   6.282  12.820  0.00  0.00    +0.000 A 
BRANCH   6   8
ATOM      8  C   UNL     1      43.327   4.422  12.820  0.00  0.00    +0.000 C 
BRANCH   8   9
ATOM      9  S   UNL     1      43.841   3.153  11.673  0.00  0.00    +0.000 S 
ATOM     10  O   UNL     1      45.262   2.956  11.884  0.00  0.00    +0.000 OA
ATOM     11  O   UNL     1      42.937   2.024  11.707  0.00  0.00    +0.000 OA
BRANCH   9  12
ATOM     12  N   UNL     1      43.687   3.858  10.155  0.00  0.00    +0.000 NA
ATOM     13  H   UNL     1      43.588   4.875  10.156  0.00  0.00    +0.000 HD
BRANCH  12  14
ATOM     14  C   UNL     1      44.462   3.272   9.037  0.00  0.00    +0.000 C 
BRANCH  14  15
ATOM     15  C   UNL     1      45.526   4.240   8.511  0.00  0.00    +0.000 C 
BRANCH  15  16
ATOM     16  O   UNL     1      45.378   5.511   9.140  0.00  0.00    +0.000 OA
ATOM     17  H   UNL     1      44.491   5.827   8.871  0.00  0.00    +0.000 HD
ENDBRANCH  15  16
ENDBRANCH  14  15
ENDBRANCH  12  14
ENDBRANCH   9  12
ENDBRANCH   8   9
ENDBRANCH   6   8
ENDBRANCH   1   2
BRANCH   1  20
ATOM     18  O   UNL     1      49.113   6.522  13.239  0.00  0.00    +0.000 OA
ATOM     19  C   UNL     1      48.372   6.763  14.187  0.00  0.00    +0.000 C 
ATOM     20  N   UNL     1      47.189   7.441  14.049  0.00  0.00    +0.000 N 
ATOM     21  H   UNL     1      46.672   7.710  14.877  0.00  0.00    +0.000 HD
BRANCH  19  22
ATOM     22  C   UNL     1      48.694   6.322  15.549  0.00  0.00    +0.000 A 
ATOM     23  C   UNL     1      49.534   7.082  16.349  0.00  0.00    +0.000 A 
ATOM     24  S   UNL     1      49.797   6.406  17.894  0.00  0.00    +0.000 S 
ATOM     25  C   UNL     1      48.753   5.101  17.564  0.00  0.00    +0.000 A 
ATOM     26  N   UNL     1      48.508   4.145  18.502  0.00  0.00    +0.000 NA
ATOM     27  C   UNL     1      47.665   3.241  18.129  0.00  0.00    +0.000 A 
ATOM     28  N   UNL     1      47.053   3.198  16.903  0.00  0.00    +0.000 N 
ATOM     29  C   UNL     1      47.320   4.103  15.906  0.00  0.00    +0.000 A 
ATOM     30  O   UNL     1      46.838   3.972  14.784  0.00  0.00    +0.000 OA
ATOM     31  C   UNL     1      48.234   5.166  16.286  0.00  0.00    +0.000 A 
ATOM     32  H   UNL     1      46.419   2.449  16.668  0.00  0.00    +0.000 HD
ENDBRANCH  19  22
ENDBRANCH   1  20
TORSDOF 9
ENDMDL
MODEL 2
REMARK VINA RESULT:    -6.544      2.475      7.098
REMARK INTER + INTRA:         -11.508
REMARK INTER:                  -9.957
REMARK INTRA:                  -1.551
REMARK UNBOUND:                -1.712
REMARK  Name = 
REMARK  9 active torsions:
REMARK  status: ('A' for Active; 'I' for Inactive)
REMARK    1  A    between atoms: C_2  and  C_19
REMARK    2  A    between atoms: N_3  and  C_4
REMARK    3  A    between atoms: C_4  and  C_5
REMARK    4  A    between atoms: C_9  and  C_10
REMARK    5  A    between atoms: C_10  and  S_11
REMARK    6  A    between atoms: S_11  and  N_14
REMARK    7  A    between atoms: N_14  and  C_15
REMARK    8  A    between atoms: C_15  and  C_16
REMARK    9  A    between atoms: C_16  and  O_17
REMARK                            x       y       z     vdW  Elec       q    Type
REMARK                         _______ _______ _______ _____ _____    ______ ____
ROOT
ATOM      1  C   UNL     1      48.628   7.399  12.906  0.00  0.00    +0.000 C 
ENDROOT
BRANCH   1   2
ATOM      2  C   UNL     1      49.029   6.930  14.277  0.00  0.00    +0.000 A 
ATOM      3  C   UNL     1      50.267   7.255  14.832  0.00  0.00    +0.000 A 
ATOM      4  C   UNL     1      50.548   6.820  16.118  0.00  0.00    +0.000 A 
ATOM      5  N   UNL     1      49.693   6.096  16.878  0.00  0.00    +0.000 NA
ATOM      6  C   UNL     1      48.524   5.721  16.305  0.00  0.00    +0.000 A 
ATOM      7  C   UNL     1      48.160   6.130  15.023  0.00  0.00    +0.000 A 
BRANCH   6   8
ATOM      8  C   UNL     1      47.556   4.928  17.125  0.00  0.00    +0.000 C 
BRANCH   8   9
ATOM      9  S   UNL     1      47.896   3.181  16.975  0.00  0.00    +0.000 S 
ATOM     10  O   UNL     1      46.787   2.489  17.602  0.00  0.00    +0.000 OA
ATOM     11  O   UNL     1      48.295   2.842  15.626  0.00  0.00    +0.000 OA
BRANCH   9  12
ATOM     12  N   UNL     1      49.231   2.916  17.961  0.00  0.00    +0.000 NA
ATOM     13  H   UNL     1      49.024   2.503  18.872  0.00  0.00    +0.000 HD
BRANCH  12  14
ATOM     14  C   UNL     1      50.495   2.489  17.316  0.00  0.00    +0.000 C 
BRANCH  14  15
ATOM     15  C   UNL     1      51.710   3.206  17.910  0.00  0.00    +0.000 C 
BRANCH  15  16
ATOM     16  O   UNL     1      51.285   4.140  18.900  0.00  0.00    +0.000 OA
ATOM     17  H   UNL     1      52.039   4.758  19.008  0.00  0.00    +0.000 HD
ENDBRANCH  15  16
ENDBRANCH  14  15
ENDBRANCH  12  14
ENDBRANCH   9  12
ENDBRANCH   8   9
ENDBRANCH   6   8
ENDBRANCH   1   2
BRANCH   1  20
ATOM     18  O   UNL     1      45.962   7.847  12.084  0.00  0.00    +0.000 OA
ATOM     19  C   UNL     1      46.496   6.773  11.828  0.00  0.00    +0.000 C 
ATOM     20  N   UNL     1      47.761   6.457  12.249  0.00  0.00    +0.000 N 
ATOM     21  H   UNL     1      48.196   5.605  11.917  0.00  0.00    +0.000 HD
BRANCH  19  22
ATOM     22  C   UNL     1      45.805   5.731  11.060  0.00  0.00    +0.000 A 
ATOM     23  C   UNL     1      45.974   5.650   9.685  0.00  0.00    +0.000 A 
ATOM     24  S   UNL     1      45.087   4.381   8.966  0.00  0.00    +0.000 S 
ATOM     25  C   UNL     1      44.489   3.866  10.476  0.00  0.00    +0.000 A 
ATOM     26  N   UNL     1      43.671   2.782  10.573  0.00  0.00    +0.000 NA
ATOM     27  C   UNL     1      43.331   2.481  11.781  0.00  0.00    +0.000 A 
ATOM     28  N   UNL     1      43.725   3.168  12.900  0.00  0.00    +0.000 N 
ATOM     29  C   UNL     1      44.496   4.304  12.844  0.00  0.00    +0.000 A 
ATOM     30  O   UNL     1      44.739   4.956  13.855  0.00  0.00    +0.000 OA
ATOM     31  C   UNL     1      44.938   4.665  11.509  0.00  0.00    +0.000 A 
ATOM     32  H   UNL     1      43.404   2.892  13.817  0.00  0.00    +0.000 HD
ENDBRANCH  19  22
ENDBRANCH   1  20
TORSDOF 9
ENDMDL
MODEL 3
REMARK VINA RESULT:    -6.521      2.138      2.644
REMARK INTER + INTRA:         -11.473
REMARK INTER:                 -10.439
REMARK INTRA:                  -1.034
REMARK UNBOUND:                -1.712
REMARK  Name = 
REMARK  9 active torsions:
REMARK  status: ('A' for Active; 'I' for Inactive)
REMARK    1  A    between atoms: C_2  and  C_19
REMARK    2  A    between atoms: N_3  and  C_4
REMARK    3  A    between atoms: C_4  and  C_5
REMARK    4  A    between atoms: C_9  and  C_10
REMARK    5  A    between atoms: C_10  and  S_11
REMARK    6  A    between atoms: S_11  and  N_14
REMARK    7  A    between atoms: N_14  and  C_15
REMARK    8  A    between atoms: C_15  and  C_16
REMARK    9  A    between atoms: C_16  and  O_17
REMARK                            x       y       z     vdW  Elec       q    Type
REMARK                         _______ _______ _______ _____ _____    ______ ____
ROOT
ATOM      1  C   UNL     1      45.975   7.383  12.431  0.00  0.00    +0.000 C 
ENDROOT
BRANCH   1   2
ATOM      2  C   UNL     1      45.056   6.350  11.842  0.00  0.00    +0.000 A 
ATOM      3  C   UNL     1      43.671   6.509  11.849  0.00  0.00    +0.000 A 
ATOM      4  C   UNL     1      42.892   5.531  11.248  0.00  0.00    +0.000 A 
ATOM      5  N   UNL     1      43.391   4.424  10.651  0.00  0.00    +0.000 NA
ATOM      6  C   UNL     1      44.732   4.240  10.714  0.00  0.00    +0.000 A 
ATOM      7  C   UNL     1      45.586   5.183  11.285  0.00  0.00    +0.000 A 
BRANCH   6   8
ATOM      8  C   UNL     1      45.312   3.029  10.055  0.00  0.00    +0.000 C 
BRANCH   8   9
ATOM      9  S   UNL     1      45.534   3.317   8.306  0.00  0.00    +0.000 S 
ATOM     10  O   UNL     1      44.214   3.259   7.707  0.00  0.00    +0.000 OA
ATOM     11  O   UNL     1      46.389   4.460   8.071  0.00  0.00    +0.000 OA
BRANCH   9  12
ATOM     12  N   UNL     1      46.360   1.964   7.749  0.00  0.00    +0.000 NA
ATOM     13  H   UNL     1      45.770   1.214   7.383  0.00  0.00    +0.000 HD
BRANCH  12  14
ATOM     14  C   UNL     1      47.655   2.177   7.061  0.00  0.00    +0.000 C 
BRANCH  14  15
ATOM     15  C   UNL     1      47.649   1.606   5.641  0.00  0.00    +0.000 C 
BRANCH  15  16
ATOM     16  O   UNL     1      48.346   2.486   4.761  0.00  0.00    +0.000 OA
ATOM     17  H   UNL     1      49.291   2.389   5.001  0.00  0.00    +0.000 HD
ENDBRANCH  15  16
ENDBRANCH  14  15
ENDBRANCH  12  14
ENDBRANCH   9  12
ENDBRANCH   8   9
ENDBRANCH   6   8
ENDBRANCH   1   2
BRANCH   1  20
ATOM     18  O   UNL     1      48.708   6.751  12.778  0.00  0.00    +0.000 OA
ATOM     19  C   UNL     1      47.950   6.689  13.742  0.00  0.00    +0.000 C 
ATOM     20  N   UNL     1      46.603   6.918  13.639  0.00  0.00    +0.000 N 
ATOM     21  H   UNL     1      46.043   6.964  14.481  0.00  0.00    +0.000 HD
BRANCH  19  22
ATOM     22  C   UNL     1      48.435   6.345  15.083  0.00  0.00    +0.000 A 
ATOM     23  C   UNL     1      49.341   7.171  15.731  0.00  0.00    +0.000 A 
ATOM     24  S   UNL     1      49.793   6.604  17.277  0.00  0.00    +0.000 S 
ATOM     25  C   UNL     1      48.751   5.262  17.151  0.00  0.00    +0.000 A 
ATOM     26  N   UNL     1      48.636   4.366  18.170  0.00  0.00    +0.000 NA
ATOM     27  C   UNL     1      47.780   3.425  17.955  0.00  0.00    +0.000 A 
ATOM     28  N   UNL     1      47.034   3.291  16.813  0.00  0.00    +0.000 N 
ATOM     29  C   UNL     1      47.165   4.132  15.735  0.00  0.00    +0.000 A 
ATOM     30  O   UNL     1      46.562   3.919  14.687  0.00  0.00    +0.000 OA
ATOM     31  C   UNL     1      48.090   5.233  15.940  0.00  0.00    +0.000 A 
ATOM     32  H   UNL     1      46.396   2.517  16.700  0.00  0.00    +0.000 HD
ENDBRANCH  19  22
ENDBRANCH   1  20
TORSDOF 9
ENDMDL
MODEL 4
REMARK VINA RESULT:    -6.518      3.287      8.778
REMARK INTER + INTRA:         -11.469
REMARK INTER:                 -10.149
REMARK INTRA:                  -1.320
REMARK UNBOUND:                -1.712
REMARK  Name = 
REMARK  9 active torsions:
REMARK  status: ('A' for Active; 'I' for Inactive)
REMARK    1  A    between atoms: C_2  and  C_19
REMARK    2  A    between atoms: N_3  and  C_4
REMARK    3  A    between atoms: C_4  and  C_5
REMARK    4  A    between atoms: C_9  and  C_10
REMARK    5  A    between atoms: C_10  and  S_11
REMARK    6  A    between atoms: S_11  and  N_14
REMARK    7  A    between atoms: N_14  and  C_15
REMARK    8  A    between atoms: C_15  and  C_16
REMARK    9  A    between atoms: C_16  and  O_17
REMARK                            x       y       z     vdW  Elec       q    Type
REMARK                         _______ _______ _______ _____ _____    ______ ____
ROOT
ATOM      1  C   UNL     1      47.258   3.401  16.788  0.00  0.00    +0.000 C 
ENDROOT
BRANCH   1   2
ATOM      2  C   UNL     1      48.729   3.384  17.100  0.00  0.00    +0.000 A 
ATOM      3  C   UNL     1      49.478   2.209  17.045  0.00  0.00    +0.000 A 
ATOM      4  C   UNL     1      50.838   2.281  17.306  0.00  0.00    +0.000 A 
ATOM      5  N   UNL     1      51.493   3.426  17.612  0.00  0.00    +0.000 NA
ATOM      6  C   UNL     1      50.745   4.550  17.737  0.00  0.00    +0.000 A 
ATOM      7  C   UNL     1      49.375   4.564  17.476  0.00  0.00    +0.000 A 
BRANCH   6   8
ATOM      8  C   UNL     1      51.443   5.830  18.066  0.00  0.00    +0.000 C 
BRANCH   8   9
ATOM      9  S   UNL     1      52.055   5.795  19.743  0.00  0.00    +0.000 S 
ATOM     10  O   UNL     1      53.420   5.311  19.675  0.00  0.00    +0.000 OA
ATOM     11  O   UNL     1      51.757   7.032  20.433  0.00  0.00    +0.000 OA
BRANCH   9  12
ATOM     12  N   UNL     1      51.166   4.587  20.501  0.00  0.00    +0.000 NA
ATOM     13  H   UNL     1      51.672   3.713  20.665  0.00  0.00    +0.000 HD
BRANCH  12  14
ATOM     14  C   UNL     1      50.194   4.991  21.543  0.00  0.00    +0.000 C 
BRANCH  14  15
ATOM     15  C   UNL     1      48.750   4.895  21.045  0.00  0.00    +0.000 C 
BRANCH  15  16
ATOM     16  O   UNL     1      48.466   3.559  20.637  0.00  0.00    +0.000 OA
ATOM     17  H   UNL     1      47.783   3.240  21.263  0.00  0.00    +0.000 HD
ENDBRANCH  15  16
ENDBRANCH  14  15
ENDBRANCH  12  14
ENDBRANCH   9  12
ENDBRANCH   8   9
ENDBRANCH   6   8
ENDBRANCH   1   2
BRANCH   1  20
ATOM     18  O   UNL     1      47.229   3.082  13.981  0.00  0.00    +0.000 OA
ATOM     19  C   UNL     1      46.880   4.153  14.467  0.00  0.00    +0.000 C 
ATOM     20  N   UNL     1      46.928   4.405  15.813  0.00  0.00    +0.000 N 
ATOM     21  H   UNL     1      46.524   5.262  16.171  0.00  0.00    +0.000 HD
BRANCH  19  22
ATOM     22  C   UNL     1      46.397   5.259  13.632  0.00  0.00    +0.000 A 
ATOM     23  C   UNL     1      47.204   6.364  13.402  0.00  0.00    +0.000 A 
ATOM     24  S   UNL     1      46.470   7.548  12.416  0.00  0.00    +0.000 S 
ATOM     25  C   UNL     1      45.069   6.598  12.219  0.00  0.00    +0.000 A 
ATOM     26  N   UNL     1      44.033   7.028  11.447  0.00  0.00    +0.000 NA
ATOM     27  C   UNL     1      43.058   6.188  11.353  0.00  0.00    +0.000 A 
ATOM     28  N   UNL     1      43.017   4.963  11.968  0.00  0.00    +0.000 N 
ATOM     29  C   UNL     1      44.009   4.518  12.806  0.00  0.00    +0.000 A 
ATOM     30  O   UNL     1      43.889   3.464  13.426  0.00  0.00    +0.000 OA
ATOM     31  C   UNL     1      45.149   5.409  12.917  0.00  0.00    +0.000 A 
ATOM     32  H   UNL     1      42.211   4.363  11.870  0.00  0.00    +0.000 HD
ENDBRANCH  19  22
ENDBRANCH   1  20
TORSDOF 9
ENDMDL
MODEL 5
REMARK VINA RESULT:    -6.292      3.256      8.088
REMARK INTER + INTRA:         -11.130
REMARK INTER:                  -9.939
REMARK INTRA:                  -1.192
REMARK UNBOUND:                -1.712
REMARK  Name = 
REMARK  9 active torsions:
REMARK  status: ('A' for Active; 'I' for Inactive)
REMARK    1  A    between atoms: C_2  and  C_19
REMARK    2  A    between atoms: N_3  and  C_4
REMARK    3  A    between atoms: C_4  and  C_5
REMARK    4  A    between atoms: C_9  and  C_10
REMARK    5  A    between atoms: C_10  and  S_11
REMARK    6  A    between atoms: S_11  and  N_14
REMARK    7  A    between atoms: N_14  and  C_15
REMARK    8  A    between atoms: C_15  and  C_16
REMARK    9  A    between atoms: C_16  and  O_17
REMARK                            x       y       z     vdW  Elec       q    Type
REMARK                         _______ _______ _______ _____ _____    ______ ____
ROOT
ATOM      1  C   UNL     1      48.914   6.862  15.605  0.00  0.00    +0.000 C 
ENDROOT
BRANCH   1   2
ATOM      2  C   UNL     1      48.930   5.794  16.663  0.00  0.00    +0.000 A 
ATOM      3  C   UNL     1      48.085   4.687  16.603  0.00  0.00    +0.000 A 
ATOM      4  C   UNL     1      48.188   3.724  17.595  0.00  0.00    +0.000 A 
ATOM      5  N   UNL     1      49.062   3.787  18.627  0.00  0.00    +0.000 NA
ATOM      6  C   UNL     1      49.827   4.902  18.719  0.00  0.00    +0.000 A 
ATOM      7  C   UNL     1      49.795   5.908  17.754  0.00  0.00    +0.000 A 
BRANCH   6   8
ATOM      8  C   UNL     1      50.808   4.995  19.844  0.00  0.00    +0.000 C 
BRANCH   8   9
ATOM      9  S   UNL     1      52.441   4.530  19.289  0.00  0.00    +0.000 S 
ATOM     10  O   UNL     1      53.111   5.756  18.903  0.00  0.00    +0.000 OA
ATOM     11  O   UNL     1      53.069   3.622  20.225  0.00  0.00    +0.000 OA
BRANCH   9  12
ATOM     12  N   UNL     1      52.183   3.669  17.869  0.00  0.00    +0.000 NA
ATOM     13  H   UNL     1      52.321   4.200  17.007  0.00  0.00    +0.000 HD
BRANCH  12  14
ATOM     14  C   UNL     1      52.594   2.246  17.838  0.00  0.00    +0.000 C 
BRANCH  14  15
ATOM     15  C   UNL     1      51.439   1.326  17.432  0.00  0.00    +0.000 C 
BRANCH  15  16
ATOM     16  O   UNL     1      51.510   0.107  18.169  0.00  0.00    +0.000 OA
ATOM     17  H   UNL     1      51.462  -0.602  17.493  0.00  0.00    +0.000 HD
ENDBRANCH  15  16
ENDBRANCH  14  15
ENDBRANCH  12  14
ENDBRANCH   9  12
ENDBRANCH   8   9
ENDBRANCH   6   8
ENDBRANCH   1   2
BRANCH   1  20
ATOM     18  O   UNL     1      48.904   6.123  12.877  0.00  0.00    +0.000 OA
ATOM     19  C   UNL     1      47.837   6.328  13.447  0.00  0.00    +0.000 C 
ATOM     20  N   UNL     1      47.763   6.751  14.748  0.00  0.00    +0.000 N 
ATOM     21  H   UNL     1      46.860   6.797  15.204  0.00  0.00    +0.000 HD
BRANCH  19  22
ATOM     22  C   UNL     1      46.551   6.150  12.765  0.00  0.00    +0.000 A 
ATOM     23  C   UNL     1      45.929   7.229  12.155  0.00  0.00    +0.000 A 
ATOM     24  S   UNL     1      44.440   6.830  11.421  0.00  0.00    +0.000 S 
ATOM     25  C   UNL     1      44.604   5.189  11.848  0.00  0.00    +0.000 A 
ATOM     26  N   UNL     1      43.662   4.274  11.490  0.00  0.00    +0.000 NA
ATOM     27  C   UNL     1      43.937   3.063  11.842  0.00  0.00    +0.000 A 
ATOM     28  N   UNL     1      45.062   2.684  12.529  0.00  0.00    +0.000 N 
ATOM     29  C   UNL     1      46.004   3.581  12.966  0.00  0.00    +0.000 A 
ATOM     30  O   UNL     1      46.943   3.221  13.672  0.00  0.00    +0.000 OA
ATOM     31  C   UNL     1      45.762   4.955  12.562  0.00  0.00    +0.000 A 
ATOM     32  H   UNL     1      45.205   1.721  12.794  0.00  0.00    +0.000 HD
ENDBRANCH  19  22
ENDBRANCH   1  20
TORSDOF 9
ENDMDL
MODEL 6
REMARK VINA RESULT:    -6.257      2.403      6.817
REMARK INTER + INTRA:         -11.077
REMARK INTER:                  -9.076
REMARK INTRA:                  -2.001
REMARK UNBOUND:                -1.712
REMARK  Name = 
REMARK  9 active torsions:
REMARK  status: ('A' for Active; 'I' for Inactive)
REMARK    1  A    between atoms: C_2  and  C_19
REMARK    2  A    between atoms: N_3  and  C_4
REMARK    3  A    between atoms: C_4  and  C_5
REMARK    4  A    between atoms: C_9  and  C_10
REMARK    5  A    between atoms: C_10  and  S_11
REMARK    6  A    between atoms: S_11  and  N_14
REMARK    7  A    between atoms: N_14  and  C_15
REMARK    8  A    between atoms: C_15  and  C_16
REMARK    9  A    between atoms: C_16  and  O_17
REMARK                            x       y       z     vdW  Elec       q    Type
REMARK                         _______ _______ _______ _____ _____    ______ ____
ROOT
ATOM      1  C   UNL     1      48.397   8.575  14.351  0.00  0.00    +0.000 C 
ENDROOT
BRANCH   1   2
ATOM      2  C   UNL     1      49.076   7.623  15.295  0.00  0.00    +0.000 A 
ATOM      3  C   UNL     1      50.452   7.404  15.254  0.00  0.00    +0.000 A 
ATOM      4  C   UNL     1      51.011   6.542  16.186  0.00  0.00    +0.000 A 
ATOM      5  N   UNL     1      50.304   5.895  17.141  0.00  0.00    +0.000 NA
ATOM      6  C   UNL     1      48.958   6.055  17.127  0.00  0.00    +0.000 A 
ATOM      7  C   UNL     1      48.321   6.915  16.234  0.00  0.00    +0.000 A 
BRANCH   6   8
ATOM      8  C   UNL     1      48.152   5.359  18.177  0.00  0.00    +0.000 C 
BRANCH   8   9
ATOM      9  S   UNL     1      47.896   3.647  17.735  0.00  0.00    +0.000 S 
ATOM     10  O   UNL     1      48.183   2.866  18.922  0.00  0.00    +0.000 OA
ATOM     11  O   UNL     1      46.641   3.472  17.036  0.00  0.00    +0.000 OA
BRANCH   9  12
ATOM     12  N   UNL     1      49.120   3.298  16.637  0.00  0.00    +0.000 NA
ATOM     13  H   UNL     1      49.647   4.108  16.302  0.00  0.00    +0.000 HD
BRANCH  12  14
ATOM     14  C   UNL     1      49.889   2.047  16.831  0.00  0.00    +0.000 C 
BRANCH  14  15
ATOM     15  C   UNL     1      51.279   2.314  17.415  0.00  0.00    +0.000 C 
BRANCH  15  16
ATOM     16  O   UNL     1      51.190   3.295  18.446  0.00  0.00    +0.000 OA
ATOM     17  H   UNL     1      50.237   3.349  18.665  0.00  0.00    +0.000 HD
ENDBRANCH  15  16
ENDBRANCH  14  15
ENDBRANCH  12  14
ENDBRANCH   9  12
ENDBRANCH   8   9
ENDBRANCH   6   8
ENDBRANCH   1   2
BRANCH   1  20
ATOM     18  O   UNL     1      48.235   6.923  12.064  0.00  0.00    +0.000 OA
ATOM     19  C   UNL     1      47.215   7.164  12.703  0.00  0.00    +0.000 C 
ATOM     20  N   UNL     1      47.202   8.008  13.783  0.00  0.00    +0.000 N 
ATOM     21  H   UNL     1      46.361   8.085  14.341  0.00  0.00    +0.000 HD
BRANCH  19  22
ATOM     22  C   UNL     1      45.920   6.577  12.342  0.00  0.00    +0.000 A 
ATOM     23  C   UNL     1      44.939   7.361  11.753  0.00  0.00    +0.000 A 
ATOM     24  S   UNL     1      43.501   6.506  11.412  0.00  0.00    +0.000 S 
ATOM     25  C   UNL     1      44.162   5.047  11.993  0.00  0.00    +0.000 A 
ATOM     26  N   UNL     1      43.445   3.891  11.962  0.00  0.00    +0.000 NA
ATOM     27  C   UNL     1      44.086   2.857  12.394  0.00  0.00    +0.000 A 
ATOM     28  N   UNL     1      45.374   2.874  12.863  0.00  0.00    +0.000 N 
ATOM     29  C   UNL     1      46.111   4.028  12.972  0.00  0.00    +0.000 A 
ATOM     30  O   UNL     1      47.221   4.023  13.498  0.00  0.00    +0.000 OA
ATOM     31  C   UNL     1      45.449   5.216  12.464  0.00  0.00    +0.000 A 
ATOM     32  H   UNL     1      45.810   2.031  13.207  0.00  0.00    +0.000 HD
ENDBRANCH  19  22
ENDBRANCH   1  20
TORSDOF 9
ENDMDL
MODEL 7
REMARK VINA RESULT:    -6.152      2.919      8.028
REMARK INTER + INTRA:         -10.921
REMARK INTER:                  -8.969
REMARK INTRA:                  -1.952
REMARK UNBOUND:                -1.712
REMARK  Name = 
REMARK  9 active torsions:
REMARK  status: ('A' for Active; 'I' for Inactive)
REMARK    1  A    between atoms: C_2  and  C_19
REMARK    2  A    between atoms: N_3  and  C_4
REMARK    3  A    between atoms: C_4  and  C_5
REMARK    4  A    between atoms: C_9  and  C_10
REMARK    5  A    between atoms: C_10  and  S_11
REMARK    6  A    between atoms: S_11  and  N_14
REMARK    7  A    between atoms: N_14  and  C_15
REMARK    8  A    between atoms: C_15  and  C_16
REMARK    9  A    between atoms: C_16  and  O_17
REMARK                            x       y       z     vdW  Elec       q    Type
REMARK                         _______ _______ _______ _____ _____    ______ ____
ROOT
ATOM      1  C   UNL     1      47.432   3.627  16.647  0.00  0.00    +0.000 C 
ENDROOT
BRANCH   1   2
ATOM      2  C   UNL     1      48.273   4.254  17.725  0.00  0.00    +0.000 A 
ATOM      3  C   UNL     1      49.631   3.968  17.856  0.00  0.00    +0.000 A 
ATOM      4  C   UNL     1      50.349   4.618  18.849  0.00  0.00    +0.000 A 
ATOM      5  N   UNL     1      49.814   5.520  19.705  0.00  0.00    +0.000 NA
ATOM      6  C   UNL     1      48.479   5.736  19.619  0.00  0.00    +0.000 A 
ATOM      7  C   UNL     1      47.690   5.134  18.639  0.00  0.00    +0.000 A 
BRANCH   6   8
ATOM      8  C   UNL     1      47.862   6.733  20.547  0.00  0.00    +0.000 C 
BRANCH   8   9
ATOM      9  S   UNL     1      48.086   8.391  19.920  0.00  0.00    +0.000 S 
ATOM     10  O   UNL     1      47.062   8.594  18.915  0.00  0.00    +0.000 OA
ATOM     11  O   UNL     1      48.241   9.340  21.002  0.00  0.00    +0.000 OA
BRANCH   9  12
ATOM     12  N   UNL     1      49.550   8.345  19.096  0.00  0.00    +0.000 NA
ATOM     13  H   UNL     1      50.131   7.527  19.287  0.00  0.00    +0.000 HD
BRANCH  12  14
ATOM     14  C   UNL     1      49.581   8.866  17.710  0.00  0.00    +0.000 C 
BRANCH  14  15
ATOM     15  C   UNL     1      49.543   7.739  16.675  0.00  0.00    +0.000 C 
BRANCH  15  16
ATOM     16  O   UNL     1      48.196   7.493  16.275  0.00  0.00    +0.000 OA
ATOM     17  H   UNL     1      47.985   6.603  16.625  0.00  0.00    +0.000 HD
ENDBRANCH  15  16
ENDBRANCH  14  15
ENDBRANCH  12  14
ENDBRANCH   9  12
ENDBRANCH   8   9
ENDBRANCH   6   8
ENDBRANCH   1   2
BRANCH   1  20
ATOM     18  O   UNL     1      47.203   3.173  13.868  0.00  0.00    +0.000 OA
ATOM     19  C   UNL     1      46.891   4.268  14.324  0.00  0.00    +0.000 C 
ATOM     20  N   UNL     1      47.036   4.585  15.650  0.00  0.00    +0.000 N 
ATOM     21  H   UNL     1      46.660   5.460  15.994  0.00  0.00    +0.000 HD
BRANCH  19  22
ATOM     22  C   UNL     1      46.353   5.334  13.473  0.00  0.00    +0.000 A 
ATOM     23  C   UNL     1      47.139   6.430  13.145  0.00  0.00    +0.000 A 
ATOM     24  S   UNL     1      46.340   7.567  12.155  0.00  0.00    +0.000 S 
ATOM     25  C   UNL     1      44.934   6.607  12.088  0.00  0.00    +0.000 A 
ATOM     26  N   UNL     1      43.850   7.001  11.363  0.00  0.00    +0.000 NA
ATOM     27  C   UNL     1      42.875   6.156  11.367  0.00  0.00    +0.000 A 
ATOM     28  N   UNL     1      42.877   4.960  12.036  0.00  0.00    +0.000 N 
ATOM     29  C   UNL     1      43.921   4.553  12.831  0.00  0.00    +0.000 A 
ATOM     30  O   UNL     1      43.845   3.528  13.502  0.00  0.00    +0.000 OA
ATOM     31  C   UNL     1      45.063   5.451  12.831  0.00  0.00    +0.000 A 
ATOM     32  H   UNL     1      42.070   4.354  12.016  0.00  0.00    +0.000 HD
ENDBRANCH  19  22
ENDBRANCH   1  20
TORSDOF 9
ENDMDL
MODEL 8
REMARK VINA RESULT:    -6.103      1.699      2.042
REMARK INTER + INTRA:         -10.847
REMARK INTER:                  -9.533
REMARK INTRA:                  -1.313
REMARK UNBOUND:                -1.712
REMARK  Name = 
REMARK  9 active torsions:
REMARK  status: ('A' for Active; 'I' for Inactive)
REMARK    1  A    between atoms: C_2  and  C_19
REMARK    2  A    between atoms: N_3  and  C_4
REMARK    3  A    between atoms: C_4  and  C_5
REMARK    4  A    between atoms: C_9  and  C_10
REMARK    5  A    between atoms: C_10  and  S_11
REMARK    6  A    between atoms: S_11  and  N_14
REMARK    7  A    between atoms: N_14  and  C_15
REMARK    8  A    between atoms: C_15  and  C_16
REMARK    9  A    between atoms: C_16  and  O_17
REMARK                            x       y       z     vdW  Elec       q    Type
REMARK                         _______ _______ _______ _____ _____    ______ ____
ROOT
ATOM      1  C   UNL     1      48.151   6.473  13.589  0.00  0.00    +0.000 C 
ENDROOT
BRANCH   1   2
ATOM      2  C   UNL     1      46.763   6.534  13.015  0.00  0.00    +0.000 A 
ATOM      3  C   UNL     1      46.329   7.618  12.254  0.00  0.00    +0.000 A 
ATOM      4  C   UNL     1      45.048   7.582  11.724  0.00  0.00    +0.000 A 
ATOM      5  N   UNL     1      44.184   6.555  11.896  0.00  0.00    +0.000 NA
ATOM      6  C   UNL     1      44.586   5.539  12.699  0.00  0.00    +0.000 A 
ATOM      7  C   UNL     1      45.863   5.493  13.257  0.00  0.00    +0.000 A 
BRANCH   6   8
ATOM      8  C   UNL     1      43.654   4.387  12.901  0.00  0.00    +0.000 C 
BRANCH   8   9
ATOM      9  S   UNL     1      43.863   3.180  11.601  0.00  0.00    +0.000 S 
ATOM     10  O   UNL     1      45.266   2.813  11.599  0.00  0.00    +0.000 OA
ATOM     11  O   UNL     1      42.844   2.155  11.674  0.00  0.00    +0.000 OA
BRANCH   9  12
ATOM     12  N   UNL     1      43.600   4.032  10.177  0.00  0.00    +0.000 NA
ATOM     13  H   UNL     1      43.005   4.858  10.268  0.00  0.00    +0.000 HD
BRANCH  12  14
ATOM     14  C   UNL     1      44.718   4.130   9.210  0.00  0.00    +0.000 C 
BRANCH  14  15
ATOM     15  C   UNL     1      44.781   2.913   8.283  0.00  0.00    +0.000 C 
BRANCH  15  16
ATOM     16  O   UNL     1      45.746   1.982   8.770  0.00  0.00    +0.000 OA
ATOM     17  H   UNL     1      45.820   1.302   8.069  0.00  0.00    +0.000 HD
ENDBRANCH  15  16
ENDBRANCH  14  15
ENDBRANCH  12  14
ENDBRANCH   9  12
ENDBRANCH   8   9
ENDBRANCH   6   8
ENDBRANCH   1   2
BRANCH   1  20
ATOM     18  O   UNL     1      50.037   7.681  15.313  0.00  0.00    +0.000 OA
ATOM     19  C   UNL     1      49.059   7.117  15.794  0.00  0.00    +0.000 C 
ATOM     20  N   UNL     1      48.137   6.454  15.028  0.00  0.00    +0.000 N 
ATOM     21  H   UNL     1      47.292   6.102  15.462  0.00  0.00    +0.000 HD
BRANCH  19  22
ATOM     22  C   UNL     1      48.814   7.096  17.240  0.00  0.00    +0.000 A 
ATOM     23  C   UNL     1      48.429   8.255  17.900  0.00  0.00    +0.000 A 
ATOM     24  S   UNL     1      48.198   8.036  19.577  0.00  0.00    +0.000 S 
ATOM     25  C   UNL     1      48.555   6.374  19.468  0.00  0.00    +0.000 A 
ATOM     26  N   UNL     1      48.510   5.574  20.569  0.00  0.00    +0.000 NA
ATOM     27  C   UNL     1      48.761   4.331  20.331  0.00  0.00    +0.000 A 
ATOM     28  N   UNL     1      49.061   3.814  19.097  0.00  0.00    +0.000 N 
ATOM     29  C   UNL     1      49.180   4.594  17.973  0.00  0.00    +0.000 A 
ATOM     30  O   UNL     1      49.557   4.115  16.907  0.00  0.00    +0.000 OA
ATOM     31  C   UNL     1      48.871   5.997  18.178  0.00  0.00    +0.000 A 
ATOM     32  H   UNL     1      49.268   2.833  18.984  0.00  0.00    +0.000 HD
ENDBRANCH  19  22
ENDBRANCH   1  20
TORSDOF 9
ENDMDL
MODEL 9
REMARK VINA RESULT:    -6.065      2.518      7.215
REMARK INTER + INTRA:         -10.791
REMARK INTER:                  -9.497
REMARK INTRA:                  -1.294
REMARK UNBOUND:                -1.712
REMARK  Name = 
REMARK  9 active torsions:
REMARK  status: ('A' for Active; 'I' for Inactive)
REMARK    1  A    between atoms: C_2  and  C_19
REMARK    2  A    between atoms: N_3  and  C_4
REMARK    3  A    between atoms: C_4  and  C_5
REMARK    4  A    between atoms: C_9  and  C_10
REMARK    5  A    between atoms: C_10  and  S_11
REMARK    6  A    between atoms: S_11  and  N_14
REMARK    7  A    between atoms: N_14  and  C_15
REMARK    8  A    between atoms: C_15  and  C_16
REMARK    9  A    between atoms: C_16  and  O_17
REMARK                            x       y       z     vdW  Elec       q    Type
REMARK                         _______ _______ _______ _____ _____    ______ ____
ROOT
ATOM      1  C   UNL     1      48.349   8.608  14.560  0.00  0.00    +0.000 C 
ENDROOT
BRANCH   1   2
ATOM      2  C   UNL     1      48.457   8.508  16.056  0.00  0.00    +0.000 A 
ATOM      3  C   UNL     1      48.075   9.556  16.892  0.00  0.00    +0.000 A 
ATOM      4  C   UNL     1      48.166   9.373  18.264  0.00  0.00    +0.000 A 
ATOM      5  N   UNL     1      48.604   8.233  18.850  0.00  0.00    +0.000 NA
ATOM      6  C   UNL     1      49.043   7.248  18.030  0.00  0.00    +0.000 A 
ATOM      7  C   UNL     1      48.971   7.348  16.641  0.00  0.00    +0.000 A 
BRANCH   6   8
ATOM      8  C   UNL     1      49.524   5.974  18.650  0.00  0.00    +0.000 C 
BRANCH   8   9
ATOM      9  S   UNL     1      48.153   5.057  19.336  0.00  0.00    +0.000 S 
ATOM     10  O   UNL     1      48.184   5.277  20.769  0.00  0.00    +0.000 OA
ATOM     11  O   UNL     1      46.938   5.302  18.589  0.00  0.00    +0.000 OA
BRANCH   9  12
ATOM     12  N   UNL     1      48.555   3.443  19.100  0.00  0.00    +0.000 NA
ATOM     13  H   UNL     1      47.827   2.772  19.354  0.00  0.00    +0.000 HD
BRANCH  12  14
ATOM     14  C   UNL     1      49.385   3.100  17.922  0.00  0.00    +0.000 C 
BRANCH  14  15
ATOM     15  C   UNL     1      48.529   2.690  16.721  0.00  0.00    +0.000 C 
BRANCH  15  16
ATOM     16  O   UNL     1      49.233   1.736  15.928  0.00  0.00    +0.000 OA
ATOM     17  H   UNL     1      49.635   2.256  15.201  0.00  0.00    +0.000 HD
ENDBRANCH  15  16
ENDBRANCH  14  15
ENDBRANCH  12  14
ENDBRANCH   9  12
ENDBRANCH   8   9
ENDBRANCH   6   8
ENDBRANCH   1   2
BRANCH   1  20
ATOM     18  O   UNL     1      48.882   6.375  12.912  0.00  0.00    +0.000 OA
ATOM     19  C   UNL     1      47.731   6.586  13.283  0.00  0.00    +0.000 C 
ATOM     20  N   UNL     1      47.384   7.682  14.028  0.00  0.00    +0.000 N 
ATOM     21  H   UNL     1      46.445   7.750  14.402  0.00  0.00    +0.000 HD
BRANCH  19  22
ATOM     22  C   UNL     1      46.630   5.681  12.936  0.00  0.00    +0.000 A 
ATOM     23  C   UNL     1      46.697   4.337  13.276  0.00  0.00    +0.000 A 
ATOM     24  S   UNL     1      45.329   3.443  12.785  0.00  0.00    +0.000 S 
ATOM     25  C   UNL     1      44.578   4.832  12.147  0.00  0.00    +0.000 A 
ATOM     26  N   UNL     1      43.339   4.765  11.586  0.00  0.00    +0.000 NA
ATOM     27  C   UNL     1      42.876   5.900  11.185  0.00  0.00    +0.000 A 
ATOM     28  N   UNL     1      43.540   7.096  11.283  0.00  0.00    +0.000 N 
ATOM     29  C   UNL     1      44.816   7.200  11.782  0.00  0.00    +0.000 A 
ATOM     30  O   UNL     1      45.422   8.268  11.754  0.00  0.00    +0.000 OA
ATOM     31  C   UNL     1      45.370   5.955  12.284  0.00  0.00    +0.000 A 
ATOM     32  H   UNL     1      43.129   7.947  10.928  0.00  0.00    +0.000 HD
ENDBRANCH  19  22
ENDBRANCH   1  20
TORSDOF 9
ENDMDL
