MODEL 1
REMARK VINA RESULT:    -8.247      0.000      0.000
REMARK INTER + INTRA:         -10.256
REMARK INTER:                  -9.693
REMARK INTRA:                  -0.563
REMARK UNBOUND:                -0.563
REMARK  Name = 
REMARK  3 active torsions:
REMARK  status: ('A' for Active; 'I' for Inactive)
REMARK    1  A    between atoms: C_2  and  C_11
REMARK    2  A    between atoms: N_3  and  C_4
REMARK    3  A    between atoms: C_4  and  C_5
REMARK                            x       y       z     vdW  Elec       q    Type
REMARK                         _______ _______ _______ _____ _____    ______ ____
ROOT
ATOM      1  N   UNL     1      43.879   5.845  11.017  0.00  0.00    +0.000 NA
ATOM      2  C   UNL     1      45.097   5.646  10.661  0.00  0.00    +0.000 C 
ATOM      3  N   UNL     1      45.524   5.154   9.464  0.00  0.00    +0.000 N 
ATOM      4  H   UNL     1      43.258   5.598  10.245  0.00  0.00    +0.000 HD
ATOM      5  H   UNL     1      46.517   4.939   9.407  0.00  0.00    +0.000 HD
ENDROOT
BRANCH   2   6
ATOM      6  C   UNL     1      46.151   6.001  11.609  0.00  0.00    +0.000 A 
ATOM      7  C   UNL     1      46.957   7.113  11.401  0.00  0.00    +0.000 A 
ATOM      8  S   UNL     1      48.093   7.377  12.646  0.00  0.00    +0.000 S 
ATOM      9  C   UNL     1      47.526   6.034  13.523  0.00  0.00    +0.000 A 
ATOM     10  N   UNL     1      48.049   5.718  14.739  0.00  0.00    +0.000 NA
ATOM     11  C   UNL     1      47.494   4.700  15.310  0.00  0.00    +0.000 A 
ATOM     12  N   UNL     1      46.478   3.957  14.769  0.00  0.00    +0.000 N 
ATOM     13  C   UNL     1      45.972   4.190  13.513  0.00  0.00    +0.000 A 
ATOM     14  O   UNL     1      45.166   3.417  13.001  0.00  0.00    +0.000 OA
ATOM     15  C   UNL     1      46.516   5.367  12.856  0.00  0.00    +0.000 A 
ATOM     16  H   UNL     1      46.119   3.145  15.249  0.00  0.00    +0.000 HD
ENDBRANCH   2   6
BRANCH   3  17
ATOM     17  C   UNL     1      44.775   4.194   8.679  0.00  0.00    +0.000 C 
BRANCH  17  18
ATOM     18  C   UNL     1      45.664   3.155   8.059  0.00  0.00    +0.000 A 
ATOM     19  C   UNL     1      46.576   3.444   7.038  0.00  0.00    +0.000 A 
ATOM     20  C   UNL     1      47.397   2.441   6.536  0.00  0.00    +0.000 A 
ATOM     21  C   UNL     1      47.294   1.176   7.086  0.00  0.00    +0.000 A 
ATOM     22  N   UNL     1      46.447   0.860   8.088  0.00  0.00    +0.000 NA
ATOM     23  C   UNL     1      45.657   1.854   8.553  0.00  0.00    +0.000 A 
ENDBRANCH  17  18
ENDBRANCH   3  17
TORSDOF 3
ENDMDL
MODEL 2
REMARK VINA RESULT:    -7.912      2.017      2.899
REMARK INTER + INTRA:          -9.863
REMARK INTER:                  -9.224
REMARK INTRA:                  -0.639
REMARK UNBOUND:                -0.563
REMARK  Name = 
REMARK  3 active torsions:
REMARK  status: ('A' for Active; 'I' for Inactive)
REMARK    1  A    between atoms: C_2  and  C_11
REMARK    2  A    between atoms: N_3  and  C_4
REMARK    3  A    between atoms: C_4  and  C_5
REMARK                            x       y       z     vdW  Elec       q    Type
REMARK                         _______ _______ _______ _____ _____    ______ ____
ROOT
ATOM      1  N   UNL     1      44.245   2.421  12.508  0.00  0.00    +0.000 NA
ATOM      2  C   UNL     1      44.656   3.367  11.741  0.00  0.00    +0.000 C 
ATOM      3  N   UNL     1      44.496   3.444  10.390  0.00  0.00    +0.000 N 
ATOM      4  H   UNL     1      43.746   1.727  11.949  0.00  0.00    +0.000 HD
ATOM      5  H   UNL     1      45.003   4.200   9.932  0.00  0.00    +0.000 HD
ENDROOT
BRANCH   2   6
ATOM      6  C   UNL     1      45.342   4.498  12.362  0.00  0.00    +0.000 A 
ATOM      7  C   UNL     1      46.442   4.304  13.186  0.00  0.00    +0.000 A 
ATOM      8  S   UNL     1      47.124   5.755  13.771  0.00  0.00    +0.000 S 
ATOM      9  C   UNL     1      45.992   6.696  12.916  0.00  0.00    +0.000 A 
ATOM     10  N   UNL     1      46.045   8.055  12.944  0.00  0.00    +0.000 NA
ATOM     11  C   UNL     1      45.152   8.638  12.214  0.00  0.00    +0.000 A 
ATOM     12  N   UNL     1      44.198   7.988  11.477  0.00  0.00    +0.000 N 
ATOM     13  C   UNL     1      44.057   6.621  11.480  0.00  0.00    +0.000 A 
ATOM     14  O   UNL     1      43.102   6.082  10.926  0.00  0.00    +0.000 OA
ATOM     15  C   UNL     1      45.081   5.914  12.230  0.00  0.00    +0.000 A 
ATOM     16  H   UNL     1      43.500   8.506  10.963  0.00  0.00    +0.000 HD
ENDBRANCH   2   6
BRANCH   3  17
ATOM     17  C   UNL     1      44.460   2.287   9.520  0.00  0.00    +0.000 C 
BRANCH  17  18
ATOM     18  C   UNL     1      45.506   2.356   8.445  0.00  0.00    +0.000 A 
ATOM     19  C   UNL     1      45.805   3.531   7.747  0.00  0.00    +0.000 A 
ATOM     20  C   UNL     1      46.814   3.533   6.791  0.00  0.00    +0.000 A 
ATOM     21  C   UNL     1      47.510   2.357   6.573  0.00  0.00    +0.000 A 
ATOM     22  N   UNL     1      47.272   1.209   7.241  0.00  0.00    +0.000 NA
ATOM     23  C   UNL     1      46.282   1.235   8.162  0.00  0.00    +0.000 A 
ENDBRANCH  17  18
ENDBRANCH   3  17
TORSDOF 3
ENDMDL
MODEL 3
REMARK VINA RESULT:    -7.373      3.880      6.781
REMARK INTER + INTRA:          -9.230
REMARK INTER:                  -8.643
REMARK INTRA:                  -0.587
REMARK UNBOUND:                -0.563
REMARK  Name = 
REMARK  3 active torsions:
REMARK  status: ('A' for Active; 'I' for Inactive)
REMARK    1  A    between atoms: C_2  and  C_11
REMARK    2  A    between atoms: N_3  and  C_4
REMARK    3  A    between atoms: C_4  and  C_5
REMARK                            x       y       z     vdW  Elec       q    Type
REMARK                         _______ _______ _______ _____ _____    ______ ____
ROOT
ATOM      1  N   UNL     1      46.867   3.227  13.746  0.00  0.00    +0.000 NA
ATOM      2  C   UNL     1      46.729   4.397  14.258  0.00  0.00    +0.000 C 
ATOM      3  N   UNL     1      47.156   4.801  15.488  0.00  0.00    +0.000 N 
ATOM      4  H   UNL     1      47.379   2.631  14.398  0.00  0.00    +0.000 HD
ATOM      5  H   UNL     1      46.843   5.724  15.779  0.00  0.00    +0.000 HD
ENDROOT
BRANCH   2   6
ATOM      6  C   UNL     1      46.075   5.424  13.450  0.00  0.00    +0.000 A 
ATOM      7  C   UNL     1      46.734   6.599  13.115  0.00  0.00    +0.000 A 
ATOM      8  S   UNL     1      45.812   7.643  12.128  0.00  0.00    +0.000 S 
ATOM      9  C   UNL     1      44.512   6.545  12.086  0.00  0.00    +0.000 A 
ATOM     10  N   UNL     1      43.394   6.808  11.357  0.00  0.00    +0.000 NA
ATOM     11  C   UNL     1      42.508   5.867  11.382  0.00  0.00    +0.000 A 
ATOM     12  N   UNL     1      42.628   4.698  12.085  0.00  0.00    +0.000 N 
ATOM     13  C   UNL     1      43.702   4.423  12.896  0.00  0.00    +0.000 A 
ATOM     14  O   UNL     1      43.709   3.434  13.625  0.00  0.00    +0.000 OA
ATOM     15  C   UNL     1      44.760   5.419  12.849  0.00  0.00    +0.000 A 
ATOM     16  H   UNL     1      41.877   4.023  12.097  0.00  0.00    +0.000 HD
ENDBRANCH   2   6
BRANCH   3  17
ATOM     17  C   UNL     1      47.223   3.925  16.641  0.00  0.00    +0.000 C 
BRANCH  17  18
ATOM     18  C   UNL     1      48.622   3.449  16.907  0.00  0.00    +0.000 A 
ATOM     19  C   UNL     1      49.544   4.179  17.666  0.00  0.00    +0.000 A 
ATOM     20  C   UNL     1      50.811   3.660  17.907  0.00  0.00    +0.000 A 
ATOM     21  C   UNL     1      51.113   2.411  17.395  0.00  0.00    +0.000 A 
ATOM     22  N   UNL     1      50.246   1.662  16.680  0.00  0.00    +0.000 NA
ATOM     23  C   UNL     1      49.023   2.195  16.458  0.00  0.00    +0.000 A 
ENDBRANCH  17  18
ENDBRANCH   3  17
TORSDOF 3
ENDMDL
MODEL 4
REMARK VINA RESULT:    -7.094      1.868      2.416
REMARK INTER + INTRA:          -8.902
REMARK INTER:                  -8.318
REMARK INTRA:                  -0.584
REMARK UNBOUND:                -0.563
REMARK  Name = 
REMARK  3 active torsions:
REMARK  status: ('A' for Active; 'I' for Inactive)
REMARK    1  A    between atoms: C_2  and  C_11
REMARK    2  A    between atoms: N_3  and  C_4
REMARK    3  A    between atoms: C_4  and  C_5
REMARK                            x       y       z     vdW  Elec       q    Type
REMARK                         _______ _______ _______ _____ _____    ______ ____
ROOT
ATOM      1  N   UNL     1      44.430   4.069  13.075  0.00  0.00    +0.000 NA
ATOM      2  C   UNL     1      44.531   4.802  12.025  0.00  0.00    +0.000 C 
ATOM      3  N   UNL     1      44.156   4.465  10.759  0.00  0.00    +0.000 N 
ATOM      4  H   UNL     1      43.993   3.180  12.824  0.00  0.00    +0.000 HD
ATOM      5  H   UNL     1      44.433   5.120  10.031  0.00  0.00    +0.000 HD
ENDROOT
BRANCH   2   6
ATOM      6  C   UNL     1      45.075   6.149  12.184  0.00  0.00    +0.000 A 
ATOM      7  C   UNL     1      44.449   7.247  11.609  0.00  0.00    +0.000 A 
ATOM      8  S   UNL     1      45.219   8.731  11.953  0.00  0.00    +0.000 S 
ATOM      9  C   UNL     1      46.397   7.961  12.910  0.00  0.00    +0.000 A 
ATOM     10  N   UNL     1      47.355   8.679  13.557  0.00  0.00    +0.000 NA
ATOM     11  C   UNL     1      48.155   7.969  14.282  0.00  0.00    +0.000 A 
ATOM     12  N   UNL     1      48.099   6.606  14.402  0.00  0.00    +0.000 N 
ATOM     13  C   UNL     1      47.200   5.832  13.708  0.00  0.00    +0.000 A 
ATOM     14  O   UNL     1      47.273   4.606  13.726  0.00  0.00    +0.000 OA
ATOM     15  C   UNL     1      46.232   6.589  12.931  0.00  0.00    +0.000 A 
ATOM     16  H   UNL     1      48.784   6.107  14.951  0.00  0.00    +0.000 HD
ENDBRANCH   2   6
BRANCH   3  17
ATOM     17  C   UNL     1      44.209   3.113  10.241  0.00  0.00    +0.000 C 
BRANCH  17  18
ATOM     18  C   UNL     1      45.151   2.990   9.078  0.00  0.00    +0.000 A 
ATOM     19  C   UNL     1      45.713   1.773   8.679  0.00  0.00    +0.000 A 
ATOM     20  C   UNL     1      46.548   1.725   7.568  0.00  0.00    +0.000 A 
ATOM     21  C   UNL     1      46.780   2.899   6.875  0.00  0.00    +0.000 A 
ATOM     22  N   UNL     1      46.239   4.089   7.210  0.00  0.00    +0.000 NA
ATOM     23  C   UNL     1      45.435   4.106   8.297  0.00  0.00    +0.000 A 
ENDBRANCH  17  18
ENDBRANCH   3  17
TORSDOF 3
ENDMDL
MODEL 5
REMARK VINA RESULT:    -7.056      3.232      6.702
REMARK INTER + INTRA:          -8.857
REMARK INTER:                  -8.252
REMARK INTRA:                  -0.606
REMARK UNBOUND:                -0.563
REMARK  Name = 
REMARK  3 active torsions:
REMARK  status: ('A' for Active; 'I' for Inactive)
REMARK    1  A    between atoms: C_2  and  C_11
REMARK    2  A    between atoms: N_3  and  C_4
REMARK    3  A    between atoms: C_4  and  C_5
REMARK                            x       y       z     vdW  Elec       q    Type
REMARK                         _______ _______ _______ _____ _____    ______ ____
ROOT
ATOM      1  N   UNL     1      49.188   6.477  13.083  0.00  0.00    +0.000 NA
ATOM      2  C   UNL     1      48.107   6.530  13.775  0.00  0.00    +0.000 C 
ATOM      3  N   UNL     1      48.009   6.776  15.112  0.00  0.00    +0.000 N 
ATOM      4  H   UNL     1      49.986   6.675  13.689  0.00  0.00    +0.000 HD
ATOM      5  H   UNL     1      47.083   6.648  15.514  0.00  0.00    +0.000 HD
ENDROOT
BRANCH   2   6
ATOM      6  C   UNL     1      46.839   6.338  13.074  0.00  0.00    +0.000 A 
ATOM      7  C   UNL     1      46.149   7.414  12.534  0.00  0.00    +0.000 A 
ATOM      8  S   UNL     1      44.717   6.970  11.719  0.00  0.00    +0.000 S 
ATOM      9  C   UNL     1      44.987   5.319  12.030  0.00  0.00    +0.000 A 
ATOM     10  N   UNL     1      44.140   4.367  11.554  0.00  0.00    +0.000 NA
ATOM     11  C   UNL     1      44.491   3.154  11.830  0.00  0.00    +0.000 A 
ATOM     12  N   UNL     1      45.601   2.807  12.555  0.00  0.00    +0.000 N 
ATOM     13  C   UNL     1      46.441   3.735  13.121  0.00  0.00    +0.000 A 
ATOM     14  O   UNL     1      47.340   3.392  13.886  0.00  0.00    +0.000 OA
ATOM     15  C   UNL     1      46.129   5.113  12.783  0.00  0.00    +0.000 A 
ATOM     16  H   UNL     1      45.793   1.840  12.773  0.00  0.00    +0.000 HD
ENDBRANCH   2   6
BRANCH   3  17
ATOM     17  C   UNL     1      49.015   6.378  16.076  0.00  0.00    +0.000 C 
BRANCH  17  18
ATOM     18  C   UNL     1      48.672   5.080  16.747  0.00  0.00    +0.000 A 
ATOM     19  C   UNL     1      49.619   4.292  17.410  0.00  0.00    +0.000 A 
ATOM     20  C   UNL     1      49.225   3.119  18.045  0.00  0.00    +0.000 A 
ATOM     21  C   UNL     1      47.884   2.779  18.014  0.00  0.00    +0.000 A 
ATOM     22  N   UNL     1      46.934   3.522  17.408  0.00  0.00    +0.000 NA
ATOM     23  C   UNL     1      47.348   4.654  16.795  0.00  0.00    +0.000 A 
ENDBRANCH  17  18
ENDBRANCH   3  17
TORSDOF 3
ENDMDL
MODEL 6
REMARK VINA RESULT:    -6.623      2.765      7.393
REMARK INTER + INTRA:          -8.348
REMARK INTER:                  -7.660
REMARK INTRA:                  -0.689
REMARK UNBOUND:                -0.563
REMARK  Name = 
REMARK  3 active torsions:
REMARK  status: ('A' for Active; 'I' for Inactive)
REMARK    1  A    between atoms: C_2  and  C_11
REMARK    2  A    between atoms: N_3  and  C_4
REMARK    3  A    between atoms: C_4  and  C_5
REMARK                            x       y       z     vdW  Elec       q    Type
REMARK                         _______ _______ _______ _____ _____    ______ ____
ROOT
ATOM      1  N   UNL     1      48.455   5.985  13.780  0.00  0.00    +0.000 NA
ATOM      2  C   UNL     1      47.258   5.601  14.045  0.00  0.00    +0.000 C 
ATOM      3  N   UNL     1      46.835   4.990  15.188  0.00  0.00    +0.000 N 
ATOM      4  H   UNL     1      49.058   5.784  14.580  0.00  0.00    +0.000 HD
ATOM      5  H   UNL     1      45.880   4.638  15.168  0.00  0.00    +0.000 HD
ENDROOT
BRANCH   2   6
ATOM      6  C   UNL     1      46.222   5.858  13.047  0.00  0.00    +0.000 A 
ATOM      7  C   UNL     1      45.896   7.155  12.672  0.00  0.00    +0.000 A 
ATOM      8  S   UNL     1      44.696   7.235  11.461  0.00  0.00    +0.000 S 
ATOM      9  C   UNL     1      44.594   5.539  11.372  0.00  0.00    +0.000 A 
ATOM     10  N   UNL     1      43.769   4.931  10.477  0.00  0.00    +0.000 NA
ATOM     11  C   UNL     1      43.827   3.640  10.490  0.00  0.00    +0.000 A 
ATOM     12  N   UNL     1      44.617   2.901  11.330  0.00  0.00    +0.000 N 
ATOM     13  C   UNL     1      45.406   3.468  12.302  0.00  0.00    +0.000 A 
ATOM     14  O   UNL     1      45.987   2.772  13.131  0.00  0.00    +0.000 OA
ATOM     15  C   UNL     1      45.430   4.921  12.283  0.00  0.00    +0.000 A 
ATOM     16  H   UNL     1      44.581   1.892  11.319  0.00  0.00    +0.000 HD
ENDBRANCH   2   6
BRANCH   3  17
ATOM     17  C   UNL     1      47.664   4.101  15.976  0.00  0.00    +0.000 C 
BRANCH  17  18
ATOM     18  C   UNL     1      48.185   4.766  17.217  0.00  0.00    +0.000 A 
ATOM     19  C   UNL     1      47.358   5.151  18.278  0.00  0.00    +0.000 A 
ATOM     20  C   UNL     1      47.912   5.728  19.416  0.00  0.00    +0.000 A 
ATOM     21  C   UNL     1      49.286   5.884  19.465  0.00  0.00    +0.000 A 
ATOM     22  N   UNL     1      50.122   5.504  18.476  0.00  0.00    +0.000 NA
ATOM     23  C   UNL     1      49.554   4.951  17.380  0.00  0.00    +0.000 A 
ENDBRANCH  17  18
ENDBRANCH   3  17
TORSDOF 3
ENDMDL
MODEL 7
REMARK VINA RESULT:    -6.595      4.245      6.978
REMARK INTER + INTRA:          -8.315
REMARK INTER:                  -7.821
REMARK INTRA:                  -0.494
REMARK UNBOUND:                -0.563
REMARK  Name = 
REMARK  3 active torsions:
REMARK  status: ('A' for Active; 'I' for Inactive)
REMARK    1  A    between atoms: C_2  and  C_11
REMARK    2  A    between atoms: N_3  and  C_4
REMARK    3  A    between atoms: C_4  and  C_5
REMARK                            x       y       z     vdW  Elec       q    Type
REMARK                         _______ _______ _______ _____ _____    ______ ____
ROOT
ATOM      1  N   UNL     1      47.313   3.158  13.941  0.00  0.00    +0.000 NA
ATOM      2  C   UNL     1      46.865   4.245  14.460  0.00  0.00    +0.000 C 
ATOM      3  N   UNL     1      47.088   4.691  15.728  0.00  0.00    +0.000 N 
ATOM      4  H   UNL     1      47.898   2.674  14.624  0.00  0.00    +0.000 HD
ATOM      5  H   UNL     1      46.545   5.506  16.007  0.00  0.00    +0.000 HD
ENDROOT
BRANCH   2   6
ATOM      6  C   UNL     1      46.053   5.119  13.616  0.00  0.00    +0.000 A 
ATOM      7  C   UNL     1      44.822   4.703  13.127  0.00  0.00    +0.000 A 
ATOM      8  S   UNL     1      44.016   5.889  12.203  0.00  0.00    +0.000 S 
ATOM      9  C   UNL     1      45.269   7.013  12.451  0.00  0.00    +0.000 A 
ATOM     10  N   UNL     1      45.186   8.278  11.957  0.00  0.00    +0.000 NA
ATOM     11  C   UNL     1      46.189   9.035  12.259  0.00  0.00    +0.000 A 
ATOM     12  N   UNL     1      47.275   8.639  12.992  0.00  0.00    +0.000 N 
ATOM     13  C   UNL     1      47.440   7.352  13.445  0.00  0.00    +0.000 A 
ATOM     14  O   UNL     1      48.491   6.995  13.971  0.00  0.00    +0.000 OA
ATOM     15  C   UNL     1      46.307   6.478  13.191  0.00  0.00    +0.000 A 
ATOM     16  H   UNL     1      48.047   9.269  13.154  0.00  0.00    +0.000 HD
ENDBRANCH   2   6
BRANCH   3  17
ATOM     17  C   UNL     1      47.268   3.814  16.867  0.00  0.00    +0.000 C 
BRANCH  17  18
ATOM     18  C   UNL     1      48.704   3.417  17.052  0.00  0.00    +0.000 A 
ATOM     19  C   UNL     1      49.640   4.228  17.704  0.00  0.00    +0.000 A 
ATOM     20  C   UNL     1      50.945   3.780  17.876  0.00  0.00    +0.000 A 
ATOM     21  C   UNL     1      51.272   2.522  17.404  0.00  0.00    +0.000 A 
ATOM     22  N   UNL     1      50.395   1.698  16.792  0.00  0.00    +0.000 NA
ATOM     23  C   UNL     1      49.134   2.161  16.635  0.00  0.00    +0.000 A 
ENDBRANCH  17  18
ENDBRANCH   3  17
TORSDOF 3
ENDMDL
MODEL 8
REMARK VINA RESULT:    -6.389      2.927      4.383
REMARK INTER + INTRA:          -8.073
REMARK INTER:                  -7.462
REMARK INTRA:                  -0.611
REMARK UNBOUND:                -0.563
REMARK  Name = 
REMARK  3 active torsions:
REMARK  status: ('A' for Active; 'I' for Inactive)
REMARK    1  A    between atoms: C_2  and  C_11
REMARK    2  A    between atoms: N_3  and  C_4
REMARK    3  A    between atoms: C_4  and  C_5
REMARK                            x       y       z     vdW  Elec       q    Type
REMARK                         _______ _______ _______ _____ _____    ______ ____
ROOT
ATOM      1  N   UNL     1      48.788   6.384  12.963  0.00  0.00    +0.000 NA
ATOM      2  C   UNL     1      47.865   6.262  13.849  0.00  0.00    +0.000 C 
ATOM      3  N   UNL     1      46.521   6.246  13.625  0.00  0.00    +0.000 N 
ATOM      4  H   UNL     1      48.361   6.443  12.037  0.00  0.00    +0.000 HD
ATOM      5  H   UNL     1      45.938   6.276  14.458  0.00  0.00    +0.000 HD
ENDROOT
BRANCH   2   6
ATOM      6  C   UNL     1      48.275   6.096  15.242  0.00  0.00    +0.000 A 
ATOM      7  C   UNL     1      48.832   7.150  15.955  0.00  0.00    +0.000 A 
ATOM      8  S   UNL     1      49.197   6.761  17.576  0.00  0.00    +0.000 S 
ATOM      9  C   UNL     1      48.593   5.181  17.391  0.00  0.00    +0.000 A 
ATOM     10  N   UNL     1      48.562   4.314  18.439  0.00  0.00    +0.000 NA
ATOM     11  C   UNL     1      48.037   3.165  18.165  0.00  0.00    +0.000 A 
ATOM     12  N   UNL     1      47.559   2.797  16.936  0.00  0.00    +0.000 N 
ATOM     13  C   UNL     1      47.640   3.609  15.831  0.00  0.00    +0.000 A 
ATOM     14  O   UNL     1      47.336   3.193  14.715  0.00  0.00    +0.000 OA
ATOM     15  C   UNL     1      48.159   4.939  16.101  0.00  0.00    +0.000 A 
ATOM     16  H   UNL     1      47.201   1.866  16.778  0.00  0.00    +0.000 HD
ENDBRANCH   2   6
BRANCH   3  17
ATOM     17  C   UNL     1      45.878   6.983  12.556  0.00  0.00    +0.000 C 
BRANCH  17  18
ATOM     18  C   UNL     1      45.219   6.073  11.560  0.00  0.00    +0.000 A 
ATOM     19  C   UNL     1      45.836   5.672  10.370  0.00  0.00    +0.000 A 
ATOM     20  C   UNL     1      45.182   4.795   9.511  0.00  0.00    +0.000 A 
ATOM     21  C   UNL     1      43.933   4.330   9.879  0.00  0.00    +0.000 A 
ATOM     22  N   UNL     1      43.312   4.671  11.028  0.00  0.00    +0.000 NA
ATOM     23  C   UNL     1      43.969   5.529  11.842  0.00  0.00    +0.000 A 
ENDBRANCH  17  18
ENDBRANCH   3  17
TORSDOF 3
ENDMDL
MODEL 9
REMARK VINA RESULT:    -6.319      3.705      5.477
REMARK INTER + INTRA:          -7.991
REMARK INTER:                  -7.321
REMARK INTRA:                  -0.670
REMARK UNBOUND:                -0.563
REMARK  Name = 
REMARK  3 active torsions:
REMARK  status: ('A' for Active; 'I' for Inactive)
REMARK    1  A    between atoms: C_2  and  C_11
REMARK    2  A    between atoms: N_3  and  C_4
REMARK    3  A    between atoms: C_4  and  C_5
REMARK                            x       y       z     vdW  Elec       q    Type
REMARK                         _______ _______ _______ _____ _____    ______ ____
ROOT
ATOM      1  N   UNL     1      47.288   3.258  14.204  0.00  0.00    +0.000 NA
ATOM      2  C   UNL     1      47.175   4.399  14.783  0.00  0.00    +0.000 C 
ATOM      3  N   UNL     1      46.569   5.510  14.278  0.00  0.00    +0.000 N 
ATOM      4  H   UNL     1      46.824   3.294  13.295  0.00  0.00    +0.000 HD
ATOM      5  H   UNL     1      46.691   6.362  14.822  0.00  0.00    +0.000 HD
ENDROOT
BRANCH   2   6
ATOM      6  C   UNL     1      47.719   4.536  16.132  0.00  0.00    +0.000 A 
ATOM      7  C   UNL     1      47.256   3.745  17.176  0.00  0.00    +0.000 A 
ATOM      8  S   UNL     1      48.054   4.030  18.657  0.00  0.00    +0.000 S 
ATOM      9  C   UNL     1      49.070   5.197  17.948  0.00  0.00    +0.000 A 
ATOM     10  N   UNL     1      50.043   5.813  18.672  0.00  0.00    +0.000 NA
ATOM     11  C   UNL     1      50.766   6.643  17.995  0.00  0.00    +0.000 A 
ATOM     12  N   UNL     1      50.592   6.930  16.667  0.00  0.00    +0.000 N 
ATOM     13  C   UNL     1      49.575   6.392  15.916  0.00  0.00    +0.000 A 
ATOM     14  O   UNL     1      49.359   6.782  14.771  0.00  0.00    +0.000 OA
ATOM     15  C   UNL     1      48.775   5.399  16.612  0.00  0.00    +0.000 A 
ATOM     16  H   UNL     1      51.165   7.624  16.209  0.00  0.00    +0.000 HD
ENDBRANCH   2   6
BRANCH   3  17
ATOM     17  C   UNL     1      46.541   5.836  12.867  0.00  0.00    +0.000 C 
BRANCH  17  18
ATOM     18  C   UNL     1      45.220   5.504  12.236  0.00  0.00    +0.000 A 
ATOM     19  C   UNL     1      45.099   5.038  10.922  0.00  0.00    +0.000 A 
ATOM     20  C   UNL     1      43.846   4.712  10.414  0.00  0.00    +0.000 A 
ATOM     21  C   UNL     1      42.749   4.844  11.246  0.00  0.00    +0.000 A 
ATOM     22  N   UNL     1      42.824   5.265  12.526  0.00  0.00    +0.000 NA
ATOM     23  C   UNL     1      44.054   5.580  12.991  0.00  0.00    +0.000 A 
ENDBRANCH  17  18
ENDBRANCH   3  17
TORSDOF 3
ENDMDL
