MODEL 1
REMARK VINA RESULT:    -8.091      0.000      0.000
REMARK INTER + INTRA:         -11.994
REMARK INTER:                 -10.929
REMARK INTRA:                  -1.065
REMARK UNBOUND:                -1.065
REMARK  Name = 
REMARK  8 active torsions:
REMARK  status: ('A' for Active; 'I' for Inactive)
REMARK    1  A    between atoms: C_1  and  C_2
REMARK    2  A    between atoms: C_2  and  N_3
REMARK    3  A    between atoms: C_2  and  C_16
REMARK    4  A    between atoms: C_4  and  C_6
REMARK    5  A    between atoms: C_19  and  O_20
REMARK    6  A    between atoms: O_20  and  C_21
REMARK    7  A    between atoms: C_21  and  C_22
REMARK    8  A    between atoms: N_27  and  C_28
REMARK                            x       y       z     vdW  Elec       q    Type
REMARK                         _______ _______ _______ _____ _____    ______ ____
ROOT
ATOM      1  C   UNL     1      48.400   8.444  12.789  0.00  0.00    +0.000 C 
ATOM      2  C   UNL     1      48.266   7.044  13.406  0.00  0.00    +0.000 C 
ENDROOT
BRANCH   2   3
ATOM      3  C   UNL     1      47.095   6.306  12.766  0.00  0.00    +0.000 A 
ATOM      4  C   UNL     1      46.452   5.254  13.437  0.00  0.00    +0.000 A 
ATOM      5  C   UNL     1      45.410   4.535  12.824  0.00  0.00    +0.000 A 
ATOM      6  C   UNL     1      44.991   4.868  11.539  0.00  0.00    +0.000 A 
ATOM      7  C   UNL     1      45.618   5.920  10.867  0.00  0.00    +0.000 A 
ATOM      8  C   UNL     1      46.646   6.641  11.478  0.00  0.00    +0.000 A 
BRANCH   6   9
ATOM      9  O   UNL     1      44.028   4.218  10.815  0.00  0.00    +0.000 OA
BRANCH   9  10
ATOM     10  C   UNL     1      44.262   4.107   9.417  0.00  0.00    +0.000 C 
BRANCH  10  11
ATOM     11  C   UNL     1      44.654   2.663   9.084  0.00  0.00    +0.000 C 
ATOM     12  O   UNL     1      44.008   1.723   9.559  0.00  0.00    +0.000 OA
ATOM     13  N   UNL     1      45.774   2.449   8.278  0.00  0.00    +0.000 N 
ATOM     14  C   UNL     1      46.097   1.057   7.943  0.00  0.00    +0.000 C 
ATOM     15  C   UNL     1      47.536   0.873   7.422  0.00  0.00    +0.000 C 
ATOM     16  N   UNL     1      47.947   1.821   6.366  0.00  0.00    +0.000 NA
ATOM     17  C   UNL     1      47.297   1.529   5.089  0.00  0.00    +0.000 C 
ATOM     18  C   UNL     1      47.670   3.197   6.819  0.00  0.00    +0.000 C 
ATOM     19  C   UNL     1      46.229   3.449   7.306  0.00  0.00    +0.000 C 
ENDBRANCH  10  11
ENDBRANCH   9  10
ENDBRANCH   6   9
ENDBRANCH   2   3
BRANCH   2  20
ATOM     20  N   UNL     1      48.099   7.088  14.851  0.00  0.00    +0.000 N 
ATOM     21  C   UNL     1      49.124   6.808  15.725  0.00  0.00    +0.000 C 
ATOM     22  O   UNL     1      50.264   6.559  15.350  0.00  0.00    +0.000 OA
ATOM     23  H   UNL     1      47.147   6.988  15.192  0.00  0.00    +0.000 HD
BRANCH  21  24
ATOM     24  C   UNL     1      48.804   6.890  17.155  0.00  0.00    +0.000 A 
ATOM     25  C   UNL     1      48.444   8.110  17.708  0.00  0.00    +0.000 A 
ATOM     26  S   UNL     1      48.101   8.028  19.378  0.00  0.00    +0.000 S 
ATOM     27  C   UNL     1      48.467   6.367  19.425  0.00  0.00    +0.000 A 
ATOM     28  N   UNL     1      48.417   5.672  20.593  0.00  0.00    +0.000 NA
ATOM     29  C   UNL     1      48.756   4.431  20.488  0.00  0.00    +0.000 A 
ATOM     30  N   UNL     1      49.125   3.816  19.318  0.00  0.00    +0.000 N 
ATOM     31  C   UNL     1      49.148   4.469  18.108  0.00  0.00    +0.000 A 
ATOM     32  O   UNL     1      49.418   3.881  17.066  0.00  0.00    +0.000 OA
ATOM     33  C   UNL     1      48.810   5.876  18.179  0.00  0.00    +0.000 A 
ATOM     34  H   UNL     1      49.358   2.834  19.302  0.00  0.00    +0.000 HD
ENDBRANCH  21  24
ENDBRANCH   2  20
TORSDOF 6
ENDMDL
MODEL 2
REMARK VINA RESULT:    -7.906      1.584      2.573
REMARK INTER + INTRA:         -11.744
REMARK INTER:                 -10.480
REMARK INTRA:                  -1.265
REMARK UNBOUND:                -1.065
REMARK  Name = 
REMARK  8 active torsions:
REMARK  status: ('A' for Active; 'I' for Inactive)
REMARK    1  A    between atoms: C_1  and  C_2
REMARK    2  A    between atoms: C_2  and  N_3
REMARK    3  A    between atoms: C_2  and  C_16
REMARK    4  A    between atoms: C_4  and  C_6
REMARK    5  A    between atoms: C_19  and  O_20
REMARK    6  A    between atoms: O_20  and  C_21
REMARK    7  A    between atoms: C_21  and  C_22
REMARK    8  A    between atoms: N_27  and  C_28
REMARK                            x       y       z     vdW  Elec       q    Type
REMARK                         _______ _______ _______ _____ _____    ______ ____
ROOT
ATOM      1  C   UNL     1      49.226   7.762  12.846  0.00  0.00    +0.000 C 
ATOM      2  C   UNL     1      48.596   6.634  13.677  0.00  0.00    +0.000 C 
ENDROOT
BRANCH   2   3
ATOM      3  C   UNL     1      47.371   6.083  12.956  0.00  0.00    +0.000 A 
ATOM      4  C   UNL     1      46.670   4.978  13.467  0.00  0.00    +0.000 A 
ATOM      5  C   UNL     1      45.576   4.434  12.773  0.00  0.00    +0.000 A 
ATOM      6  C   UNL     1      45.160   4.994  11.568  0.00  0.00    +0.000 A 
ATOM      7  C   UNL     1      45.844   6.099  11.058  0.00  0.00    +0.000 A 
ATOM      8  C   UNL     1      46.926   6.648  11.750  0.00  0.00    +0.000 A 
BRANCH   6   9
ATOM      9  O   UNL     1      44.147   4.530  10.774  0.00  0.00    +0.000 OA
BRANCH   9  10
ATOM     10  C   UNL     1      44.456   4.360   9.397  0.00  0.00    +0.000 C 
BRANCH  10  11
ATOM     11  C   UNL     1      44.749   2.880   9.125  0.00  0.00    +0.000 C 
ATOM     12  O   UNL     1      44.058   2.006   9.658  0.00  0.00    +0.000 OA
ATOM     13  N   UNL     1      45.833   2.559   8.305  0.00  0.00    +0.000 N 
ATOM     14  C   UNL     1      46.060   1.135   8.029  0.00  0.00    +0.000 C 
ATOM     15  C   UNL     1      47.471   0.837   7.485  0.00  0.00    +0.000 C 
ATOM     16  N   UNL     1      47.913   1.707   6.377  0.00  0.00    +0.000 NA
ATOM     17  C   UNL     1      47.214   1.398   5.130  0.00  0.00    +0.000 C 
ATOM     18  C   UNL     1      47.734   3.117   6.770  0.00  0.00    +0.000 C 
ATOM     19  C   UNL     1      46.325   3.482   7.276  0.00  0.00    +0.000 C 
ENDBRANCH  10  11
ENDBRANCH   9  10
ENDBRANCH   6   9
ENDBRANCH   2   3
BRANCH   2  20
ATOM     20  N   UNL     1      48.235   7.069  15.018  0.00  0.00    +0.000 N 
ATOM     21  C   UNL     1      48.992   6.765  16.126  0.00  0.00    +0.000 C 
ATOM     22  O   UNL     1      50.055   6.158  16.055  0.00  0.00    +0.000 OA
ATOM     23  H   UNL     1      47.255   7.295  15.163  0.00  0.00    +0.000 HD
BRANCH  21  24
ATOM     24  C   UNL     1      48.498   7.270  17.412  0.00  0.00    +0.000 A 
ATOM     25  C   UNL     1      48.290   6.387  18.461  0.00  0.00    +0.000 A 
ATOM     26  S   UNL     1      47.719   7.139  19.883  0.00  0.00    +0.000 S 
ATOM     27  C   UNL     1      47.687   8.664  19.127  0.00  0.00    +0.000 A 
ATOM     28  N   UNL     1      47.244   9.765  19.790  0.00  0.00    +0.000 NA
ATOM     29  C   UNL     1      47.240  10.846  19.084  0.00  0.00    +0.000 A 
ATOM     30  N   UNL     1      47.653  10.928  17.778  0.00  0.00    +0.000 N 
ATOM     31  C   UNL     1      48.149   9.851  17.083  0.00  0.00    +0.000 A 
ATOM     32  O   UNL     1      48.574   9.965  15.937  0.00  0.00    +0.000 OA
ATOM     33  C   UNL     1      48.141   8.605  17.822  0.00  0.00    +0.000 A 
ATOM     34  H   UNL     1      47.644  11.811  17.288  0.00  0.00    +0.000 HD
ENDBRANCH  21  24
ENDBRANCH   2  20
TORSDOF 6
ENDMDL
MODEL 3
REMARK VINA RESULT:    -7.306      2.774      4.568
REMARK INTER + INTRA:         -10.933
REMARK INTER:                  -9.872
REMARK INTRA:                  -1.061
REMARK UNBOUND:                -1.065
REMARK  Name = 
REMARK  8 active torsions:
REMARK  status: ('A' for Active; 'I' for Inactive)
REMARK    1  A    between atoms: C_1  and  C_2
REMARK    2  A    between atoms: C_2  and  N_3
REMARK    3  A    between atoms: C_2  and  C_16
REMARK    4  A    between atoms: C_4  and  C_6
REMARK    5  A    between atoms: C_19  and  O_20
REMARK    6  A    between atoms: O_20  and  C_21
REMARK    7  A    between atoms: C_21  and  C_22
REMARK    8  A    between atoms: N_27  and  C_28
REMARK                            x       y       z     vdW  Elec       q    Type
REMARK                         _______ _______ _______ _____ _____    ______ ____
ROOT
ATOM      1  C   UNL     1      43.113   5.685  11.311  0.00  0.00    +0.000 C 
ATOM      2  C   UNL     1      44.611   5.816  10.997  0.00  0.00    +0.000 C 
ENDROOT
BRANCH   2   3
ATOM      3  C   UNL     1      45.053   4.670  10.094  0.00  0.00    +0.000 A 
ATOM      4  C   UNL     1      45.755   4.919   8.904  0.00  0.00    +0.000 A 
ATOM      5  C   UNL     1      46.112   3.868   8.042  0.00  0.00    +0.000 A 
ATOM      6  C   UNL     1      45.782   2.554   8.365  0.00  0.00    +0.000 A 
ATOM      7  C   UNL     1      45.093   2.295   9.551  0.00  0.00    +0.000 A 
ATOM      8  C   UNL     1      44.745   3.338  10.414  0.00  0.00    +0.000 A 
BRANCH   6   9
ATOM      9  O   UNL     1      46.027   1.452   7.591  0.00  0.00    +0.000 OA
BRANCH   9  10
ATOM     10  C   UNL     1      47.298   1.400   6.957  0.00  0.00    +0.000 C 
BRANCH  10  11
ATOM     11  C   UNL     1      47.122   1.643   5.453  0.00  0.00    +0.000 C 
ATOM     12  O   UNL     1      47.210   2.788   4.999  0.00  0.00    +0.000 OA
ATOM     13  N   UNL     1      46.818   0.552   4.637  0.00  0.00    +0.000 N 
ATOM     14  C   UNL     1      46.697   0.811   3.197  0.00  0.00    +0.000 C 
ATOM     15  C   UNL     1      45.970  -0.312   2.433  0.00  0.00    +0.000 C 
ATOM     16  N   UNL     1      46.444  -1.680   2.726  0.00  0.00    +0.000 NA
ATOM     17  C   UNL     1      47.757  -1.938   2.136  0.00  0.00    +0.000 C 
ATOM     18  C   UNL     1      46.449  -1.886   4.186  0.00  0.00    +0.000 C 
ATOM     19  C   UNL     1      47.207  -0.816   4.996  0.00  0.00    +0.000 C 
ENDBRANCH  10  11
ENDBRANCH   9  10
ENDBRANCH   6   9
ENDBRANCH   2   3
BRANCH   2  20
ATOM     20  N   UNL     1      45.428   5.849  12.200  0.00  0.00    +0.000 N 
ATOM     21  C   UNL     1      46.684   6.411  12.229  0.00  0.00    +0.000 C 
ATOM     22  O   UNL     1      47.179   6.975  11.261  0.00  0.00    +0.000 OA
ATOM     23  H   UNL     1      45.204   5.156  12.909  0.00  0.00    +0.000 HD
BRANCH  21  24
ATOM     24  C   UNL     1      47.389   6.365  13.515  0.00  0.00    +0.000 A 
ATOM     25  C   UNL     1      48.101   7.475  13.947  0.00  0.00    +0.000 A 
ATOM     26  S   UNL     1      48.856   7.254  15.462  0.00  0.00    +0.000 S 
ATOM     27  C   UNL     1      48.295   5.651  15.568  0.00  0.00    +0.000 A 
ATOM     28  N   UNL     1      48.629   4.861  16.622  0.00  0.00    +0.000 NA
ATOM     29  C   UNL     1      48.165   3.658  16.554  0.00  0.00    +0.000 A 
ATOM     30  N   UNL     1      47.385   3.178  15.532  0.00  0.00    +0.000 N 
ATOM     31  C   UNL     1      46.989   3.952  14.468  0.00  0.00    +0.000 A 
ATOM     32  O   UNL     1      46.237   3.518  13.602  0.00  0.00    +0.000 OA
ATOM     33  C   UNL     1      47.513   5.303  14.481  0.00  0.00    +0.000 A 
ATOM     34  H   UNL     1      47.037   2.230  15.550  0.00  0.00    +0.000 HD
ENDBRANCH  21  24
ENDBRANCH   2  20
TORSDOF 6
ENDMDL
MODEL 4
REMARK VINA RESULT:    -7.199      4.794      7.068
REMARK INTER + INTRA:         -10.789
REMARK INTER:                  -9.848
REMARK INTRA:                  -0.941
REMARK UNBOUND:                -1.065
REMARK  Name = 
REMARK  8 active torsions:
REMARK  status: ('A' for Active; 'I' for Inactive)
REMARK    1  A    between atoms: C_1  and  C_2
REMARK    2  A    between atoms: C_2  and  N_3
REMARK    3  A    between atoms: C_2  and  C_16
REMARK    4  A    between atoms: C_4  and  C_6
REMARK    5  A    between atoms: C_19  and  O_20
REMARK    6  A    between atoms: O_20  and  C_21
REMARK    7  A    between atoms: C_21  and  C_22
REMARK    8  A    between atoms: N_27  and  C_28
REMARK                            x       y       z     vdW  Elec       q    Type
REMARK                         _______ _______ _______ _____ _____    ______ ____
ROOT
ATOM      1  C   UNL     1      46.533   3.476  13.204  0.00  0.00    +0.000 C 
ATOM      2  C   UNL     1      46.318   4.643  14.179  0.00  0.00    +0.000 C 
ENDROOT
BRANCH   2   3
ATOM      3  C   UNL     1      46.092   5.934  13.400  0.00  0.00    +0.000 A 
ATOM      4  C   UNL     1      47.020   6.985  13.462  0.00  0.00    +0.000 A 
ATOM      5  C   UNL     1      46.785   8.198  12.790  0.00  0.00    +0.000 A 
ATOM      6  C   UNL     1      45.626   8.369  12.038  0.00  0.00    +0.000 A 
ATOM      7  C   UNL     1      44.701   7.325  11.962  0.00  0.00    +0.000 A 
ATOM      8  C   UNL     1      44.938   6.116  12.621  0.00  0.00    +0.000 A 
BRANCH   6   9
ATOM      9  O   UNL     1      45.256   9.511  11.382  0.00  0.00    +0.000 OA
BRANCH   9  10
ATOM     10  C   UNL     1      43.889   9.602  11.002  0.00  0.00    +0.000 C 
BRANCH  10  11
ATOM     11  C   UNL     1      43.320  10.942  11.483  0.00  0.00    +0.000 C 
ATOM     12  O   UNL     1      44.084  11.861  11.795  0.00  0.00    +0.000 OA
ATOM     13  N   UNL     1      41.934  11.071  11.597  0.00  0.00    +0.000 N 
ATOM     14  C   UNL     1      41.420  12.379  12.019  0.00  0.00    +0.000 C 
ATOM     15  C   UNL     1      39.962  12.330  12.517  0.00  0.00    +0.000 C 
ATOM     16  N   UNL     1      39.022  11.608  11.637  0.00  0.00    +0.000 NA
ATOM     17  C   UNL     1      38.728  12.362  10.419  0.00  0.00    +0.000 C 
ATOM     18  C   UNL     1      39.572  10.274  11.335  0.00  0.00    +0.000 C 
ATOM     19  C   UNL     1      41.013  10.268  10.786  0.00  0.00    +0.000 C 
ENDBRANCH  10  11
ENDBRANCH   9  10
ENDBRANCH   6   9
ENDBRANCH   2   3
BRANCH   2  20
ATOM     20  N   UNL     1      47.429   4.805  15.104  0.00  0.00    +0.000 N 
ATOM     21  C   UNL     1      47.453   4.212  16.346  0.00  0.00    +0.000 C 
ATOM     22  O   UNL     1      46.569   3.459  16.737  0.00  0.00    +0.000 OA
ATOM     23  H   UNL     1      48.010   5.626  14.961  0.00  0.00    +0.000 HD
BRANCH  21  24
ATOM     24  C   UNL     1      48.641   4.470  17.169  0.00  0.00    +0.000 A 
ATOM     25  C   UNL     1      48.754   5.672  17.852  0.00  0.00    +0.000 A 
ATOM     26  S   UNL     1      50.191   5.808  18.762  0.00  0.00    +0.000 S 
ATOM     27  C   UNL     1      50.731   4.282  18.235  0.00  0.00    +0.000 A 
ATOM     28  N   UNL     1      51.943   3.799  18.616  0.00  0.00    +0.000 NA
ATOM     29  C   UNL     1      52.240   2.648  18.112  0.00  0.00    +0.000 A 
ATOM     30  N   UNL     1      51.427   1.929  17.272  0.00  0.00    +0.000 N 
ATOM     31  C   UNL     1      50.177   2.359  16.895  0.00  0.00    +0.000 A 
ATOM     32  O   UNL     1      49.442   1.668  16.196  0.00  0.00    +0.000 OA
ATOM     33  C   UNL     1      49.812   3.664  17.407  0.00  0.00    +0.000 A 
ATOM     34  H   UNL     1      51.710   1.023  16.929  0.00  0.00    +0.000 HD
ENDBRANCH  21  24
ENDBRANCH   2  20
TORSDOF 6
ENDMDL
MODEL 5
REMARK VINA RESULT:    -7.023      2.896      8.978
REMARK INTER + INTRA:         -10.552
REMARK INTER:                  -9.151
REMARK INTRA:                  -1.401
REMARK UNBOUND:                -1.065
REMARK  Name = 
REMARK  8 active torsions:
REMARK  status: ('A' for Active; 'I' for Inactive)
REMARK    1  A    between atoms: C_1  and  C_2
REMARK    2  A    between atoms: C_2  and  N_3
REMARK    3  A    between atoms: C_2  and  C_16
REMARK    4  A    between atoms: C_4  and  C_6
REMARK    5  A    between atoms: C_19  and  O_20
REMARK    6  A    between atoms: O_20  and  C_21
REMARK    7  A    between atoms: C_21  and  C_22
REMARK    8  A    between atoms: N_27  and  C_28
REMARK                            x       y       z     vdW  Elec       q    Type
REMARK                         _______ _______ _______ _____ _____    ______ ____
ROOT
ATOM      1  C   UNL     1      49.390   7.670  11.136  0.00  0.00    +0.000 C 
ATOM      2  C   UNL     1      48.118   7.783  11.989  0.00  0.00    +0.000 C 
ENDROOT
BRANCH   2   3
ATOM      3  C   UNL     1      48.493   7.990  13.453  0.00  0.00    +0.000 A 
ATOM      4  C   UNL     1      47.775   8.886  14.261  0.00  0.00    +0.000 A 
ATOM      5  C   UNL     1      48.156   9.121  15.594  0.00  0.00    +0.000 A 
ATOM      6  C   UNL     1      49.251   8.455  16.138  0.00  0.00    +0.000 A 
ATOM      7  C   UNL     1      49.965   7.554  15.344  0.00  0.00    +0.000 A 
ATOM      8  C   UNL     1      49.582   7.312  14.023  0.00  0.00    +0.000 A 
BRANCH   6   9
ATOM      9  O   UNL     1      49.753   8.631  17.399  0.00  0.00    +0.000 OA
BRANCH   9  10
ATOM     10  C   UNL     1      48.990   8.073  18.461  0.00  0.00    +0.000 C 
BRANCH  10  11
ATOM     11  C   UNL     1      49.575   6.707  18.839  0.00  0.00    +0.000 C 
ATOM     12  O   UNL     1      50.431   6.627  19.727  0.00  0.00    +0.000 OA
ATOM     13  N   UNL     1      49.150   5.584  18.128  0.00  0.00    +0.000 N 
ATOM     14  C   UNL     1      49.698   4.286  18.543  0.00  0.00    +0.000 C 
ATOM     15  C   UNL     1      49.521   3.182  17.483  0.00  0.00    +0.000 C 
ATOM     16  N   UNL     1      48.163   3.069  16.914  0.00  0.00    +0.000 NA
ATOM     17  C   UNL     1      47.218   2.495  17.872  0.00  0.00    +0.000 C 
ATOM     18  C   UNL     1      47.726   4.396  16.441  0.00  0.00    +0.000 C 
ATOM     19  C   UNL     1      47.836   5.530  17.480  0.00  0.00    +0.000 C 
ENDBRANCH  10  11
ENDBRANCH   9  10
ENDBRANCH   6   9
ENDBRANCH   2   3
BRANCH   2  20
ATOM     20  N   UNL     1      47.254   6.620  11.854  0.00  0.00    +0.000 N 
ATOM     21  C   UNL     1      45.883   6.715  11.806  0.00  0.00    +0.000 C 
ATOM     22  O   UNL     1      45.293   7.790  11.814  0.00  0.00    +0.000 OA
ATOM     23  H   UNL     1      47.656   5.732  12.142  0.00  0.00    +0.000 HD
BRANCH  21  24
ATOM     24  C   UNL     1      45.145   5.454  11.671  0.00  0.00    +0.000 A 
ATOM     25  C   UNL     1      44.443   4.950  12.756  0.00  0.00    +0.000 A 
ATOM     26  S   UNL     1      43.641   3.480  12.427  0.00  0.00    +0.000 S 
ATOM     27  C   UNL     1      44.244   3.445  10.836  0.00  0.00    +0.000 A 
ATOM     28  N   UNL     1      43.967   2.406  10.005  0.00  0.00    +0.000 NA
ATOM     29  C   UNL     1      44.521   2.492   8.842  0.00  0.00    +0.000 A 
ATOM     30  N   UNL     1      45.315   3.533   8.429  0.00  0.00    +0.000 N 
ATOM     31  C   UNL     1      45.586   4.624   9.220  0.00  0.00    +0.000 A 
ATOM     32  O   UNL     1      46.245   5.572   8.804  0.00  0.00    +0.000 OA
ATOM     33  C   UNL     1      45.016   4.557  10.550  0.00  0.00    +0.000 A 
ATOM     34  H   UNL     1      45.701   3.549   7.496  0.00  0.00    +0.000 HD
ENDBRANCH  21  24
ENDBRANCH   2  20
TORSDOF 6
ENDMDL
MODEL 6
REMARK VINA RESULT:    -7.012      3.651      5.685
REMARK INTER + INTRA:         -10.537
REMARK INTER:                  -9.319
REMARK INTRA:                  -1.218
REMARK UNBOUND:                -1.065
REMARK  Name = 
REMARK  8 active torsions:
REMARK  status: ('A' for Active; 'I' for Inactive)
REMARK    1  A    between atoms: C_1  and  C_2
REMARK    2  A    between atoms: C_2  and  N_3
REMARK    3  A    between atoms: C_2  and  C_16
REMARK    4  A    between atoms: C_4  and  C_6
REMARK    5  A    between atoms: C_19  and  O_20
REMARK    6  A    between atoms: O_20  and  C_21
REMARK    7  A    between atoms: C_21  and  C_22
REMARK    8  A    between atoms: N_27  and  C_28
REMARK                            x       y       z     vdW  Elec       q    Type
REMARK                         _______ _______ _______ _____ _____    ______ ____
ROOT
ATOM      1  C   UNL     1      48.613   5.063  20.444  0.00  0.00    +0.000 C 
ATOM      2  C   UNL     1      49.543   5.160  19.225  0.00  0.00    +0.000 C 
ENDROOT
BRANCH   2   3
ATOM      3  C   UNL     1      48.758   4.866  17.951  0.00  0.00    +0.000 A 
ATOM      4  C   UNL     1      47.987   3.699  17.832  0.00  0.00    +0.000 A 
ATOM      5  C   UNL     1      47.310   3.399  16.637  0.00  0.00    +0.000 A 
ATOM      6  C   UNL     1      47.385   4.267  15.551  0.00  0.00    +0.000 A 
ATOM      7  C   UNL     1      48.142   5.436  15.664  0.00  0.00    +0.000 A 
ATOM      8  C   UNL     1      48.807   5.741  16.853  0.00  0.00    +0.000 A 
BRANCH   6   9
ATOM      9  O   UNL     1      46.817   4.067  14.323  0.00  0.00    +0.000 OA
BRANCH   9  10
ATOM     10  C   UNL     1      45.773   4.961  13.961  0.00  0.00    +0.000 C 
BRANCH  10  11
ATOM     11  C   UNL     1      45.908   5.321  12.477  0.00  0.00    +0.000 C 
ATOM     12  O   UNL     1      46.566   6.310  12.138  0.00  0.00    +0.000 OA
ATOM     13  N   UNL     1      45.237   4.533  11.540  0.00  0.00    +0.000 N 
ATOM     14  C   UNL     1      45.422   4.877  10.125  0.00  0.00    +0.000 C 
ATOM     15  C   UNL     1      44.356   4.256   9.201  0.00  0.00    +0.000 C 
ATOM     16  N   UNL     1      44.111   2.814   9.407  0.00  0.00    +0.000 NA
ATOM     17  C   UNL     1      45.218   1.997   8.911  0.00  0.00    +0.000 C 
ATOM     18  C   UNL     1      43.847   2.569  10.836  0.00  0.00    +0.000 C 
ATOM     19  C   UNL     1      44.909   3.128  11.804  0.00  0.00    +0.000 C 
ENDBRANCH  10  11
ENDBRANCH   9  10
ENDBRANCH   6   9
ENDBRANCH   2   3
BRANCH   2  20
ATOM     20  N   UNL     1      50.686   4.265  19.326  0.00  0.00    +0.000 N 
ATOM     21  C   UNL     1      51.931   4.595  18.843  0.00  0.00    +0.000 C 
ATOM     22  O   UNL     1      52.181   5.687  18.346  0.00  0.00    +0.000 OA
ATOM     23  H   UNL     1      50.469   3.279  19.441  0.00  0.00    +0.000 HD
BRANCH  21  24
ATOM     24  C   UNL     1      52.985   3.588  19.015  0.00  0.00    +0.000 A 
ATOM     25  C   UNL     1      54.095   3.883  19.792  0.00  0.00    +0.000 A 
ATOM     26  S   UNL     1      55.219   2.602  19.890  0.00  0.00    +0.000 S 
ATOM     27  C   UNL     1      54.280   1.628  18.858  0.00  0.00    +0.000 A 
ATOM     28  N   UNL     1      54.702   0.391  18.488  0.00  0.00    +0.000 NA
ATOM     29  C   UNL     1      53.909  -0.221  17.674  0.00  0.00    +0.000 A 
ATOM     30  N   UNL     1      52.723   0.288  17.207  0.00  0.00    +0.000 N 
ATOM     31  C   UNL     1      52.237   1.515  17.588  0.00  0.00    +0.000 A 
ATOM     32  O   UNL     1      51.142   1.920  17.209  0.00  0.00    +0.000 OA
ATOM     33  C   UNL     1      53.109   2.257  18.475  0.00  0.00    +0.000 A 
ATOM     34  H   UNL     1      52.138  -0.253  16.587  0.00  0.00    +0.000 HD
ENDBRANCH  21  24
ENDBRANCH   2  20
TORSDOF 6
ENDMDL
MODEL 7
REMARK VINA RESULT:    -6.752      3.691      5.850
REMARK INTER + INTRA:         -10.185
REMARK INTER:                  -9.379
REMARK INTRA:                  -0.806
REMARK UNBOUND:                -1.065
REMARK  Name = 
REMARK  8 active torsions:
REMARK  status: ('A' for Active; 'I' for Inactive)
REMARK    1  A    between atoms: C_1  and  C_2
REMARK    2  A    between atoms: C_2  and  N_3
REMARK    3  A    between atoms: C_2  and  C_16
REMARK    4  A    between atoms: C_4  and  C_6
REMARK    5  A    between atoms: C_19  and  O_20
REMARK    6  A    between atoms: O_20  and  C_21
REMARK    7  A    between atoms: C_21  and  C_22
REMARK    8  A    between atoms: N_27  and  C_28
REMARK                            x       y       z     vdW  Elec       q    Type
REMARK                         _______ _______ _______ _____ _____    ______ ____
ROOT
ATOM      1  C   UNL     1      47.801   2.724  17.541  0.00  0.00    +0.000 C 
ATOM      2  C   UNL     1      48.724   3.949  17.624  0.00  0.00    +0.000 C 
ENDROOT
BRANCH   2   3
ATOM      3  C   UNL     1      48.386   4.929  16.505  0.00  0.00    +0.000 A 
ATOM      4  C   UNL     1      47.497   4.573  15.479  0.00  0.00    +0.000 A 
ATOM      5  C   UNL     1      47.230   5.454  14.416  0.00  0.00    +0.000 A 
ATOM      6  C   UNL     1      47.837   6.706  14.374  0.00  0.00    +0.000 A 
ATOM      7  C   UNL     1      48.714   7.073  15.397  0.00  0.00    +0.000 A 
ATOM      8  C   UNL     1      48.974   6.203  16.458  0.00  0.00    +0.000 A 
BRANCH   6   9
ATOM      9  O   UNL     1      47.700   7.632  13.376  0.00  0.00    +0.000 OA
BRANCH   9  10
ATOM     10  C   UNL     1      46.412   7.727  12.781  0.00  0.00    +0.000 C 
BRANCH  10  11
ATOM     11  C   UNL     1      46.313   6.720  11.629  0.00  0.00    +0.000 C 
ATOM     12  O   UNL     1      47.225   6.638  10.800  0.00  0.00    +0.000 OA
ATOM     13  N   UNL     1      45.157   5.943  11.526  0.00  0.00    +0.000 N 
ATOM     14  C   UNL     1      45.112   4.958  10.438  0.00  0.00    +0.000 C 
ATOM     15  C   UNL     1      43.689   4.450  10.134  0.00  0.00    +0.000 C 
ATOM     16  N   UNL     1      42.907   4.029  11.314  0.00  0.00    +0.000 NA
ATOM     17  C   UNL     1      43.392   2.764  11.864  0.00  0.00    +0.000 C 
ATOM     18  C   UNL     1      42.930   5.108  12.318  0.00  0.00    +0.000 C 
ATOM     19  C   UNL     1      44.334   5.621  12.696  0.00  0.00    +0.000 C 
ENDBRANCH  10  11
ENDBRANCH   9  10
ENDBRANCH   6   9
ENDBRANCH   2   3
BRANCH   2  20
ATOM     20  N   UNL     1      50.132   3.588  17.563  0.00  0.00    +0.000 N 
ATOM     21  C   UNL     1      51.045   3.997  18.507  0.00  0.00    +0.000 C 
ATOM     22  O   UNL     1      50.728   4.647  19.497  0.00  0.00    +0.000 OA
ATOM     23  H   UNL     1      50.485   3.327  16.646  0.00  0.00    +0.000 HD
BRANCH  21  24
ATOM     24  C   UNL     1      52.431   3.556  18.309  0.00  0.00    +0.000 A 
ATOM     25  C   UNL     1      53.472   4.448  18.519  0.00  0.00    +0.000 A 
ATOM     26  S   UNL     1      55.015   3.772  18.249  0.00  0.00    +0.000 S 
ATOM     27  C   UNL     1      54.340   2.277  17.797  0.00  0.00    +0.000 A 
ATOM     28  N   UNL     1      55.128   1.245  17.395  0.00  0.00    +0.000 NA
ATOM     29  C   UNL     1      54.480   0.184  17.046  0.00  0.00    +0.000 A 
ATOM     30  N   UNL     1      53.115   0.057  17.077  0.00  0.00    +0.000 N 
ATOM     31  C   UNL     1      52.281   1.058  17.517  0.00  0.00    +0.000 A 
ATOM     32  O   UNL     1      51.068   0.895  17.598  0.00  0.00    +0.000 OA
ATOM     33  C   UNL     1      52.960   2.283  17.887  0.00  0.00    +0.000 A 
ATOM     34  H   UNL     1      52.671  -0.810  16.810  0.00  0.00    +0.000 HD
ENDBRANCH  21  24
ENDBRANCH   2  20
TORSDOF 6
ENDMDL
MODEL 8
REMARK VINA RESULT:    -6.657      2.992      4.245
REMARK INTER + INTRA:         -10.057
REMARK INTER:                  -8.940
REMARK INTRA:                  -1.118
REMARK UNBOUND:                -1.065
REMARK  Name = 
REMARK  8 active torsions:
REMARK  status: ('A' for Active; 'I' for Inactive)
REMARK    1  A    between atoms: C_1  and  C_2
REMARK    2  A    between atoms: C_2  and  N_3
REMARK    3  A    between atoms: C_2  and  C_16
REMARK    4  A    between atoms: C_4  and  C_6
REMARK    5  A    between atoms: C_19  and  O_20
REMARK    6  A    between atoms: O_20  and  C_21
REMARK    7  A    between atoms: C_21  and  C_22
REMARK    8  A    between atoms: N_27  and  C_28
REMARK                            x       y       z     vdW  Elec       q    Type
REMARK                         _______ _______ _______ _____ _____    ______ ____
ROOT
ATOM      1  C   UNL     1      47.720   4.818  15.387  0.00  0.00    +0.000 C 
ATOM      2  C   UNL     1      47.318   6.006  14.501  0.00  0.00    +0.000 C 
ENDROOT
BRANCH   2   3
ATOM      3  C   UNL     1      46.318   5.549  13.444  0.00  0.00    +0.000 A 
ATOM      4  C   UNL     1      45.977   4.194  13.312  0.00  0.00    +0.000 A 
ATOM      5  C   UNL     1      45.100   3.765  12.301  0.00  0.00    +0.000 A 
ATOM      6  C   UNL     1      44.544   4.686  11.417  0.00  0.00    +0.000 A 
ATOM      7  C   UNL     1      44.870   6.038  11.547  0.00  0.00    +0.000 A 
ATOM      8  C   UNL     1      45.734   6.468  12.557  0.00  0.00    +0.000 A 
BRANCH   6   9
ATOM      9  O   UNL     1      43.721   4.393  10.364  0.00  0.00    +0.000 OA
BRANCH   9  10
ATOM     10  C   UNL     1      44.355   4.213   9.104  0.00  0.00    +0.000 C 
BRANCH  10  11
ATOM     11  C   UNL     1      44.700   2.731   8.920  0.00  0.00    +0.000 C 
ATOM     12  O   UNL     1      44.024   1.865   9.484  0.00  0.00    +0.000 OA
ATOM     13  N   UNL     1      45.813   2.401   8.144  0.00  0.00    +0.000 N 
ATOM     14  C   UNL     1      46.092   0.972   7.952  0.00  0.00    +0.000 C 
ATOM     15  C   UNL     1      47.524   0.691   7.458  0.00  0.00    +0.000 C 
ATOM     16  N   UNL     1      47.967   1.514   6.314  0.00  0.00    +0.000 NA
ATOM     17  C   UNL     1      47.309   1.115   5.070  0.00  0.00    +0.000 C 
ATOM     18  C   UNL     1      47.734   2.936   6.625  0.00  0.00    +0.000 C 
ATOM     19  C   UNL     1      46.302   3.282   7.078  0.00  0.00    +0.000 C 
ENDBRANCH  10  11
ENDBRANCH   9  10
ENDBRANCH   6   9
ENDBRANCH   2   3
BRANCH   2  20
ATOM     20  N   UNL     1      48.465   6.637  13.865  0.00  0.00    +0.000 N 
ATOM     21  C   UNL     1      48.615   8.003  13.794  0.00  0.00    +0.000 C 
ATOM     22  O   UNL     1      47.825   8.784  14.311  0.00  0.00    +0.000 OA
ATOM     23  H   UNL     1      48.963   6.071  13.185  0.00  0.00    +0.000 HD
BRANCH  21  24
ATOM     24  C   UNL     1      49.823   8.492  13.119  0.00  0.00    +0.000 A 
ATOM     25  C   UNL     1      49.708   9.177  11.918  0.00  0.00    +0.000 A 
ATOM     26  S   UNL     1      51.207   9.677  11.272  0.00  0.00    +0.000 S 
ATOM     27  C   UNL     1      52.061   8.953  12.553  0.00  0.00    +0.000 A 
ATOM     28  N   UNL     1      53.420   8.974  12.589  0.00  0.00    +0.000 NA
ATOM     29  C   UNL     1      53.936   8.355  13.597  0.00  0.00    +0.000 A 
ATOM     30  N   UNL     1      53.215   7.729  14.583  0.00  0.00    +0.000 N 
ATOM     31  C   UNL     1      51.841   7.718  14.610  0.00  0.00    +0.000 A 
ATOM     32  O   UNL     1      51.219   7.208  15.536  0.00  0.00    +0.000 OA
ATOM     33  C   UNL     1      51.214   8.371  13.478  0.00  0.00    +0.000 A 
ATOM     34  H   UNL     1      53.681   7.279  15.357  0.00  0.00    +0.000 HD
ENDBRANCH  21  24
ENDBRANCH   2  20
TORSDOF 6
ENDMDL
MODEL 9
REMARK VINA RESULT:    -6.544      4.131      9.250
REMARK INTER + INTRA:          -9.904
REMARK INTER:                  -8.611
REMARK INTRA:                  -1.293
REMARK UNBOUND:                -1.065
REMARK  Name = 
REMARK  8 active torsions:
REMARK  status: ('A' for Active; 'I' for Inactive)
REMARK    1  A    between atoms: C_1  and  C_2
REMARK    2  A    between atoms: C_2  and  N_3
REMARK    3  A    between atoms: C_2  and  C_16
REMARK    4  A    between atoms: C_4  and  C_6
REMARK    5  A    between atoms: C_19  and  O_20
REMARK    6  A    between atoms: O_20  and  C_21
REMARK    7  A    between atoms: C_21  and  C_22
REMARK    8  A    between atoms: N_27  and  C_28
REMARK                            x       y       z     vdW  Elec       q    Type
REMARK                         _______ _______ _______ _____ _____    ______ ____
ROOT
ATOM      1  C   UNL     1      46.994   3.129  17.446  0.00  0.00    +0.000 C 
ATOM      2  C   UNL     1      47.864   3.868  16.418  0.00  0.00    +0.000 C 
ENDROOT
BRANCH   2   3
ATOM      3  C   UNL     1      48.914   4.708  17.138  0.00  0.00    +0.000 A 
ATOM      4  C   UNL     1      48.667   6.052  17.457  0.00  0.00    +0.000 A 
ATOM      5  C   UNL     1      49.656   6.843  18.068  0.00  0.00    +0.000 A 
ATOM      6  C   UNL     1      50.898   6.297  18.378  0.00  0.00    +0.000 A 
ATOM      7  C   UNL     1      51.150   4.957  18.074  0.00  0.00    +0.000 A 
ATOM      8  C   UNL     1      50.165   4.167  17.475  0.00  0.00    +0.000 A 
BRANCH   6   9
ATOM      9  O   UNL     1      51.957   6.969  18.925  0.00  0.00    +0.000 OA
BRANCH   9  10
ATOM     10  C   UNL     1      53.018   7.298  18.036  0.00  0.00    +0.000 C 
BRANCH  10  11
ATOM     11  C   UNL     1      52.817   8.728  17.521  0.00  0.00    +0.000 C 
ATOM     12  O   UNL     1      53.254   9.685  18.169  0.00  0.00    +0.000 OA
ATOM     13  N   UNL     1      52.097   8.912  16.338  0.00  0.00    +0.000 N 
ATOM     14  C   UNL     1      51.960  10.289  15.849  0.00  0.00    +0.000 C 
ATOM     15  C   UNL     1      50.836  10.458  14.808  0.00  0.00    +0.000 C 
ATOM     16  N   UNL     1      50.838   9.465  13.715  0.00  0.00    +0.000 NA
ATOM     17  C   UNL     1      51.934   9.694  12.775  0.00  0.00    +0.000 C 
ATOM     18  C   UNL     1      50.887   8.110  14.295  0.00  0.00    +0.000 C 
ATOM     19  C   UNL     1      52.025   7.872  15.307  0.00  0.00    +0.000 C 
ENDBRANCH  10  11
ENDBRANCH   9  10
ENDBRANCH   6   9
ENDBRANCH   2   3
BRANCH   2  20
ATOM     20  N   UNL     1      47.078   4.707  15.526  0.00  0.00    +0.000 N 
ATOM     21  C   UNL     1      46.949   4.444  14.182  0.00  0.00    +0.000 C 
ATOM     22  O   UNL     1      47.438   3.453  13.651  0.00  0.00    +0.000 OA
ATOM     23  H   UNL     1      46.919   5.660  15.838  0.00  0.00    +0.000 HD
BRANCH  21  24
ATOM     24  C   UNL     1      46.126   5.382  13.410  0.00  0.00    +0.000 A 
ATOM     25  C   UNL     1      46.512   6.710  13.308  0.00  0.00    +0.000 A 
ATOM     26  S   UNL     1      45.447   7.661  12.373  0.00  0.00    +0.000 S 
ATOM     27  C   UNL     1      44.410   6.338  12.112  0.00  0.00    +0.000 A 
ATOM     28  N   UNL     1      43.256   6.481  11.408  0.00  0.00    +0.000 NA
ATOM     29  C   UNL     1      42.549   5.404  11.320  0.00  0.00    +0.000 A 
ATOM     30  N   UNL     1      42.899   4.192  11.860  0.00  0.00    +0.000 N 
ATOM     31  C   UNL     1      44.076   3.991  12.542  0.00  0.00    +0.000 A 
ATOM     32  O   UNL     1      44.397   2.882  12.958  0.00  0.00    +0.000 OA
ATOM     33  C   UNL     1      44.889   5.180  12.699  0.00  0.00    +0.000 A 
ATOM     34  H   UNL     1      42.309   3.382  11.737  0.00  0.00    +0.000 HD
ENDBRANCH  21  24
ENDBRANCH   2  20
TORSDOF 6
ENDMDL
