MODEL 1
REMARK VINA RESULT:    -6.696      0.000      0.000
REMARK INTER + INTRA:         -12.496
REMARK INTER:                 -10.610
REMARK INTRA:                  -1.886
REMARK UNBOUND:                -1.886
REMARK  Name = 
REMARK  12 active torsions:
REMARK  status: ('A' for Active; 'I' for Inactive)
REMARK    1  A    between atoms: C_1  and  C_2
REMARK    2  A    between atoms: C_2  and  C_3
REMARK    3  A    between atoms: C_2  and  C_4
REMARK    4  A    between atoms: C_4  and  O_5
REMARK    5  A    between atoms: O_5  and  C_6
REMARK    6  A    between atoms: C_8  and  C_9
REMARK    7  A    between atoms: C_14  and  C_15
REMARK    8  A    between atoms: C_15  and  C_16
REMARK    9  A    between atoms: C_16  and  C_17
REMARK   10  A    between atoms: C_17  and  C_18
REMARK   11  A    between atoms: C_22  and  O_23
REMARK   12  A    between atoms: O_23  and  C_24
REMARK                            x       y       z     vdW  Elec       q    Type
REMARK                         _______ _______ _______ _____ _____    ______ ____
ROOT
ATOM      1  C   UNL     1      47.912   6.179  14.422  0.00  0.00    +0.000 A 
ATOM      2  N   UNL     1      48.234   5.427  15.501  0.00  0.00    +0.000 NA
ATOM      3  C   UNL     1      47.744   4.161  15.535  0.00  0.00    +0.000 A 
ATOM      4  C   UNL     1      46.957   3.610  14.537  0.00  0.00    +0.000 A 
ATOM      5  C   UNL     1      46.625   4.412  13.450  0.00  0.00    +0.000 A 
ATOM      6  C   UNL     1      47.084   5.736  13.388  0.00  0.00    +0.000 A 
ENDROOT
BRANCH   3   7
ATOM      7  C   UNL     1      48.105   3.338  16.727  0.00  0.00    +0.000 C 
ATOM      8  N   UNL     1      47.054   2.937  17.510  0.00  0.00    +0.000 N 
ATOM      9  O   UNL     1      49.260   3.029  16.997  0.00  0.00    +0.000 OA
ATOM     10  H   UNL     1      46.108   3.184  17.240  0.00  0.00    +0.000 HD
ATOM     11  H   UNL     1      47.226   2.367  18.321  0.00  0.00    +0.000 HD
ENDBRANCH   3   7
BRANCH   1  12
ATOM     12  O   UNL     1      48.410   7.467  14.367  0.00  0.00    +0.000 OA
BRANCH  12  13
ATOM     13  C   UNL     1      49.731   7.500  13.812  0.00  0.00    +0.000 C 
BRANCH  13  15
ATOM     14  C   UNL     1      51.147   8.767  12.130  0.00  0.00    +0.000 C 
ATOM     15  C   UNL     1      50.043   8.867  13.181  0.00  0.00    +0.000 C 
ATOM     16  C   UNL     1      48.787   9.500  12.583  0.00  0.00    +0.000 C 
ENDBRANCH  13  15
ENDBRANCH  12  13
ENDBRANCH   1  12
BRANCH   6  17
ATOM     17  C   UNL     1      46.666   6.602  12.229  0.00  0.00    +0.000 C 
BRANCH  17  18
ATOM     18  C   UNL     1      45.309   7.289  12.431  0.00  0.00    +0.000 C 
BRANCH  18  19
ATOM     19  C   UNL     1      44.378   6.969  11.256  0.00  0.00    +0.000 C 
BRANCH  19  20
ATOM     20  C   UNL     1      44.095   5.493  11.154  0.00  0.00    +0.000 A 
ATOM     21  C   UNL     1      43.461   4.814  12.198  0.00  0.00    +0.000 A 
ATOM     22  C   UNL     1      43.264   3.435  12.118  0.00  0.00    +0.000 A 
ATOM     23  C   UNL     1      43.668   2.729  10.979  0.00  0.00    +0.000 A 
ATOM     24  C   UNL     1      44.248   3.403   9.904  0.00  0.00    +0.000 A 
ATOM     25  C   UNL     1      44.491   4.774  10.014  0.00  0.00    +0.000 A 
BRANCH  24  26
ATOM     26  O   UNL     1      44.616   2.845   8.706  0.00  0.00    +0.000 OA
BRANCH  26  27
ATOM     27  C   UNL     1      46.019   2.733   8.432  0.00  0.00    +0.000 C 
ATOM     28  C   UNL     1      46.387   3.666   7.277  0.00  0.00    +0.000 C 
ATOM     29  C   UNL     1      46.707   2.772   6.092  0.00  0.00    +0.000 C 
ATOM     30  N   UNL     1      47.093   1.472   6.634  0.00  0.00    +0.000 NA
ATOM     31  C   UNL     1      46.421   1.337   7.933  0.00  0.00    +0.000 C 
ATOM     32  H   UNL     1      48.103   1.438   6.764  0.00  0.00    +0.000 HD
ENDBRANCH  26  27
ENDBRANCH  24  26
ENDBRANCH  19  20
ENDBRANCH  18  19
ENDBRANCH  17  18
ENDBRANCH   6  17
TORSDOF 10
ENDMDL
MODEL 2
REMARK VINA RESULT:    -6.651      3.376      6.917
REMARK INTER + INTRA:         -12.425
REMARK INTER:                 -10.705
REMARK INTRA:                  -1.720
REMARK UNBOUND:                -1.886
REMARK  Name = 
REMARK  12 active torsions:
REMARK  status: ('A' for Active; 'I' for Inactive)
REMARK    1  A    between atoms: C_1  and  C_2
REMARK    2  A    between atoms: C_2  and  C_3
REMARK    3  A    between atoms: C_2  and  C_4
REMARK    4  A    between atoms: C_4  and  O_5
REMARK    5  A    between atoms: O_5  and  C_6
REMARK    6  A    between atoms: C_8  and  C_9
REMARK    7  A    between atoms: C_14  and  C_15
REMARK    8  A    between atoms: C_15  and  C_16
REMARK    9  A    between atoms: C_16  and  C_17
REMARK   10  A    between atoms: C_17  and  C_18
REMARK   11  A    between atoms: C_22  and  O_23
REMARK   12  A    between atoms: O_23  and  C_24
REMARK                            x       y       z     vdW  Elec       q    Type
REMARK                         _______ _______ _______ _____ _____    ______ ____
ROOT
ATOM      1  C   UNL     1      46.882   4.576  13.459  0.00  0.00    +0.000 A 
ATOM      2  N   UNL     1      45.829   3.793  13.125  0.00  0.00    +0.000 NA
ATOM      3  C   UNL     1      45.048   4.222  12.099  0.00  0.00    +0.000 A 
ATOM      4  C   UNL     1      45.278   5.387  11.387  0.00  0.00    +0.000 A 
ATOM      5  C   UNL     1      46.355   6.181  11.767  0.00  0.00    +0.000 A 
ATOM      6  C   UNL     1      47.170   5.794  12.840  0.00  0.00    +0.000 A 
ENDROOT
BRANCH   3   7
ATOM      7  C   UNL     1      43.890   3.353  11.736  0.00  0.00    +0.000 C 
ATOM      8  N   UNL     1      43.655   2.297  12.579  0.00  0.00    +0.000 N 
ATOM      9  O   UNL     1      43.183   3.561  10.756  0.00  0.00    +0.000 OA
ATOM     10  H   UNL     1      44.239   2.173  13.398  0.00  0.00    +0.000 HD
ATOM     11  H   UNL     1      42.879   1.681  12.401  0.00  0.00    +0.000 HD
ENDBRANCH   3   7
BRANCH   1  12
ATOM     12  O   UNL     1      47.692   4.150  14.496  0.00  0.00    +0.000 OA
BRANCH  12  13
ATOM     13  C   UNL     1      47.034   4.272  15.765  0.00  0.00    +0.000 C 
BRANCH  13  15
ATOM     14  C   UNL     1      48.833   2.985  17.008  0.00  0.00    +0.000 C 
ATOM     15  C   UNL     1      48.045   4.291  16.923  0.00  0.00    +0.000 C 
ATOM     16  C   UNL     1      48.993   5.484  16.812  0.00  0.00    +0.000 C 
ENDBRANCH  13  15
ENDBRANCH  12  13
ENDBRANCH   1  12
BRANCH   6  17
ATOM     17  C   UNL     1      48.297   6.697  13.267  0.00  0.00    +0.000 C 
BRANCH  17  18
ATOM     18  C   UNL     1      48.828   7.593  12.142  0.00  0.00    +0.000 C 
BRANCH  18  19
ATOM     19  C   UNL     1      48.973   9.036  12.642  0.00  0.00    +0.000 C 
BRANCH  19  20
ATOM     20  C   UNL     1      48.006   9.964  11.955  0.00  0.00    +0.000 A 
ATOM     21  C   UNL     1      48.450  10.869  10.987  0.00  0.00    +0.000 A 
ATOM     22  C   UNL     1      47.555  11.767  10.406  0.00  0.00    +0.000 A 
ATOM     23  C   UNL     1      46.202  11.746  10.763  0.00  0.00    +0.000 A 
ATOM     24  C   UNL     1      45.733  10.810  11.684  0.00  0.00    +0.000 A 
ATOM     25  C   UNL     1      46.644   9.949  12.301  0.00  0.00    +0.000 A 
BRANCH  24  26
ATOM     26  O   UNL     1      44.425  10.631  12.060  0.00  0.00    +0.000 OA
BRANCH  26  27
ATOM     27  C   UNL     1      43.423  10.739  11.040  0.00  0.00    +0.000 C 
ATOM     28  C   UNL     1      42.337  11.714  11.498  0.00  0.00    +0.000 C 
ATOM     29  C   UNL     1      41.099  10.877  11.769  0.00  0.00    +0.000 C 
ATOM     30  N   UNL     1      41.233   9.655  10.980  0.00  0.00    +0.000 NA
ATOM     31  C   UNL     1      42.671   9.421  10.799  0.00  0.00    +0.000 C 
ATOM     32  H   UNL     1      40.789   9.780  10.071  0.00  0.00    +0.000 HD
ENDBRANCH  26  27
ENDBRANCH  24  26
ENDBRANCH  19  20
ENDBRANCH  18  19
ENDBRANCH  17  18
ENDBRANCH   6  17
TORSDOF 10
ENDMDL
MODEL 3
REMARK VINA RESULT:    -6.467      1.799      2.092
REMARK INTER + INTRA:         -12.134
REMARK INTER:                 -10.764
REMARK INTRA:                  -1.370
REMARK UNBOUND:                -1.886
REMARK  Name = 
REMARK  12 active torsions:
REMARK  status: ('A' for Active; 'I' for Inactive)
REMARK    1  A    between atoms: C_1  and  C_2
REMARK    2  A    between atoms: C_2  and  C_3
REMARK    3  A    between atoms: C_2  and  C_4
REMARK    4  A    between atoms: C_4  and  O_5
REMARK    5  A    between atoms: O_5  and  C_6
REMARK    6  A    between atoms: C_8  and  C_9
REMARK    7  A    between atoms: C_14  and  C_15
REMARK    8  A    between atoms: C_15  and  C_16
REMARK    9  A    between atoms: C_16  and  C_17
REMARK   10  A    between atoms: C_17  and  C_18
REMARK   11  A    between atoms: C_22  and  O_23
REMARK   12  A    between atoms: O_23  and  C_24
REMARK                            x       y       z     vdW  Elec       q    Type
REMARK                         _______ _______ _______ _____ _____    ______ ____
ROOT
ATOM      1  C   UNL     1      48.560   6.317  15.405  0.00  0.00    +0.000 A 
ATOM      2  N   UNL     1      48.506   5.363  16.364  0.00  0.00    +0.000 NA
ATOM      3  C   UNL     1      47.721   4.283  16.110  0.00  0.00    +0.000 A 
ATOM      4  C   UNL     1      47.001   4.110  14.940  0.00  0.00    +0.000 A 
ATOM      5  C   UNL     1      47.059   5.117  13.982  0.00  0.00    +0.000 A 
ATOM      6  C   UNL     1      47.832   6.264  14.215  0.00  0.00    +0.000 A 
ENDROOT
BRANCH   3   7
ATOM      7  C   UNL     1      47.668   3.234  17.171  0.00  0.00    +0.000 C 
ATOM      8  N   UNL     1      48.880   2.831  17.667  0.00  0.00    +0.000 N 
ATOM      9  O   UNL     1      46.615   2.761  17.586  0.00  0.00    +0.000 OA
ATOM     10  H   UNL     1      49.730   3.266  17.323  0.00  0.00    +0.000 HD
ATOM     11  H   UNL     1      48.915   2.138  18.395  0.00  0.00    +0.000 HD
ENDBRANCH   3   7
BRANCH   1  12
ATOM     12  O   UNL     1      49.361   7.419  15.644  0.00  0.00    +0.000 OA
BRANCH  12  13
ATOM     13  C   UNL     1      48.804   8.266  16.659  0.00  0.00    +0.000 C 
BRANCH  13  15
ATOM     14  C   UNL     1      49.396  10.130  15.042  0.00  0.00    +0.000 C 
ATOM     15  C   UNL     1      49.288   9.718  16.508  0.00  0.00    +0.000 C 
ATOM     16  C   UNL     1      48.385  10.685  17.273  0.00  0.00    +0.000 C 
ENDBRANCH  13  15
ENDBRANCH  12  13
ENDBRANCH   1  12
BRANCH   6  17
ATOM     17  C   UNL     1      47.837   7.364  13.187  0.00  0.00    +0.000 C 
BRANCH  17  18
ATOM     18  C   UNL     1      47.308   6.929  11.815  0.00  0.00    +0.000 C 
BRANCH  18  19
ATOM     19  C   UNL     1      45.867   7.418  11.627  0.00  0.00    +0.000 C 
BRANCH  19  20
ATOM     20  C   UNL     1      44.910   6.272  11.426  0.00  0.00    +0.000 A 
ATOM     21  C   UNL     1      43.550   6.419  11.712  0.00  0.00    +0.000 A 
ATOM     22  C   UNL     1      42.687   5.331  11.583  0.00  0.00    +0.000 A 
ATOM     23  C   UNL     1      43.169   4.096  11.135  0.00  0.00    +0.000 A 
ATOM     24  C   UNL     1      44.513   3.950  10.789  0.00  0.00    +0.000 A 
ATOM     25  C   UNL     1      45.382   5.028  10.972  0.00  0.00    +0.000 A 
BRANCH  24  26
ATOM     26  O   UNL     1      45.095   2.822  10.266  0.00  0.00    +0.000 OA
BRANCH  26  27
ATOM     27  C   UNL     1      44.837   2.525   8.888  0.00  0.00    +0.000 C 
ATOM     28  C   UNL     1      45.907   1.561   8.369  0.00  0.00    +0.000 C 
ATOM     29  C   UNL     1      46.765   2.357   7.402  0.00  0.00    +0.000 C 
ATOM     30  N   UNL     1      45.947   3.468   6.924  0.00  0.00    +0.000 NA
ATOM     31  C   UNL     1      44.963   3.754   7.976  0.00  0.00    +0.000 C 
ATOM     32  H   UNL     1      45.465   3.199   6.068  0.00  0.00    +0.000 HD
ENDBRANCH  26  27
ENDBRANCH  24  26
ENDBRANCH  19  20
ENDBRANCH  18  19
ENDBRANCH  17  18
ENDBRANCH   6  17
TORSDOF 10
ENDMDL
MODEL 4
REMARK VINA RESULT:    -6.121      3.307      7.201
REMARK INTER + INTRA:         -11.585
REMARK INTER:                  -9.542
REMARK INTRA:                  -2.043
REMARK UNBOUND:                -1.886
REMARK  Name = 
REMARK  12 active torsions:
REMARK  status: ('A' for Active; 'I' for Inactive)
REMARK    1  A    between atoms: C_1  and  C_2
REMARK    2  A    between atoms: C_2  and  C_3
REMARK    3  A    between atoms: C_2  and  C_4
REMARK    4  A    between atoms: C_4  and  O_5
REMARK    5  A    between atoms: O_5  and  C_6
REMARK    6  A    between atoms: C_8  and  C_9
REMARK    7  A    between atoms: C_14  and  C_15
REMARK    8  A    between atoms: C_15  and  C_16
REMARK    9  A    between atoms: C_16  and  C_17
REMARK   10  A    between atoms: C_17  and  C_18
REMARK   11  A    between atoms: C_22  and  O_23
REMARK   12  A    between atoms: O_23  and  C_24
REMARK                            x       y       z     vdW  Elec       q    Type
REMARK                         _______ _______ _______ _____ _____    ______ ____
ROOT
ATOM      1  C   UNL     1      45.740   7.138  11.951  0.00  0.00    +0.000 A 
ATOM      2  N   UNL     1      44.683   6.315  12.150  0.00  0.00    +0.000 NA
ATOM      3  C   UNL     1      44.940   5.119  12.741  0.00  0.00    +0.000 A 
ATOM      4  C   UNL     1      46.200   4.715  13.151  0.00  0.00    +0.000 A 
ATOM      5  C   UNL     1      47.269   5.572  12.914  0.00  0.00    +0.000 A 
ATOM      6  C   UNL     1      47.055   6.804  12.279  0.00  0.00    +0.000 A 
ENDROOT
BRANCH   3   7
ATOM      7  C   UNL     1      43.769   4.218  12.958  0.00  0.00    +0.000 C 
ATOM      8  N   UNL     1      43.986   2.892  12.688  0.00  0.00    +0.000 N 
ATOM      9  O   UNL     1      42.683   4.623  13.356  0.00  0.00    +0.000 OA
ATOM     10  H   UNL     1      44.906   2.586  12.391  0.00  0.00    +0.000 HD
ATOM     11  H   UNL     1      43.242   2.228  12.828  0.00  0.00    +0.000 HD
ENDBRANCH   3   7
BRANCH   1  12
ATOM     12  O   UNL     1      45.495   8.363  11.359  0.00  0.00    +0.000 OA
BRANCH  12  13
ATOM     13  C   UNL     1      45.054   9.335  12.317  0.00  0.00    +0.000 C 
BRANCH  13  15
ATOM     14  C   UNL     1      46.724  11.077  11.534  0.00  0.00    +0.000 C 
ATOM     15  C   UNL     1      45.252  10.768  11.797  0.00  0.00    +0.000 C 
ATOM     16  C   UNL     1      44.416  11.022  10.543  0.00  0.00    +0.000 C 
ENDBRANCH  13  15
ENDBRANCH  12  13
ENDBRANCH   1  12
BRANCH   6  17
ATOM     17  C   UNL     1      48.236   7.691  11.985  0.00  0.00    +0.000 C 
BRANCH  17  18
ATOM     18  C   UNL     1      49.056   8.057  13.229  0.00  0.00    +0.000 C 
BRANCH  18  19
ATOM     19  C   UNL     1      48.224   8.943  14.164  0.00  0.00    +0.000 C 
BRANCH  19  20
ATOM     20  C   UNL     1      48.379   8.532  15.606  0.00  0.00    +0.000 A 
ATOM     21  C   UNL     1      48.050   9.414  16.639  0.00  0.00    +0.000 A 
ATOM     22  C   UNL     1      48.259   9.043  17.967  0.00  0.00    +0.000 A 
ATOM     23  C   UNL     1      48.768   7.777  18.276  0.00  0.00    +0.000 A 
ATOM     24  C   UNL     1      49.046   6.865  17.258  0.00  0.00    +0.000 A 
ATOM     25  C   UNL     1      48.884   7.261  15.928  0.00  0.00    +0.000 A 
BRANCH  24  26
ATOM     26  O   UNL     1      49.472   5.571  17.426  0.00  0.00    +0.000 OA
BRANCH  26  27
ATOM     27  C   UNL     1      48.651   4.703  18.219  0.00  0.00    +0.000 C 
ATOM     28  C   UNL     1      49.064   3.251  17.971  0.00  0.00    +0.000 C 
ATOM     29  C   UNL     1      47.926   2.610  17.195  0.00  0.00    +0.000 C 
ATOM     30  N   UNL     1      46.725   3.388  17.484  0.00  0.00    +0.000 NA
ATOM     31  C   UNL     1      47.170   4.748  17.817  0.00  0.00    +0.000 C 
ATOM     32  H   UNL     1      46.234   2.984  18.280  0.00  0.00    +0.000 HD
ENDBRANCH  26  27
ENDBRANCH  24  26
ENDBRANCH  19  20
ENDBRANCH  18  19
ENDBRANCH  17  18
ENDBRANCH   6  17
TORSDOF 10
ENDMDL
MODEL 5
REMARK VINA RESULT:    -6.086      1.862      3.997
REMARK INTER + INTRA:         -11.529
REMARK INTER:                 -10.381
REMARK INTRA:                  -1.148
REMARK UNBOUND:                -1.886
REMARK  Name = 
REMARK  12 active torsions:
REMARK  status: ('A' for Active; 'I' for Inactive)
REMARK    1  A    between atoms: C_1  and  C_2
REMARK    2  A    between atoms: C_2  and  C_3
REMARK    3  A    between atoms: C_2  and  C_4
REMARK    4  A    between atoms: C_4  and  O_5
REMARK    5  A    between atoms: O_5  and  C_6
REMARK    6  A    between atoms: C_8  and  C_9
REMARK    7  A    between atoms: C_14  and  C_15
REMARK    8  A    between atoms: C_15  and  C_16
REMARK    9  A    between atoms: C_16  and  C_17
REMARK   10  A    between atoms: C_17  and  C_18
REMARK   11  A    between atoms: C_22  and  O_23
REMARK   12  A    between atoms: O_23  and  C_24
REMARK                            x       y       z     vdW  Elec       q    Type
REMARK                         _______ _______ _______ _____ _____    ______ ____
ROOT
ATOM      1  C   UNL     1      48.749   6.271  14.543  0.00  0.00    +0.000 A 
ATOM      2  N   UNL     1      49.854   6.960  14.914  0.00  0.00    +0.000 NA
ATOM      3  C   UNL     1      50.286   7.929  14.066  0.00  0.00    +0.000 A 
ATOM      4  C   UNL     1      49.658   8.248  12.874  0.00  0.00    +0.000 A 
ATOM      5  C   UNL     1      48.537   7.511  12.509  0.00  0.00    +0.000 A 
ATOM      6  C   UNL     1      48.074   6.479  13.339  0.00  0.00    +0.000 A 
ENDROOT
BRANCH   3   7
ATOM      7  C   UNL     1      51.505   8.684  14.483  0.00  0.00    +0.000 C 
ATOM      8  N   UNL     1      51.337  10.034  14.649  0.00  0.00    +0.000 N 
ATOM      9  O   UNL     1      52.589   8.144  14.673  0.00  0.00    +0.000 OA
ATOM     10  H   UNL     1      50.419  10.444  14.514  0.00  0.00    +0.000 HD
ATOM     11  H   UNL     1      52.114  10.600  14.945  0.00  0.00    +0.000 HD
ENDBRANCH   3   7
BRANCH   1  12
ATOM     12  O   UNL     1      48.291   5.286  15.399  0.00  0.00    +0.000 OA
BRANCH  12  13
ATOM     13  C   UNL     1      48.390   5.691  16.771  0.00  0.00    +0.000 C 
BRANCH  13  15
ATOM     14  C   UNL     1      47.447   3.343  16.968  0.00  0.00    +0.000 C 
ATOM     15  C   UNL     1      47.813   4.624  17.716  0.00  0.00    +0.000 C 
ATOM     16  C   UNL     1      48.776   4.320  18.863  0.00  0.00    +0.000 C 
ENDBRANCH  13  15
ENDBRANCH  12  13
ENDBRANCH   1  12
BRANCH   6  17
ATOM     17  C   UNL     1      46.891   5.659  12.896  0.00  0.00    +0.000 C 
BRANCH  17  18
ATOM     18  C   UNL     1      45.635   6.492  12.612  0.00  0.00    +0.000 C 
BRANCH  18  19
ATOM     19  C   UNL     1      45.371   6.547  11.103  0.00  0.00    +0.000 C 
BRANCH  19  20
ATOM     20  C   UNL     1      44.983   5.199  10.555  0.00  0.00    +0.000 A 
ATOM     21  C   UNL     1      44.269   4.288  11.339  0.00  0.00    +0.000 A 
ATOM     22  C   UNL     1      43.973   3.019  10.841  0.00  0.00    +0.000 A 
ATOM     23  C   UNL     1      44.359   2.661   9.545  0.00  0.00    +0.000 A 
ATOM     24  C   UNL     1      45.020   3.579   8.730  0.00  0.00    +0.000 A 
ATOM     25  C   UNL     1      45.361   4.829   9.253  0.00  0.00    +0.000 A 
BRANCH  24  26
ATOM     26  O   UNL     1      45.383   3.383   7.421  0.00  0.00    +0.000 OA
BRANCH  26  27
ATOM     27  C   UNL     1      46.775   3.174   7.146  0.00  0.00    +0.000 C 
ATOM     28  C   UNL     1      47.040   3.424   5.660  0.00  0.00    +0.000 C 
ATOM     29  C   UNL     1      47.343   2.069   5.046  0.00  0.00    +0.000 C 
ATOM     30  N   UNL     1      47.816   1.209   6.128  0.00  0.00    +0.000 NA
ATOM     31  C   UNL     1      47.216   1.719   7.368  0.00  0.00    +0.000 C 
ATOM     32  H   UNL     1      48.831   1.260   6.191  0.00  0.00    +0.000 HD
ENDBRANCH  26  27
ENDBRANCH  24  26
ENDBRANCH  19  20
ENDBRANCH  18  19
ENDBRANCH  17  18
ENDBRANCH   6  17
TORSDOF 10
ENDMDL
MODEL 6
REMARK VINA RESULT:    -6.048      4.283      7.161
REMARK INTER + INTRA:         -11.469
REMARK INTER:                  -9.715
REMARK INTRA:                  -1.753
REMARK UNBOUND:                -1.886
REMARK  Name = 
REMARK  12 active torsions:
REMARK  status: ('A' for Active; 'I' for Inactive)
REMARK    1  A    between atoms: C_1  and  C_2
REMARK    2  A    between atoms: C_2  and  C_3
REMARK    3  A    between atoms: C_2  and  C_4
REMARK    4  A    between atoms: C_4  and  O_5
REMARK    5  A    between atoms: O_5  and  C_6
REMARK    6  A    between atoms: C_8  and  C_9
REMARK    7  A    between atoms: C_14  and  C_15
REMARK    8  A    between atoms: C_15  and  C_16
REMARK    9  A    between atoms: C_16  and  C_17
REMARK   10  A    between atoms: C_17  and  C_18
REMARK   11  A    between atoms: C_22  and  O_23
REMARK   12  A    between atoms: O_23  and  C_24
REMARK                            x       y       z     vdW  Elec       q    Type
REMARK                         _______ _______ _______ _____ _____    ______ ____
ROOT
ATOM      1  C   UNL     1      46.407   4.516  13.454  0.00  0.00    +0.000 A 
ATOM      2  N   UNL     1      46.709   3.646  14.447  0.00  0.00    +0.000 NA
ATOM      3  C   UNL     1      47.535   4.097  15.427  0.00  0.00    +0.000 A 
ATOM      4  C   UNL     1      48.060   5.377  15.465  0.00  0.00    +0.000 A 
ATOM      5  C   UNL     1      47.749   6.242  14.422  0.00  0.00    +0.000 A 
ATOM      6  C   UNL     1      46.925   5.809  13.372  0.00  0.00    +0.000 A 
ENDROOT
BRANCH   3   7
ATOM      7  C   UNL     1      47.862   3.132  16.518  0.00  0.00    +0.000 C 
ATOM      8  N   UNL     1      46.900   2.980  17.483  0.00  0.00    +0.000 N 
ATOM      9  O   UNL     1      48.915   2.506  16.558  0.00  0.00    +0.000 OA
ATOM     10  H   UNL     1      46.027   3.490  17.402  0.00  0.00    +0.000 HD
ATOM     11  H   UNL     1      47.050   2.333  18.239  0.00  0.00    +0.000 HD
ENDBRANCH   3   7
BRANCH   1  12
ATOM     12  O   UNL     1      45.561   4.075  12.453  0.00  0.00    +0.000 OA
BRANCH  12  13
ATOM     13  C   UNL     1      44.184   4.187  12.837  0.00  0.00    +0.000 C 
BRANCH  13  15
ATOM     14  C   UNL     1      42.316   5.570  11.820  0.00  0.00    +0.000 C 
ATOM     15  C   UNL     1      43.274   4.398  11.616  0.00  0.00    +0.000 C 
ATOM     16  C   UNL     1      44.094   4.589  10.341  0.00  0.00    +0.000 C 
ENDBRANCH  13  15
ENDBRANCH  12  13
ENDBRANCH   1  12
BRANCH   6  17
ATOM     17  C   UNL     1      46.647   6.746  12.226  0.00  0.00    +0.000 C 
BRANCH  17  18
ATOM     18  C   UNL     1      45.680   7.882  12.581  0.00  0.00    +0.000 C 
BRANCH  18  19
ATOM     19  C   UNL     1      44.790   8.211  11.376  0.00  0.00    +0.000 C 
BRANCH  19  20
ATOM     20  C   UNL     1      44.467   9.681  11.306  0.00  0.00    +0.000 A 
ATOM     21  C   UNL     1      45.472  10.641  11.450  0.00  0.00    +0.000 A 
ATOM     22  C   UNL     1      45.149  11.998  11.448  0.00  0.00    +0.000 A 
ATOM     23  C   UNL     1      43.823  12.408  11.269  0.00  0.00    +0.000 A 
ATOM     24  C   UNL     1      42.817  11.463  11.065  0.00  0.00    +0.000 A 
ATOM     25  C   UNL     1      43.140  10.105  11.121  0.00  0.00    +0.000 A 
BRANCH  24  26
ATOM     26  O   UNL     1      41.498  11.732  10.801  0.00  0.00    +0.000 OA
BRANCH  26  27
ATOM     27  C   UNL     1      40.515  10.911  11.445  0.00  0.00    +0.000 C 
ATOM     28  C   UNL     1      39.391  10.595  10.455  0.00  0.00    +0.000 C 
ATOM     29  C   UNL     1      38.173  11.365  10.933  0.00  0.00    +0.000 C 
ATOM     30  N   UNL     1      38.357  11.607  12.362  0.00  0.00    +0.000 NA
ATOM     31  C   UNL     1      39.806  11.625  12.605  0.00  0.00    +0.000 C 
ATOM     32  H   UNL     1      37.929  10.854  12.898  0.00  0.00    +0.000 HD
ENDBRANCH  26  27
ENDBRANCH  24  26
ENDBRANCH  19  20
ENDBRANCH  18  19
ENDBRANCH  17  18
ENDBRANCH   6  17
TORSDOF 10
ENDMDL
MODEL 7
REMARK VINA RESULT:    -6.025      2.657      4.464
REMARK INTER + INTRA:         -11.434
REMARK INTER:                  -9.335
REMARK INTRA:                  -2.099
REMARK UNBOUND:                -1.886
REMARK  Name = 
REMARK  12 active torsions:
REMARK  status: ('A' for Active; 'I' for Inactive)
REMARK    1  A    between atoms: C_1  and  C_2
REMARK    2  A    between atoms: C_2  and  C_3
REMARK    3  A    between atoms: C_2  and  C_4
REMARK    4  A    between atoms: C_4  and  O_5
REMARK    5  A    between atoms: O_5  and  C_6
REMARK    6  A    between atoms: C_8  and  C_9
REMARK    7  A    between atoms: C_14  and  C_15
REMARK    8  A    between atoms: C_15  and  C_16
REMARK    9  A    between atoms: C_16  and  C_17
REMARK   10  A    between atoms: C_17  and  C_18
REMARK   11  A    between atoms: C_22  and  O_23
REMARK   12  A    between atoms: O_23  and  C_24
REMARK                            x       y       z     vdW  Elec       q    Type
REMARK                         _______ _______ _______ _____ _____    ______ ____
ROOT
ATOM      1  C   UNL     1      48.932   6.400  16.534  0.00  0.00    +0.000 A 
ATOM      2  N   UNL     1      48.593   5.387  17.366  0.00  0.00    +0.000 NA
ATOM      3  C   UNL     1      47.805   4.408  16.851  0.00  0.00    +0.000 A 
ATOM      4  C   UNL     1      47.351   4.390  15.543  0.00  0.00    +0.000 A 
ATOM      5  C   UNL     1      47.698   5.454  14.717  0.00  0.00    +0.000 A 
ATOM      6  C   UNL     1      48.485   6.503  15.215  0.00  0.00    +0.000 A 
ENDROOT
BRANCH   3   7
ATOM      7  C   UNL     1      47.437   3.295  17.775  0.00  0.00    +0.000 C 
ATOM      8  N   UNL     1      48.282   3.103  18.838  0.00  0.00    +0.000 N 
ATOM      9  O   UNL     1      46.444   2.594  17.610  0.00  0.00    +0.000 OA
ATOM     10  H   UNL     1      49.076   3.722  18.961  0.00  0.00    +0.000 HD
ATOM     11  H   UNL     1      48.083   2.379  19.508  0.00  0.00    +0.000 HD
ENDBRANCH   3   7
BRANCH   1  12
ATOM     12  O   UNL     1      49.741   7.401  17.040  0.00  0.00    +0.000 OA
BRANCH  12  13
ATOM     13  C   UNL     1      49.220   7.932  18.266  0.00  0.00    +0.000 C 
BRANCH  13  15
ATOM     14  C   UNL     1      47.301   9.214  19.320  0.00  0.00    +0.000 C 
ATOM     15  C   UNL     1      48.000   8.833  18.017  0.00  0.00    +0.000 C 
ATOM     16  C   UNL     1      48.387  10.084  17.229  0.00  0.00    +0.000 C 
ENDBRANCH  13  15
ENDBRANCH  12  13
ENDBRANCH   1  12
BRANCH   6  17
ATOM     17  C   UNL     1      48.802   7.670  14.318  0.00  0.00    +0.000 C 
BRANCH  17  18
ATOM     18  C   UNL     1      49.362   7.261  12.950  0.00  0.00    +0.000 C 
BRANCH  18  19
ATOM     19  C   UNL     1      48.915   8.262  11.878  0.00  0.00    +0.000 C 
BRANCH  19  20
ATOM     20  C   UNL     1      47.418   8.427  11.859  0.00  0.00    +0.000 A 
ATOM     21  C   UNL     1      46.835   9.680  12.065  0.00  0.00    +0.000 A 
ATOM     22  C   UNL     1      45.446   9.807  12.108  0.00  0.00    +0.000 A 
ATOM     23  C   UNL     1      44.629   8.689  11.912  0.00  0.00    +0.000 A 
ATOM     24  C   UNL     1      45.195   7.442  11.647  0.00  0.00    +0.000 A 
ATOM     25  C   UNL     1      46.587   7.312  11.658  0.00  0.00    +0.000 A 
BRANCH  24  26
ATOM     26  O   UNL     1      44.511   6.288  11.361  0.00  0.00    +0.000 OA
BRANCH  26  27
ATOM     27  C   UNL     1      45.112   5.048  11.757  0.00  0.00    +0.000 C 
ATOM     28  C   UNL     1      44.827   3.984  10.695  0.00  0.00    +0.000 C 
ATOM     29  C   UNL     1      43.850   3.006  11.323  0.00  0.00    +0.000 C 
ATOM     30  N   UNL     1      44.013   3.113  12.770  0.00  0.00    +0.000 NA
ATOM     31  C   UNL     1      44.501   4.471  13.043  0.00  0.00    +0.000 C 
ATOM     32  H   UNL     1      44.698   2.431  13.092  0.00  0.00    +0.000 HD
ENDBRANCH  26  27
ENDBRANCH  24  26
ENDBRANCH  19  20
ENDBRANCH  18  19
ENDBRANCH  17  18
ENDBRANCH   6  17
TORSDOF 10
ENDMDL
MODEL 8
REMARK VINA RESULT:    -6.012      3.348      8.605
REMARK INTER + INTRA:         -11.413
REMARK INTER:                  -9.496
REMARK INTRA:                  -1.916
REMARK UNBOUND:                -1.886
REMARK  Name = 
REMARK  12 active torsions:
REMARK  status: ('A' for Active; 'I' for Inactive)
REMARK    1  A    between atoms: C_1  and  C_2
REMARK    2  A    between atoms: C_2  and  C_3
REMARK    3  A    between atoms: C_2  and  C_4
REMARK    4  A    between atoms: C_4  and  O_5
REMARK    5  A    between atoms: O_5  and  C_6
REMARK    6  A    between atoms: C_8  and  C_9
REMARK    7  A    between atoms: C_14  and  C_15
REMARK    8  A    between atoms: C_15  and  C_16
REMARK    9  A    between atoms: C_16  and  C_17
REMARK   10  A    between atoms: C_17  and  C_18
REMARK   11  A    between atoms: C_22  and  O_23
REMARK   12  A    between atoms: O_23  and  C_24
REMARK                            x       y       z     vdW  Elec       q    Type
REMARK                         _______ _______ _______ _____ _____    ______ ____
ROOT
ATOM      1  C   UNL     1      47.148   5.331  13.834  0.00  0.00    +0.000 A 
ATOM      2  N   UNL     1      45.898   4.815  13.892  0.00  0.00    +0.000 NA
ATOM      3  C   UNL     1      45.043   5.165  12.896  0.00  0.00    +0.000 A 
ATOM      4  C   UNL     1      45.385   5.996  11.841  0.00  0.00    +0.000 A 
ATOM      5  C   UNL     1      46.670   6.527  11.820  0.00  0.00    +0.000 A 
ATOM      6  C   UNL     1      47.576   6.218  12.845  0.00  0.00    +0.000 A 
ENDROOT
BRANCH   3   7
ATOM      7  C   UNL     1      43.667   4.592  12.966  0.00  0.00    +0.000 C 
ATOM      8  N   UNL     1      42.647   5.506  13.027  0.00  0.00    +0.000 N 
ATOM      9  O   UNL     1      43.448   3.385  12.964  0.00  0.00    +0.000 OA
ATOM     10  H   UNL     1      42.862   6.496  12.994  0.00  0.00    +0.000 HD
ATOM     11  H   UNL     1      41.694   5.186  13.060  0.00  0.00    +0.000 HD
ENDBRANCH   3   7
BRANCH   1  12
ATOM     12  O   UNL     1      48.033   4.978  14.837  0.00  0.00    +0.000 OA
BRANCH  12  13
ATOM     13  C   UNL     1      47.347   4.523  16.011  0.00  0.00    +0.000 C 
BRANCH  13  15
ATOM     14  C   UNL     1      49.494   3.678  17.067  0.00  0.00    +0.000 C 
ATOM     15  C   UNL     1      48.066   3.326  16.655  0.00  0.00    +0.000 C 
ATOM     16  C   UNL     1      47.280   2.785  17.848  0.00  0.00    +0.000 C 
ENDBRANCH  13  15
ENDBRANCH  12  13
ENDBRANCH   1  12
BRANCH   6  17
ATOM     17  C   UNL     1      48.944   6.848  12.828  0.00  0.00    +0.000 C 
BRANCH  17  18
ATOM     18  C   UNL     1      49.056   8.099  13.708  0.00  0.00    +0.000 C 
BRANCH  18  19
ATOM     19  C   UNL     1      49.923   7.802  14.937  0.00  0.00    +0.000 C 
BRANCH  19  20
ATOM     20  C   UNL     1      49.289   8.314  16.204  0.00  0.00    +0.000 A 
ATOM     21  C   UNL     1      48.541   9.495  16.201  0.00  0.00    +0.000 A 
ATOM     22  C   UNL     1      48.014   9.991  17.393  0.00  0.00    +0.000 A 
ATOM     23  C   UNL     1      48.201   9.295  18.593  0.00  0.00    +0.000 A 
ATOM     24  C   UNL     1      48.896   8.085  18.601  0.00  0.00    +0.000 A 
ATOM     25  C   UNL     1      49.466   7.621  17.413  0.00  0.00    +0.000 A 
BRANCH  24  26
ATOM     26  O   UNL     1      49.083   7.269  19.688  0.00  0.00    +0.000 OA
BRANCH  26  27
ATOM     27  C   UNL     1      48.334   6.047  19.734  0.00  0.00    +0.000 C 
ATOM     28  C   UNL     1      47.076   6.255  20.578  0.00  0.00    +0.000 C 
ATOM     29  C   UNL     1      47.282   5.460  21.855  0.00  0.00    +0.000 C 
ATOM     30  N   UNL     1      48.253   4.412  21.550  0.00  0.00    +0.000 NA
ATOM     31  C   UNL     1      49.084   4.912  20.447  0.00  0.00    +0.000 C 
ATOM     32  H   UNL     1      47.767   3.566  21.258  0.00  0.00    +0.000 HD
ENDBRANCH  26  27
ENDBRANCH  24  26
ENDBRANCH  19  20
ENDBRANCH  18  19
ENDBRANCH  17  18
ENDBRANCH   6  17
TORSDOF 10
ENDMDL
MODEL 9
REMARK VINA RESULT:    -5.885      3.913      9.089
REMARK INTER + INTRA:         -11.211
REMARK INTER:                  -8.737
REMARK INTRA:                  -2.473
REMARK UNBOUND:                -1.886
REMARK  Name = 
REMARK  12 active torsions:
REMARK  status: ('A' for Active; 'I' for Inactive)
REMARK    1  A    between atoms: C_1  and  C_2
REMARK    2  A    between atoms: C_2  and  C_3
REMARK    3  A    between atoms: C_2  and  C_4
REMARK    4  A    between atoms: C_4  and  O_5
REMARK    5  A    between atoms: O_5  and  C_6
REMARK    6  A    between atoms: C_8  and  C_9
REMARK    7  A    between atoms: C_14  and  C_15
REMARK    8  A    between atoms: C_15  and  C_16
REMARK    9  A    between atoms: C_16  and  C_17
REMARK   10  A    between atoms: C_17  and  C_18
REMARK   11  A    between atoms: C_22  and  O_23
REMARK   12  A    between atoms: O_23  and  C_24
REMARK                            x       y       z     vdW  Elec       q    Type
REMARK                         _______ _______ _______ _____ _____    ______ ____
ROOT
ATOM      1  C   UNL     1      46.903   4.509  13.549  0.00  0.00    +0.000 A 
ATOM      2  N   UNL     1      45.803   3.784  13.238  0.00  0.00    +0.000 NA
ATOM      3  C   UNL     1      45.012   4.265  12.244  0.00  0.00    +0.000 A 
ATOM      4  C   UNL     1      45.276   5.428  11.541  0.00  0.00    +0.000 A 
ATOM      5  C   UNL     1      46.402   6.164  11.896  0.00  0.00    +0.000 A 
ATOM      6  C   UNL     1      47.231   5.721  12.938  0.00  0.00    +0.000 A 
ENDROOT
BRANCH   3   7
ATOM      7  C   UNL     1      43.802   3.459  11.907  0.00  0.00    +0.000 C 
ATOM      8  N   UNL     1      43.726   2.227  12.504  0.00  0.00    +0.000 N 
ATOM      9  O   UNL     1      42.923   3.861  11.153  0.00  0.00    +0.000 OA
ATOM     10  H   UNL     1      44.455   1.938  13.147  0.00  0.00    +0.000 HD
ATOM     11  H   UNL     1      42.928   1.638  12.332  0.00  0.00    +0.000 HD
ENDBRANCH   3   7
BRANCH   1  12
ATOM     12  O   UNL     1      47.724   4.030  14.553  0.00  0.00    +0.000 OA
BRANCH  12  13
ATOM     13  C   UNL     1      47.084   4.096  15.835  0.00  0.00    +0.000 C 
BRANCH  13  15
ATOM     14  C   UNL     1      47.329   5.156  18.127  0.00  0.00    +0.000 C 
ATOM     15  C   UNL     1      48.061   4.556  16.929  0.00  0.00    +0.000 C 
ATOM     16  C   UNL     1      48.973   3.413  17.374  0.00  0.00    +0.000 C 
ENDBRANCH  13  15
ENDBRANCH  12  13
ENDBRANCH   1  12
BRANCH   6  17
ATOM     17  C   UNL     1      48.413   6.562  13.340  0.00  0.00    +0.000 C 
BRANCH  17  18
ATOM     18  C   UNL     1      48.113   7.540  14.482  0.00  0.00    +0.000 C 
BRANCH  18  19
ATOM     19  C   UNL     1      49.392   8.283  14.889  0.00  0.00    +0.000 C 
BRANCH  19  20
ATOM     20  C   UNL     1      49.960   7.751  16.179  0.00  0.00    +0.000 A 
ATOM     21  C   UNL     1      50.947   6.762  16.170  0.00  0.00    +0.000 A 
ATOM     22  C   UNL     1      51.417   6.233  17.372  0.00  0.00    +0.000 A 
ATOM     23  C   UNL     1      50.929   6.712  18.594  0.00  0.00    +0.000 A 
ATOM     24  C   UNL     1      49.987   7.740  18.619  0.00  0.00    +0.000 A 
ATOM     25  C   UNL     1      49.481   8.228  17.411  0.00  0.00    +0.000 A 
BRANCH  24  26
ATOM     26  O   UNL     1      49.487   8.350  19.742  0.00  0.00    +0.000 OA
BRANCH  26  27
ATOM     27  C   UNL     1      48.084   8.210  20.001  0.00  0.00    +0.000 C 
ATOM     28  C   UNL     1      47.472   9.591  20.238  0.00  0.00    +0.000 C 
ATOM     29  C   UNL     1      47.115   9.652  21.713  0.00  0.00    +0.000 C 
ATOM     30  N   UNL     1      46.952   8.274  22.167  0.00  0.00    +0.000 NA
ATOM     31  C   UNL     1      47.789   7.439  21.296  0.00  0.00    +0.000 C 
ATOM     32  H   UNL     1      45.977   7.993  22.078  0.00  0.00    +0.000 HD
ENDBRANCH  26  27
ENDBRANCH  24  26
ENDBRANCH  19  20
ENDBRANCH  18  19
ENDBRANCH  17  18
ENDBRANCH   6  17
TORSDOF 10
ENDMDL
