MODEL 1
REMARK VINA RESULT:    -7.661      0.000      0.000
REMARK INTER + INTRA:         -10.350
REMARK INTER:                  -9.453
REMARK INTRA:                  -0.897
REMARK UNBOUND:                -0.897
REMARK  Name = 
REMARK  5 active torsions:
REMARK  status: ('A' for Active; 'I' for Inactive)
REMARK    1  A    between atoms: C_1  and  C_2
REMARK    2  A    between atoms: C_3  and  C_4
REMARK    3  A    between atoms: C_8  and  C_9
REMARK    4  A    between atoms: C_9  and  N_10
REMARK    5  A    between atoms: C_11  and  C_13
REMARK                            x       y       z     vdW  Elec       q    Type
REMARK                         _______ _______ _______ _____ _____    ______ ____
ROOT
ATOM      1  N   UNL     1      45.727   6.511  12.562  0.00  0.00    +0.000 N 
ATOM      2  C   UNL     1      47.086   6.696  12.544  0.00  0.00    +0.000 C 
ATOM      3  O   UNL     1      47.695   6.993  11.521  0.00  0.00    +0.000 OA
ATOM      4  H   UNL     1      45.302   6.037  13.353  0.00  0.00    +0.000 HD
ENDROOT
BRANCH   2   5
ATOM      5  C   UNL     1      47.772   6.592  13.838  0.00  0.00    +0.000 A 
ATOM      6  C   UNL     1      48.653   7.590  14.234  0.00  0.00    +0.000 A 
ATOM      7  S   UNL     1      49.327   7.333  15.779  0.00  0.00    +0.000 S 
ATOM      8  C   UNL     1      48.509   5.851  15.949  0.00  0.00    +0.000 A 
ATOM      9  N   UNL     1      48.670   5.087  17.064  0.00  0.00    +0.000 NA
ATOM     10  C   UNL     1      48.011   3.978  17.049  0.00  0.00    +0.000 A 
ATOM     11  N   UNL     1      47.198   3.566  16.024  0.00  0.00    +0.000 N 
ATOM     12  C   UNL     1      46.974   4.320  14.898  0.00  0.00    +0.000 A 
ATOM     13  O   UNL     1      46.194   3.953  14.026  0.00  0.00    +0.000 OA
ATOM     14  C   UNL     1      47.710   5.571  14.856  0.00  0.00    +0.000 A 
ATOM     15  H   UNL     1      46.697   2.692  16.084  0.00  0.00    +0.000 HD
ENDBRANCH   2   5
BRANCH   1  16
ATOM     16  C   UNL     1      44.924   6.607  11.369  0.00  0.00    +0.000 C 
BRANCH  16  21
ATOM     17  C   UNL     1      45.319   3.760   8.854  0.00  0.00    +0.000 A 
ATOM     18  C   UNL     1      44.591   2.743   9.473  0.00  0.00    +0.000 A 
ATOM     19  C   UNL     1      43.951   2.981  10.689  0.00  0.00    +0.000 A 
ATOM     20  C   UNL     1      44.044   4.236  11.292  0.00  0.00    +0.000 A 
ATOM     21  C   UNL     1      44.784   5.265  10.693  0.00  0.00    +0.000 A 
ATOM     22  C   UNL     1      45.422   5.013   9.462  0.00  0.00    +0.000 A 
BRANCH  17  25
ATOM     23  C   UNL     1      47.043   2.705   5.299  0.00  0.00    +0.000 C 
ATOM     24  C   UNL     1      46.442   3.173   6.549  0.00  0.00    +0.000 C 
ATOM     25  C   UNL     1      45.937   3.493   7.590  0.00  0.00    +0.000 C 
ENDBRANCH  17  25
ENDBRANCH  16  21
ENDBRANCH   1  16
TORSDOF 4
ENDMDL
MODEL 2
REMARK VINA RESULT:    -7.365      3.364      7.759
REMARK INTER + INTRA:          -9.984
REMARK INTER:                  -9.345
REMARK INTRA:                  -0.639
REMARK UNBOUND:                -0.897
REMARK  Name = 
REMARK  5 active torsions:
REMARK  status: ('A' for Active; 'I' for Inactive)
REMARK    1  A    between atoms: C_1  and  C_2
REMARK    2  A    between atoms: C_3  and  C_4
REMARK    3  A    between atoms: C_8  and  C_9
REMARK    4  A    between atoms: C_9  and  N_10
REMARK    5  A    between atoms: C_11  and  C_13
REMARK                            x       y       z     vdW  Elec       q    Type
REMARK                         _______ _______ _______ _____ _____    ______ ____
ROOT
ATOM      1  N   UNL     1      46.867   4.461  15.818  0.00  0.00    +0.000 N 
ATOM      2  C   UNL     1      46.899   4.203  14.472  0.00  0.00    +0.000 C 
ATOM      3  O   UNL     1      47.277   3.128  14.017  0.00  0.00    +0.000 OA
ATOM      4  H   UNL     1      46.784   5.422  16.136  0.00  0.00    +0.000 HD
ENDROOT
BRANCH   2   5
ATOM      5  C   UNL     1      46.384   5.263  13.596  0.00  0.00    +0.000 A 
ATOM      6  C   UNL     1      47.149   6.400  13.366  0.00  0.00    +0.000 A 
ATOM      7  S   UNL     1      46.421   7.507  12.293  0.00  0.00    +0.000 S 
ATOM      8  C   UNL     1      45.034   6.533  12.142  0.00  0.00    +0.000 A 
ATOM      9  N   UNL     1      43.986   6.925  11.366  0.00  0.00    +0.000 NA
ATOM     10  C   UNL     1      42.991   6.103  11.364  0.00  0.00    +0.000 A 
ATOM     11  N   UNL     1      42.950   4.922  12.059  0.00  0.00    +0.000 N 
ATOM     12  C   UNL     1      43.998   4.468  12.822  0.00  0.00    +0.000 A 
ATOM     13  O   UNL     1      43.956   3.379  13.385  0.00  0.00    +0.000 OA
ATOM     14  C   UNL     1      45.137   5.367  12.876  0.00  0.00    +0.000 A 
ATOM     15  H   UNL     1      42.145   4.316  11.999  0.00  0.00    +0.000 HD
ENDBRANCH   2   5
BRANCH   1  16
ATOM     16  C   UNL     1      47.320   3.502  16.794  0.00  0.00    +0.000 C 
BRANCH  16  21
ATOM     17  C   UNL     1      51.008   2.790  17.486  0.00  0.00    +0.000 A 
ATOM     18  C   UNL     1      51.509   4.082  17.658  0.00  0.00    +0.000 A 
ATOM     19  C   UNL     1      50.655   5.180  17.576  0.00  0.00    +0.000 A 
ATOM     20  C   UNL     1      49.298   4.991  17.315  0.00  0.00    +0.000 A 
ATOM     21  C   UNL     1      48.779   3.703  17.124  0.00  0.00    +0.000 A 
ATOM     22  C   UNL     1      49.651   2.600  17.214  0.00  0.00    +0.000 A 
BRANCH  17  25
ATOM     23  C   UNL     1      53.789  -0.179  17.896  0.00  0.00    +0.000 C 
ATOM     24  C   UNL     1      52.729   0.816  17.731  0.00  0.00    +0.000 C 
ATOM     25  C   UNL     1      51.905   1.681  17.609  0.00  0.00    +0.000 C 
ENDBRANCH  17  25
ENDBRANCH  16  21
ENDBRANCH   1  16
TORSDOF 4
ENDMDL
MODEL 3
REMARK VINA RESULT:    -6.767      3.432      8.290
REMARK INTER + INTRA:          -9.246
REMARK INTER:                  -8.670
REMARK INTRA:                  -0.576
REMARK UNBOUND:                -0.897
REMARK  Name = 
REMARK  5 active torsions:
REMARK  status: ('A' for Active; 'I' for Inactive)
REMARK    1  A    between atoms: C_1  and  C_2
REMARK    2  A    between atoms: C_3  and  C_4
REMARK    3  A    between atoms: C_8  and  C_9
REMARK    4  A    between atoms: C_9  and  N_10
REMARK    5  A    between atoms: C_11  and  C_13
REMARK                            x       y       z     vdW  Elec       q    Type
REMARK                         _______ _______ _______ _____ _____    ______ ____
ROOT
ATOM      1  N   UNL     1      47.009   4.582  15.561  0.00  0.00    +0.000 N 
ATOM      2  C   UNL     1      46.829   4.280  14.236  0.00  0.00    +0.000 C 
ATOM      3  O   UNL     1      47.139   3.192  13.761  0.00  0.00    +0.000 OA
ATOM      4  H   UNL     1      46.970   5.552  15.858  0.00  0.00    +0.000 HD
ENDROOT
BRANCH   2   5
ATOM      5  C   UNL     1      46.173   5.310  13.419  0.00  0.00    +0.000 A 
ATOM      6  C   UNL     1      46.822   6.514  13.176  0.00  0.00    +0.000 A 
ATOM      7  S   UNL     1      45.939   7.576  12.176  0.00  0.00    +0.000 S 
ATOM      8  C   UNL     1      44.634   6.488  12.080  0.00  0.00    +0.000 A 
ATOM      9  N   UNL     1      43.512   6.803  11.378  0.00  0.00    +0.000 NA
ATOM     10  C   UNL     1      42.592   5.897  11.412  0.00  0.00    +0.000 A 
ATOM     11  N   UNL     1      42.695   4.703  12.077  0.00  0.00    +0.000 N 
ATOM     12  C   UNL     1      43.822   4.326  12.766  0.00  0.00    +0.000 A 
ATOM     13  O   UNL     1      43.908   3.226  13.300  0.00  0.00    +0.000 OA
ATOM     14  C   UNL     1      44.881   5.320  12.776  0.00  0.00    +0.000 A 
ATOM     15  H   UNL     1      41.943   4.031  12.048  0.00  0.00    +0.000 HD
ENDBRANCH   2   5
BRANCH   1  16
ATOM     16  C   UNL     1      47.618   3.656  16.483  0.00  0.00    +0.000 C 
BRANCH  16  21
ATOM     17  C   UNL     1      47.872   6.282  19.245  0.00  0.00    +0.000 A 
ATOM     18  C   UNL     1      48.464   5.544  20.272  0.00  0.00    +0.000 A 
ATOM     19  C   UNL     1      48.804   4.208  20.067  0.00  0.00    +0.000 A 
ATOM     20  C   UNL     1      48.548   3.603  18.836  0.00  0.00    +0.000 A 
ATOM     21  C   UNL     1      47.939   4.324  17.798  0.00  0.00    +0.000 A 
ATOM     22  C   UNL     1      47.604   5.674  18.016  0.00  0.00    +0.000 A 
BRANCH  17  25
ATOM     23  C   UNL     1      46.825  10.132  20.139  0.00  0.00    +0.000 C 
ATOM     24  C   UNL     1      47.251   8.788  19.746  0.00  0.00    +0.000 C 
ATOM     25  C   UNL     1      47.565   7.661  19.477  0.00  0.00    +0.000 C 
ENDBRANCH  17  25
ENDBRANCH  16  21
ENDBRANCH   1  16
TORSDOF 4
ENDMDL
MODEL 4
REMARK VINA RESULT:    -6.764      3.102      7.592
REMARK INTER + INTRA:          -9.242
REMARK INTER:                  -8.486
REMARK INTRA:                  -0.756
REMARK UNBOUND:                -0.897
REMARK  Name = 
REMARK  5 active torsions:
REMARK  status: ('A' for Active; 'I' for Inactive)
REMARK    1  A    between atoms: C_1  and  C_2
REMARK    2  A    between atoms: C_3  and  C_4
REMARK    3  A    between atoms: C_8  and  C_9
REMARK    4  A    between atoms: C_9  and  N_10
REMARK    5  A    between atoms: C_11  and  C_13
REMARK                            x       y       z     vdW  Elec       q    Type
REMARK                         _______ _______ _______ _____ _____    ______ ____
ROOT
ATOM      1  N   UNL     1      47.666   6.441  14.944  0.00  0.00    +0.000 N 
ATOM      2  C   UNL     1      47.796   6.245  13.593  0.00  0.00    +0.000 C 
ATOM      3  O   UNL     1      48.889   6.129  13.048  0.00  0.00    +0.000 OA
ATOM      4  H   UNL     1      46.779   6.770  15.313  0.00  0.00    +0.000 HD
ENDROOT
BRANCH   2   5
ATOM      5  C   UNL     1      46.547   6.107  12.834  0.00  0.00    +0.000 A 
ATOM      6  C   UNL     1      45.955   7.230  12.270  0.00  0.00    +0.000 A 
ATOM      7  S   UNL     1      44.537   6.884  11.388  0.00  0.00    +0.000 S 
ATOM      8  C   UNL     1      44.632   5.231  11.777  0.00  0.00    +0.000 A 
ATOM      9  N   UNL     1      43.685   4.355  11.344  0.00  0.00    +0.000 NA
ATOM     10  C   UNL     1      43.867   3.138  11.734  0.00  0.00    +0.000 A 
ATOM     11  N   UNL     1      44.915   2.715  12.511  0.00  0.00    +0.000 N 
ATOM     12  C   UNL     1      45.915   3.555  12.939  0.00  0.00    +0.000 A 
ATOM     13  O   UNL     1      46.871   3.136  13.582  0.00  0.00    +0.000 OA
ATOM     14  C   UNL     1      45.746   4.942  12.543  0.00  0.00    +0.000 A 
ATOM     15  H   UNL     1      45.007   1.744  12.767  0.00  0.00    +0.000 HD
ENDBRANCH   2   5
BRANCH   1  16
ATOM     16  C   UNL     1      48.808   6.570  15.814  0.00  0.00    +0.000 C 
BRANCH  16  21
ATOM     17  C   UNL     1      50.625   3.842  17.776  0.00  0.00    +0.000 A 
ATOM     18  C   UNL     1      49.604   2.907  17.955  0.00  0.00    +0.000 A 
ATOM     19  C   UNL     1      48.337   3.142  17.422  0.00  0.00    +0.000 A 
ATOM     20  C   UNL     1      48.086   4.318  16.715  0.00  0.00    +0.000 A 
ATOM     21  C   UNL     1      49.094   5.277  16.539  0.00  0.00    +0.000 A 
ATOM     22  C   UNL     1      50.370   5.025  17.077  0.00  0.00    +0.000 A 
BRANCH  17  25
ATOM     23  C   UNL     1      54.199   2.834  19.486  0.00  0.00    +0.000 C 
ATOM     24  C   UNL     1      52.967   3.253  18.816  0.00  0.00    +0.000 C 
ATOM     25  C   UNL     1      51.922   3.555  18.307  0.00  0.00    +0.000 C 
ENDBRANCH  17  25
ENDBRANCH  16  21
ENDBRANCH   1  16
TORSDOF 4
ENDMDL
MODEL 5
REMARK VINA RESULT:    -6.668      3.451      8.376
REMARK INTER + INTRA:          -9.124
REMARK INTER:                  -8.368
REMARK INTRA:                  -0.756
REMARK UNBOUND:                -0.897
REMARK  Name = 
REMARK  5 active torsions:
REMARK  status: ('A' for Active; 'I' for Inactive)
REMARK    1  A    between atoms: C_1  and  C_2
REMARK    2  A    between atoms: C_3  and  C_4
REMARK    3  A    between atoms: C_8  and  C_9
REMARK    4  A    between atoms: C_9  and  N_10
REMARK    5  A    between atoms: C_11  and  C_13
REMARK                            x       y       z     vdW  Elec       q    Type
REMARK                         _______ _______ _______ _____ _____    ______ ____
ROOT
ATOM      1  N   UNL     1      48.018   5.924  15.612  0.00  0.00    +0.000 N 
ATOM      2  C   UNL     1      48.212   6.345  14.321  0.00  0.00    +0.000 C 
ATOM      3  O   UNL     1      49.308   6.708  13.906  0.00  0.00    +0.000 OA
ATOM      4  H   UNL     1      47.072   5.867  15.977  0.00  0.00    +0.000 HD
ENDROOT
BRANCH   2   5
ATOM      5  C   UNL     1      47.046   6.271  13.432  0.00  0.00    +0.000 A 
ATOM      6  C   UNL     1      46.515   7.435  12.892  0.00  0.00    +0.000 A 
ATOM      7  S   UNL     1      45.193   7.164  11.849  0.00  0.00    +0.000 S 
ATOM      8  C   UNL     1      45.248   5.487  12.128  0.00  0.00    +0.000 A 
ATOM      9  N   UNL     1      44.348   4.651  11.540  0.00  0.00    +0.000 NA
ATOM     10  C   UNL     1      44.490   3.408  11.860  0.00  0.00    +0.000 A 
ATOM     11  N   UNL     1      45.453   2.923  12.706  0.00  0.00    +0.000 N 
ATOM     12  C   UNL     1      46.405   3.723  13.291  0.00  0.00    +0.000 A 
ATOM     13  O   UNL     1      47.292   3.252  13.996  0.00  0.00    +0.000 OA
ATOM     14  C   UNL     1      46.278   5.135  12.980  0.00  0.00    +0.000 A 
ATOM     15  H   UNL     1      45.518   1.935  12.900  0.00  0.00    +0.000 HD
ENDBRANCH   2   5
BRANCH   1  16
ATOM     16  C   UNL     1      49.081   5.921  16.586  0.00  0.00    +0.000 C 
BRANCH  16  21
ATOM     17  C   UNL     1      47.557   7.846  19.512  0.00  0.00    +0.000 A 
ATOM     18  C   UNL     1      47.525   6.862  20.501  0.00  0.00    +0.000 A 
ATOM     19  C   UNL     1      48.017   5.585  20.234  0.00  0.00    +0.000 A 
ATOM     20  C   UNL     1      48.536   5.287  18.974  0.00  0.00    +0.000 A 
ATOM     21  C   UNL     1      48.562   6.258  17.963  0.00  0.00    +0.000 A 
ATOM     22  C   UNL     1      48.067   7.545  18.246  0.00  0.00    +0.000 A 
BRANCH  17  25
ATOM     23  C   UNL     1      45.917  11.461  20.490  0.00  0.00    +0.000 C 
ATOM     24  C   UNL     1      46.584  10.213  20.117  0.00  0.00    +0.000 C 
ATOM     25  C   UNL     1      47.074   9.156  19.828  0.00  0.00    +0.000 C 
ENDBRANCH  17  25
ENDBRANCH  16  21
ENDBRANCH   1  16
TORSDOF 4
ENDMDL
MODEL 6
REMARK VINA RESULT:    -6.472      4.589      7.465
REMARK INTER + INTRA:          -8.882
REMARK INTER:                  -8.300
REMARK INTRA:                  -0.582
REMARK UNBOUND:                -0.897
REMARK  Name = 
REMARK  5 active torsions:
REMARK  status: ('A' for Active; 'I' for Inactive)
REMARK    1  A    between atoms: C_1  and  C_2
REMARK    2  A    between atoms: C_3  and  C_4
REMARK    3  A    between atoms: C_8  and  C_9
REMARK    4  A    between atoms: C_9  and  N_10
REMARK    5  A    between atoms: C_11  and  C_13
REMARK                            x       y       z     vdW  Elec       q    Type
REMARK                         _______ _______ _______ _____ _____    ______ ____
ROOT
ATOM      1  N   UNL     1      44.267   7.707  11.074  0.00  0.00    +0.000 N 
ATOM      2  C   UNL     1      45.174   6.747  11.445  0.00  0.00    +0.000 C 
ATOM      3  O   UNL     1      46.294   7.028  11.859  0.00  0.00    +0.000 OA
ATOM      4  H   UNL     1      43.460   7.438  10.519  0.00  0.00    +0.000 HD
ENDROOT
BRANCH   2   5
ATOM      5  C   UNL     1      44.706   5.357  11.390  0.00  0.00    +0.000 A 
ATOM      6  C   UNL     1      44.061   4.802  12.488  0.00  0.00    +0.000 A 
ATOM      7  S   UNL     1      43.546   3.196  12.239  0.00  0.00    +0.000 S 
ATOM      8  C   UNL     1      44.217   3.166  10.676  0.00  0.00    +0.000 A 
ATOM      9  N   UNL     1      44.146   2.046   9.906  0.00  0.00    +0.000 NA
ATOM     10  C   UNL     1      44.719   2.155   8.754  0.00  0.00    +0.000 A 
ATOM     11  N   UNL     1      45.348   3.285   8.298  0.00  0.00    +0.000 N 
ATOM     12  C   UNL     1      45.411   4.450   9.024  0.00  0.00    +0.000 A 
ATOM     13  O   UNL     1      45.929   5.463   8.565  0.00  0.00    +0.000 OA
ATOM     14  C   UNL     1      44.799   4.373  10.338  0.00  0.00    +0.000 A 
ATOM     15  H   UNL     1      45.762   3.308   7.378  0.00  0.00    +0.000 HD
ENDBRANCH   2   5
BRANCH   1  16
ATOM     16  C   UNL     1      44.583   9.113  11.102  0.00  0.00    +0.000 C 
BRANCH  16  21
ATOM     17  C   UNL     1      41.104  10.562  10.482  0.00  0.00    +0.000 A 
ATOM     18  C   UNL     1      41.378  11.529   9.513  0.00  0.00    +0.000 A 
ATOM     19  C   UNL     1      42.678  11.698   9.041  0.00  0.00    +0.000 A 
ATOM     20  C   UNL     1      43.711  10.904   9.541  0.00  0.00    +0.000 A 
ATOM     21  C   UNL     1      43.458   9.939  10.526  0.00  0.00    +0.000 A 
ATOM     22  C   UNL     1      42.139   9.775  10.992  0.00  0.00    +0.000 A 
BRANCH  17  25
ATOM     23  C   UNL     1      37.287  10.308  11.927  0.00  0.00    +0.000 C 
ATOM     24  C   UNL     1      38.633  10.325  11.353  0.00  0.00    +0.000 C 
ATOM     25  C   UNL     1      39.752  10.392  10.922  0.00  0.00    +0.000 C 
ENDBRANCH  17  25
ENDBRANCH  16  21
ENDBRANCH   1  16
TORSDOF 4
ENDMDL
MODEL 7
REMARK VINA RESULT:    -6.168      2.759      3.349
REMARK INTER + INTRA:          -8.507
REMARK INTER:                  -7.871
REMARK INTRA:                  -0.636
REMARK UNBOUND:                -0.897
REMARK  Name = 
REMARK  5 active torsions:
REMARK  status: ('A' for Active; 'I' for Inactive)
REMARK    1  A    between atoms: C_1  and  C_2
REMARK    2  A    between atoms: C_3  and  C_4
REMARK    3  A    between atoms: C_8  and  C_9
REMARK    4  A    between atoms: C_9  and  N_10
REMARK    5  A    between atoms: C_11  and  C_13
REMARK                            x       y       z     vdW  Elec       q    Type
REMARK                         _______ _______ _______ _____ _____    ______ ____
ROOT
ATOM      1  N   UNL     1      44.497   7.159  11.952  0.00  0.00    +0.000 N 
ATOM      2  C   UNL     1      44.765   8.401  11.434  0.00  0.00    +0.000 C 
ATOM      3  O   UNL     1      43.983   8.986  10.692  0.00  0.00    +0.000 OA
ATOM      4  H   UNL     1      45.255   6.615  12.352  0.00  0.00    +0.000 HD
ENDROOT
BRANCH   2   5
ATOM      5  C   UNL     1      46.016   9.031  11.875  0.00  0.00    +0.000 A 
ATOM      6  C   UNL     1      46.093  10.414  11.977  0.00  0.00    +0.000 A 
ATOM      7  S   UNL     1      47.600  10.975  12.544  0.00  0.00    +0.000 S 
ATOM      8  C   UNL     1      48.222   9.393  12.619  0.00  0.00    +0.000 A 
ATOM      9  N   UNL     1      49.504   9.163  13.015  0.00  0.00    +0.000 NA
ATOM     10  C   UNL     1      49.850   7.920  13.000  0.00  0.00    +0.000 A 
ATOM     11  N   UNL     1      49.030   6.884  12.634  0.00  0.00    +0.000 N 
ATOM     12  C   UNL     1      47.719   7.063  12.266  0.00  0.00    +0.000 A 
ATOM     13  O   UNL     1      46.991   6.111  12.002  0.00  0.00    +0.000 OA
ATOM     14  C   UNL     1      47.284   8.448  12.246  0.00  0.00    +0.000 A 
ATOM     15  H   UNL     1      49.360   5.931  12.661  0.00  0.00    +0.000 HD
ENDBRANCH   2   5
BRANCH   1  16
ATOM     16  C   UNL     1      43.295   6.435  11.623  0.00  0.00    +0.000 C 
BRANCH  16  21
ATOM     17  C   UNL     1      44.718   3.654   9.424  0.00  0.00    +0.000 A 
ATOM     18  C   UNL     1      44.274   2.516  10.099  0.00  0.00    +0.000 A 
ATOM     19  C   UNL     1      43.495   2.643  11.249  0.00  0.00    +0.000 A 
ATOM     20  C   UNL     1      43.164   3.910  11.730  0.00  0.00    +0.000 A 
ATOM     21  C   UNL     1      43.614   5.064  11.075  0.00  0.00    +0.000 A 
ATOM     22  C   UNL     1      44.396   4.923   9.912  0.00  0.00    +0.000 A 
BRANCH  17  25
ATOM     23  C   UNL     1      46.697   3.008   5.905  0.00  0.00    +0.000 C 
ATOM     24  C   UNL     1      46.062   3.293   7.192  0.00  0.00    +0.000 C 
ATOM     25  C   UNL     1      45.488   3.490   8.229  0.00  0.00    +0.000 C 
ENDBRANCH  17  25
ENDBRANCH  16  21
ENDBRANCH   1  16
TORSDOF 4
ENDMDL
MODEL 8
REMARK VINA RESULT:    -6.122      3.568      6.622
REMARK INTER + INTRA:          -8.450
REMARK INTER:                  -7.813
REMARK INTRA:                  -0.637
REMARK UNBOUND:                -0.897
REMARK  Name = 
REMARK  5 active torsions:
REMARK  status: ('A' for Active; 'I' for Inactive)
REMARK    1  A    between atoms: C_1  and  C_2
REMARK    2  A    between atoms: C_3  and  C_4
REMARK    3  A    between atoms: C_8  and  C_9
REMARK    4  A    between atoms: C_9  and  N_10
REMARK    5  A    between atoms: C_11  and  C_13
REMARK                            x       y       z     vdW  Elec       q    Type
REMARK                         _______ _______ _______ _____ _____    ______ ____
ROOT
ATOM      1  N   UNL     1      46.309   7.010  12.118  0.00  0.00    +0.000 N 
ATOM      2  C   UNL     1      45.051   6.777  11.623  0.00  0.00    +0.000 C 
ATOM      3  O   UNL     1      44.311   7.684  11.256  0.00  0.00    +0.000 OA
ATOM      4  H   UNL     1      46.785   6.273  12.628  0.00  0.00    +0.000 HD
ENDROOT
BRANCH   2   5
ATOM      5  C   UNL     1      44.659   5.369  11.487  0.00  0.00    +0.000 A 
ATOM      6  C   UNL     1      43.976   4.740  12.520  0.00  0.00    +0.000 A 
ATOM      7  S   UNL     1      43.559   3.122  12.179  0.00  0.00    +0.000 S 
ATOM      8  C   UNL     1      44.327   3.187  10.662  0.00  0.00    +0.000 A 
ATOM      9  N   UNL     1      44.361   2.097   9.848  0.00  0.00    +0.000 NA
ATOM     10  C   UNL     1      44.998   2.280   8.740  0.00  0.00    +0.000 A 
ATOM     11  N   UNL     1      45.597   3.456   8.368  0.00  0.00    +0.000 N 
ATOM     12  C   UNL     1      45.555   4.592   9.139  0.00  0.00    +0.000 A 
ATOM     13  O   UNL     1      46.048   5.647   8.752  0.00  0.00    +0.000 OA
ATOM     14  C   UNL     1      44.867   4.434  10.407  0.00  0.00    +0.000 A 
ATOM     15  H   UNL     1      46.065   3.536   7.478  0.00  0.00    +0.000 HD
ENDBRANCH   2   5
BRANCH   1  16
ATOM     16  C   UNL     1      46.833   8.343  12.284  0.00  0.00    +0.000 C 
BRANCH  16  21
ATOM     17  C   UNL     1      50.576   7.929  11.647  0.00  0.00    +0.000 A 
ATOM     18  C   UNL     1      51.110   8.357  12.863  0.00  0.00    +0.000 A 
ATOM     19  C   UNL     1      50.265   8.754  13.898  0.00  0.00    +0.000 A 
ATOM     20  C   UNL     1      48.882   8.732  13.716  0.00  0.00    +0.000 A 
ATOM     21  C   UNL     1      48.327   8.322  12.496  0.00  0.00    +0.000 A 
ATOM     22  C   UNL     1      49.191   7.918  11.460  0.00  0.00    +0.000 A 
BRANCH  17  25
ATOM     23  C   UNL     1      52.970   6.859   8.510  0.00  0.00    +0.000 C 
ATOM     24  C   UNL     1      52.167   7.187   9.688  0.00  0.00    +0.000 C 
ATOM     25  C   UNL     1      51.470   7.496  10.616  0.00  0.00    +0.000 C 
ENDBRANCH  17  25
ENDBRANCH  16  21
ENDBRANCH   1  16
TORSDOF 4
ENDMDL
MODEL 9
REMARK VINA RESULT:    -6.094      3.355      8.309
REMARK INTER + INTRA:          -8.416
REMARK INTER:                  -7.936
REMARK INTRA:                  -0.480
REMARK UNBOUND:                -0.897
REMARK  Name = 
REMARK  5 active torsions:
REMARK  status: ('A' for Active; 'I' for Inactive)
REMARK    1  A    between atoms: C_1  and  C_2
REMARK    2  A    between atoms: C_3  and  C_4
REMARK    3  A    between atoms: C_8  and  C_9
REMARK    4  A    between atoms: C_9  and  N_10
REMARK    5  A    between atoms: C_11  and  C_13
REMARK                            x       y       z     vdW  Elec       q    Type
REMARK                         _______ _______ _______ _____ _____    ______ ____
ROOT
ATOM      1  N   UNL     1      47.724   7.521  14.616  0.00  0.00    +0.000 N 
ATOM      2  C   UNL     1      47.840   6.678  13.540  0.00  0.00    +0.000 C 
ATOM      3  O   UNL     1      48.907   6.163  13.221  0.00  0.00    +0.000 OA
ATOM      4  H   UNL     1      46.899   8.106  14.699  0.00  0.00    +0.000 HD
ENDROOT
BRANCH   2   5
ATOM      5  C   UNL     1      46.597   6.363  12.826  0.00  0.00    +0.000 A 
ATOM      6  C   UNL     1      45.868   7.383  12.226  0.00  0.00    +0.000 A 
ATOM      7  S   UNL     1      44.478   6.837  11.404  0.00  0.00    +0.000 S 
ATOM      8  C   UNL     1      44.770   5.226  11.867  0.00  0.00    +0.000 A 
ATOM      9  N   UNL     1      43.918   4.229  11.504  0.00  0.00    +0.000 NA
ATOM     10  C   UNL     1      44.247   3.061  11.945  0.00  0.00    +0.000 A 
ATOM     11  N   UNL     1      45.354   2.798  12.710  0.00  0.00    +0.000 N 
ATOM     12  C   UNL     1      46.262   3.765  13.068  0.00  0.00    +0.000 A 
ATOM     13  O   UNL     1      47.275   3.489  13.702  0.00  0.00    +0.000 OA
ATOM     14  C   UNL     1      45.927   5.102  12.613  0.00  0.00    +0.000 A 
ATOM     15  H   UNL     1      45.562   1.857  13.008  0.00  0.00    +0.000 HD
ENDBRANCH   2   5
BRANCH   1  16
ATOM     16  C   UNL     1      48.859   7.897  15.422  0.00  0.00    +0.000 C 
BRANCH  16  21
ATOM     17  C   UNL     1      47.865   7.986  19.109  0.00  0.00    +0.000 A 
ATOM     18  C   UNL     1      47.694   9.356  19.314  0.00  0.00    +0.000 A 
ATOM     19  C   UNL     1      47.874  10.249  18.259  0.00  0.00    +0.000 A 
ATOM     20  C   UNL     1      48.233   9.776  16.997  0.00  0.00    +0.000 A 
ATOM     21  C   UNL     1      48.424   8.405  16.776  0.00  0.00    +0.000 A 
ATOM     22  C   UNL     1      48.235   7.511  17.848  0.00  0.00    +0.000 A 
BRANCH  17  25
ATOM     23  C   UNL     1      47.522   5.434  22.285  0.00  0.00    +0.000 C 
ATOM     24  C   UNL     1      47.551   6.342  21.138  0.00  0.00    +0.000 C 
ATOM     25  C   UNL     1      47.641   7.092  20.204  0.00  0.00    +0.000 C 
ENDBRANCH  17  25
ENDBRANCH  16  21
ENDBRANCH   1  16
TORSDOF 4
ENDMDL
