MODEL 1
REMARK VINA RESULT:    -8.675      0.000      0.000
REMARK INTER + INTRA:         -12.425
REMARK INTER:                 -11.211
REMARK INTRA:                  -1.214
REMARK UNBOUND:                -1.214
REMARK  Name = 
REMARK  6 active torsions:
REMARK  status: ('A' for Active; 'I' for Inactive)
REMARK    1  A    between atoms: C_1  and  C_2
REMARK    2  A    between atoms: C_2  and  N_3
REMARK    3  A    between atoms: C_2  and  C_16
REMARK    4  A    between atoms: C_4  and  C_6
REMARK    5  A    between atoms: C_19  and  C_20
REMARK    6  A    between atoms: C_20  and  C_21
REMARK                            x       y       z     vdW  Elec       q    Type
REMARK                         _______ _______ _______ _____ _____    ______ ____
ROOT
ATOM      1  C   UNL     1      43.837   2.510  11.026  0.00  0.00    +0.000 C 
ATOM      2  C   UNL     1      44.149   3.639  10.037  0.00  0.00    +0.000 C 
ENDROOT
BRANCH   2   3
ATOM      3  C   UNL     1      45.056   3.125   8.926  0.00  0.00    +0.000 A 
ATOM      4  C   UNL     1      45.585   4.000   7.969  0.00  0.00    +0.000 A 
ATOM      5  C   UNL     1      46.456   3.531   6.981  0.00  0.00    +0.000 A 
ATOM      6  C   UNL     1      46.832   2.180   6.936  0.00  0.00    +0.000 A 
ATOM      7  C   UNL     1      46.289   1.301   7.877  0.00  0.00    +0.000 A 
ATOM      8  C   UNL     1      45.408   1.767   8.856  0.00  0.00    +0.000 A 
BRANCH   6   9
ATOM      9  C   UNL     1      47.814   1.678   5.900  0.00  0.00    +0.000 C 
BRANCH   9  10
ATOM     10  C   UNL     1      47.202   0.959   4.715  0.00  0.00    +0.000 A 
ATOM     11  C   UNL     1      46.361   1.626   3.825  0.00  0.00    +0.000 A 
ATOM     12  C   UNL     1      45.732   0.908   2.812  0.00  0.00    +0.000 A 
ATOM     13  C   UNL     1      45.952  -0.459   2.709  0.00  0.00    +0.000 A 
ATOM     14  C   UNL     1      46.809  -1.048   3.622  0.00  0.00    +0.000 A 
ATOM     15  N   UNL     1      47.433  -0.376   4.616  0.00  0.00    +0.000 NA
ENDBRANCH   9  10
ENDBRANCH   6   9
ENDBRANCH   2   3
BRANCH   2  16
ATOM     16  N   UNL     1      44.778   4.792  10.666  0.00  0.00    +0.000 N 
ATOM     17  C   UNL     1      44.073   5.813  11.251  0.00  0.00    +0.000 C 
ATOM     18  O   UNL     1      42.847   5.803  11.344  0.00  0.00    +0.000 OA
ATOM     19  H   UNL     1      45.725   4.995  10.357  0.00  0.00    +0.000 HD
BRANCH  17  20
ATOM     20  C   UNL     1      44.861   6.908  11.826  0.00  0.00    +0.000 A 
ATOM     21  C   UNL     1      44.610   8.215  11.429  0.00  0.00    +0.000 A 
ATOM     22  S   UNL     1      45.615   9.366  12.185  0.00  0.00    +0.000 S 
ATOM     23  C   UNL     1      46.449   8.154  13.041  0.00  0.00    +0.000 A 
ATOM     24  N   UNL     1      47.490   8.466  13.859  0.00  0.00    +0.000 NA
ATOM     25  C   UNL     1      48.046   7.448  14.425  0.00  0.00    +0.000 A 
ATOM     26  N   UNL     1      47.647   6.147  14.257  0.00  0.00    +0.000 N 
ATOM     27  C   UNL     1      46.583   5.786  13.463  0.00  0.00    +0.000 A 
ATOM     28  O   UNL     1      46.217   4.621  13.371  0.00  0.00    +0.000 OA
ATOM     29  C   UNL     1      45.942   6.893  12.781  0.00  0.00    +0.000 A 
ATOM     30  H   UNL     1      48.112   5.396  14.748  0.00  0.00    +0.000 HD
ENDBRANCH  17  20
ENDBRANCH   2  16
TORSDOF 5
ENDMDL
MODEL 2
REMARK VINA RESULT:    -8.075      2.694      4.806
REMARK INTER + INTRA:         -11.650
REMARK INTER:                 -10.832
REMARK INTRA:                  -0.817
REMARK UNBOUND:                -1.214
REMARK  Name = 
REMARK  6 active torsions:
REMARK  status: ('A' for Active; 'I' for Inactive)
REMARK    1  A    between atoms: C_1  and  C_2
REMARK    2  A    between atoms: C_2  and  N_3
REMARK    3  A    between atoms: C_2  and  C_16
REMARK    4  A    between atoms: C_4  and  C_6
REMARK    5  A    between atoms: C_19  and  C_20
REMARK    6  A    between atoms: C_20  and  C_21
REMARK                            x       y       z     vdW  Elec       q    Type
REMARK                         _______ _______ _______ _____ _____    ______ ____
ROOT
ATOM      1  C   UNL     1      45.004   8.557  12.545  0.00  0.00    +0.000 C 
ATOM      2  C   UNL     1      46.224   7.645  12.367  0.00  0.00    +0.000 C 
ENDROOT
BRANCH   2   3
ATOM      3  C   UNL     1      45.846   6.424  11.537  0.00  0.00    +0.000 A 
ATOM      4  C   UNL     1      45.074   5.393  12.088  0.00  0.00    +0.000 A 
ATOM      5  C   UNL     1      44.690   4.299  11.308  0.00  0.00    +0.000 A 
ATOM      6  C   UNL     1      45.054   4.216   9.955  0.00  0.00    +0.000 A 
ATOM      7  C   UNL     1      45.842   5.233   9.409  0.00  0.00    +0.000 A 
ATOM      8  C   UNL     1      46.237   6.320  10.192  0.00  0.00    +0.000 A 
BRANCH   6   9
ATOM      9  C   UNL     1      44.597   3.059   9.093  0.00  0.00    +0.000 C 
BRANCH   9  10
ATOM     10  C   UNL     1      45.634   2.510   8.136  0.00  0.00    +0.000 A 
ATOM     11  C   UNL     1      46.030   3.234   7.011  0.00  0.00    +0.000 A 
ATOM     12  C   UNL     1      46.904   2.651   6.098  0.00  0.00    +0.000 A 
ATOM     13  C   UNL     1      47.363   1.360   6.322  0.00  0.00    +0.000 A 
ATOM     14  C   UNL     1      46.935   0.710   7.466  0.00  0.00    +0.000 A 
ATOM     15  N   UNL     1      46.086   1.250   8.370  0.00  0.00    +0.000 NA
ENDBRANCH   9  10
ENDBRANCH   6   9
ENDBRANCH   2   3
BRANCH   2  16
ATOM     16  N   UNL     1      46.794   7.200  13.631  0.00  0.00    +0.000 N 
ATOM     17  C   UNL     1      48.113   6.856  13.786  0.00  0.00    +0.000 C 
ATOM     18  O   UNL     1      48.935   6.957  12.877  0.00  0.00    +0.000 OA
ATOM     19  H   UNL     1      46.130   6.819  14.299  0.00  0.00    +0.000 HD
BRANCH  17  20
ATOM     20  C   UNL     1      48.521   6.414  15.123  0.00  0.00    +0.000 A 
ATOM     21  C   UNL     1      49.485   7.134  15.817  0.00  0.00    +0.000 A 
ATOM     22  S   UNL     1      49.851   6.487  17.352  0.00  0.00    +0.000 S 
ATOM     23  C   UNL     1      48.761   5.198  17.127  0.00  0.00    +0.000 A 
ATOM     24  N   UNL     1      48.619   4.230  18.071  0.00  0.00    +0.000 NA
ATOM     25  C   UNL     1      47.779   3.301  17.758  0.00  0.00    +0.000 A 
ATOM     26  N   UNL     1      47.058   3.260  16.593  0.00  0.00    +0.000 N 
ATOM     27  C   UNL     1      47.148   4.231  15.622  0.00  0.00    +0.000 A 
ATOM     28  O   UNL     1      46.455   4.195  14.612  0.00  0.00    +0.000 OA
ATOM     29  C   UNL     1      48.101   5.283  15.914  0.00  0.00    +0.000 A 
ATOM     30  H   UNL     1      46.399   2.515  16.419  0.00  0.00    +0.000 HD
ENDBRANCH  17  20
ENDBRANCH   2  16
TORSDOF 5
ENDMDL
MODEL 3
REMARK VINA RESULT:    -7.530      3.290      5.224
REMARK INTER + INTRA:         -10.945
REMARK INTER:                 -10.036
REMARK INTRA:                  -0.909
REMARK UNBOUND:                -1.214
REMARK  Name = 
REMARK  6 active torsions:
REMARK  status: ('A' for Active; 'I' for Inactive)
REMARK    1  A    between atoms: C_1  and  C_2
REMARK    2  A    between atoms: C_2  and  N_3
REMARK    3  A    between atoms: C_2  and  C_16
REMARK    4  A    between atoms: C_4  and  C_6
REMARK    5  A    between atoms: C_19  and  C_20
REMARK    6  A    between atoms: C_20  and  C_21
REMARK                            x       y       z     vdW  Elec       q    Type
REMARK                         _______ _______ _______ _____ _____    ______ ____
ROOT
ATOM      1  C   UNL     1      45.453   8.129  12.904  0.00  0.00    +0.000 C 
ATOM      2  C   UNL     1      46.466   6.984  12.788  0.00  0.00    +0.000 C 
ENDROOT
BRANCH   2   3
ATOM      3  C   UNL     1      46.018   5.995  11.719  0.00  0.00    +0.000 A 
ATOM      4  C   UNL     1      45.318   4.832  12.066  0.00  0.00    +0.000 A 
ATOM      5  C   UNL     1      44.867   3.953  11.078  0.00  0.00    +0.000 A 
ATOM      6  C   UNL     1      45.089   4.223   9.719  0.00  0.00    +0.000 A 
ATOM      7  C   UNL     1      45.805   5.372   9.371  0.00  0.00    +0.000 A 
ATOM      8  C   UNL     1      46.268   6.244  10.359  0.00  0.00    +0.000 A 
BRANCH   6   9
ATOM      9  C   UNL     1      44.557   3.300   8.643  0.00  0.00    +0.000 C 
BRANCH   9  10
ATOM     10  C   UNL     1      45.603   2.686   7.735  0.00  0.00    +0.000 A 
ATOM     11  C   UNL     1      46.252   1.502   8.083  0.00  0.00    +0.000 A 
ATOM     12  C   UNL     1      47.283   1.027   7.277  0.00  0.00    +0.000 A 
ATOM     13  C   UNL     1      47.646   1.742   6.144  0.00  0.00    +0.000 A 
ATOM     14  C   UNL     1      46.948   2.902   5.858  0.00  0.00    +0.000 A 
ATOM     15  N   UNL     1      45.944   3.388   6.623  0.00  0.00    +0.000 NA
ENDBRANCH   9  10
ENDBRANCH   6   9
ENDBRANCH   2   3
BRANCH   2  16
ATOM     16  N   UNL     1      46.666   6.269  14.041  0.00  0.00    +0.000 N 
ATOM     17  C   UNL     1      47.902   5.930  14.529  0.00  0.00    +0.000 C 
ATOM     18  O   UNL     1      48.948   6.261  13.974  0.00  0.00    +0.000 OA
ATOM     19  H   UNL     1      45.870   5.726  14.365  0.00  0.00    +0.000 HD
BRANCH  17  20
ATOM     20  C   UNL     1      47.925   5.197  15.799  0.00  0.00    +0.000 A 
ATOM     21  C   UNL     1      47.395   3.915  15.859  0.00  0.00    +0.000 A 
ATOM     22  S   UNL     1      47.493   3.203  17.405  0.00  0.00    +0.000 S 
ATOM     23  C   UNL     1      48.214   4.600  18.060  0.00  0.00    +0.000 A 
ATOM     24  N   UNL     1      48.522   4.673  19.383  0.00  0.00    +0.000 NA
ATOM     25  C   UNL     1      49.040   5.798  19.747  0.00  0.00    +0.000 A 
ATOM     26  N   UNL     1      49.289   6.852  18.906  0.00  0.00    +0.000 N 
ATOM     27  C   UNL     1      49.020   6.814  17.557  0.00  0.00    +0.000 A 
ATOM     28  O   UNL     1      49.298   7.752  16.820  0.00  0.00    +0.000 OA
ATOM     29  C   UNL     1      48.410   5.580  17.103  0.00  0.00    +0.000 A 
ATOM     30  H   UNL     1      49.717   7.699  19.251  0.00  0.00    +0.000 HD
ENDBRANCH  17  20
ENDBRANCH   2  16
TORSDOF 5
ENDMDL
MODEL 4
REMARK VINA RESULT:    -7.433      3.785      6.553
REMARK INTER + INTRA:         -10.819
REMARK INTER:                  -9.713
REMARK INTRA:                  -1.106
REMARK UNBOUND:                -1.214
REMARK  Name = 
REMARK  6 active torsions:
REMARK  status: ('A' for Active; 'I' for Inactive)
REMARK    1  A    between atoms: C_1  and  C_2
REMARK    2  A    between atoms: C_2  and  N_3
REMARK    3  A    between atoms: C_2  and  C_16
REMARK    4  A    between atoms: C_4  and  C_6
REMARK    5  A    between atoms: C_19  and  C_20
REMARK    6  A    between atoms: C_20  and  C_21
REMARK                            x       y       z     vdW  Elec       q    Type
REMARK                         _______ _______ _______ _____ _____    ______ ____
ROOT
ATOM      1  C   UNL     1      47.855   8.901  13.881  0.00  0.00    +0.000 C 
ATOM      2  C   UNL     1      48.095   7.387  13.903  0.00  0.00    +0.000 C 
ENDROOT
BRANCH   2   3
ATOM      3  C   UNL     1      47.086   6.684  13.005  0.00  0.00    +0.000 A 
ATOM      4  C   UNL     1      46.615   7.297  11.837  0.00  0.00    +0.000 A 
ATOM      5  C   UNL     1      45.726   6.628  10.991  0.00  0.00    +0.000 A 
ATOM      6  C   UNL     1      45.301   5.322  11.283  0.00  0.00    +0.000 A 
ATOM      7  C   UNL     1      45.754   4.715  12.458  0.00  0.00    +0.000 A 
ATOM      8  C   UNL     1      46.631   5.390  13.310  0.00  0.00    +0.000 A 
BRANCH   6   9
ATOM      9  C   UNL     1      44.380   4.574  10.344  0.00  0.00    +0.000 C 
BRANCH   9  10
ATOM     10  C   UNL     1      45.068   3.768   9.261  0.00  0.00    +0.000 A 
ATOM     11  C   UNL     1      45.166   2.379   9.350  0.00  0.00    +0.000 A 
ATOM     12  C   UNL     1      45.899   1.684   8.393  0.00  0.00    +0.000 A 
ATOM     13  C   UNL     1      46.520   2.386   7.369  0.00  0.00    +0.000 A 
ATOM     14  C   UNL     1      46.367   3.761   7.340  0.00  0.00    +0.000 A 
ATOM     15  N   UNL     1      45.663   4.463   8.257  0.00  0.00    +0.000 NA
ENDBRANCH   9  10
ENDBRANCH   6   9
ENDBRANCH   2   3
BRANCH   2  16
ATOM     16  N   UNL     1      48.016   6.817  15.241  0.00  0.00    +0.000 N 
ATOM     17  C   UNL     1      49.115   6.409  15.956  0.00  0.00    +0.000 C 
ATOM     18  O   UNL     1      50.264   6.554  15.544  0.00  0.00    +0.000 OA
ATOM     19  H   UNL     1      47.120   6.406  15.488  0.00  0.00    +0.000 HD
BRANCH  17  20
ATOM     20  C   UNL     1      48.858   5.841  17.283  0.00  0.00    +0.000 A 
ATOM     21  C   UNL     1      49.067   4.486  17.500  0.00  0.00    +0.000 A 
ATOM     22  S   UNL     1      48.717   3.984  19.091  0.00  0.00    +0.000 S 
ATOM     23  C   UNL     1      48.235   5.555  19.537  0.00  0.00    +0.000 A 
ATOM     24  N   UNL     1      47.767   5.814  20.788  0.00  0.00    +0.000 NA
ATOM     25  C   UNL     1      47.415   7.041  20.980  0.00  0.00    +0.000 A 
ATOM     26  N   UNL     1      47.500   8.035  20.039  0.00  0.00    +0.000 N 
ATOM     27  C   UNL     1      47.993   7.826  18.772  0.00  0.00    +0.000 A 
ATOM     28  O   UNL     1      48.104   8.743  17.967  0.00  0.00    +0.000 OA
ATOM     29  C   UNL     1      48.376   6.456  18.496  0.00  0.00    +0.000 A 
ATOM     30  H   UNL     1      47.228   8.982  20.262  0.00  0.00    +0.000 HD
ENDBRANCH  17  20
ENDBRANCH   2  16
TORSDOF 5
ENDMDL
MODEL 5
REMARK VINA RESULT:    -7.430      2.634      4.130
REMARK INTER + INTRA:         -10.816
REMARK INTER:                  -9.827
REMARK INTRA:                  -0.989
REMARK UNBOUND:                -1.214
REMARK  Name = 
REMARK  6 active torsions:
REMARK  status: ('A' for Active; 'I' for Inactive)
REMARK    1  A    between atoms: C_1  and  C_2
REMARK    2  A    between atoms: C_2  and  N_3
REMARK    3  A    between atoms: C_2  and  C_16
REMARK    4  A    between atoms: C_4  and  C_6
REMARK    5  A    between atoms: C_19  and  C_20
REMARK    6  A    between atoms: C_20  and  C_21
REMARK                            x       y       z     vdW  Elec       q    Type
REMARK                         _______ _______ _______ _____ _____    ______ ____
ROOT
ATOM      1  C   UNL     1      46.595   4.635  14.436  0.00  0.00    +0.000 C 
ATOM      2  C   UNL     1      46.212   5.743  13.447  0.00  0.00    +0.000 C 
ENDROOT
BRANCH   2   3
ATOM      3  C   UNL     1      45.752   5.131  12.129  0.00  0.00    +0.000 A 
ATOM      4  C   UNL     1      45.922   5.818  10.921  0.00  0.00    +0.000 A 
ATOM      5  C   UNL     1      45.542   5.232   9.710  0.00  0.00    +0.000 A 
ATOM      6  C   UNL     1      44.999   3.939   9.676  0.00  0.00    +0.000 A 
ATOM      7  C   UNL     1      44.810   3.258  10.882  0.00  0.00    +0.000 A 
ATOM      8  C   UNL     1      45.176   3.850  12.094  0.00  0.00    +0.000 A 
BRANCH   6   9
ATOM      9  C   UNL     1      44.635   3.280   8.363  0.00  0.00    +0.000 C 
BRANCH   9  10
ATOM     10  C   UNL     1      45.791   2.668   7.598  0.00  0.00    +0.000 A 
ATOM     11  C   UNL     1      46.303   3.283   6.456  0.00  0.00    +0.000 A 
ATOM     12  C   UNL     1      47.292   2.638   5.719  0.00  0.00    +0.000 A 
ATOM     13  C   UNL     1      47.747   1.394   6.134  0.00  0.00    +0.000 A 
ATOM     14  C   UNL     1      47.200   0.853   7.284  0.00  0.00    +0.000 A 
ATOM     15  N   UNL     1      46.238   1.456   8.019  0.00  0.00    +0.000 NA
ENDBRANCH   9  10
ENDBRANCH   6   9
ENDBRANCH   2   3
BRANCH   2  16
ATOM     16  N   UNL     1      47.301   6.673  13.182  0.00  0.00    +0.000 N 
ATOM     17  C   UNL     1      47.140   8.035  13.147  0.00  0.00    +0.000 C 
ATOM     18  O   UNL     1      46.069   8.582  13.400  0.00  0.00    +0.000 OA
ATOM     19  H   UNL     1      48.096   6.283  12.682  0.00  0.00    +0.000 HD
BRANCH  17  20
ATOM     20  C   UNL     1      48.337   8.828  12.850  0.00  0.00    +0.000 A 
ATOM     21  C   UNL     1      48.242   9.920  11.998  0.00  0.00    +0.000 A 
ATOM     22  S   UNL     1      49.722  10.730  11.753  0.00  0.00    +0.000 S 
ATOM     23  C   UNL     1      50.552   9.625  12.747  0.00  0.00    +0.000 A 
ATOM     24  N   UNL     1      51.896   9.724  12.931  0.00  0.00    +0.000 NA
ATOM     25  C   UNL     1      52.398   8.806  13.689  0.00  0.00    +0.000 A 
ATOM     26  N   UNL     1      51.675   7.806  14.288  0.00  0.00    +0.000 N 
ATOM     27  C   UNL     1      50.311   7.684  14.153  0.00  0.00    +0.000 A 
ATOM     28  O   UNL     1      49.685   6.810  14.740  0.00  0.00    +0.000 OA
ATOM     29  C   UNL     1      49.704   8.675  13.288  0.00  0.00    +0.000 A 
ATOM     30  H   UNL     1      52.127   7.131  14.888  0.00  0.00    +0.000 HD
ENDBRANCH  17  20
ENDBRANCH   2  16
TORSDOF 5
ENDMDL
MODEL 6
REMARK VINA RESULT:    -7.204      3.323      6.311
REMARK INTER + INTRA:         -10.524
REMARK INTER:                  -9.375
REMARK INTRA:                  -1.150
REMARK UNBOUND:                -1.214
REMARK  Name = 
REMARK  6 active torsions:
REMARK  status: ('A' for Active; 'I' for Inactive)
REMARK    1  A    between atoms: C_1  and  C_2
REMARK    2  A    between atoms: C_2  and  N_3
REMARK    3  A    between atoms: C_2  and  C_16
REMARK    4  A    between atoms: C_4  and  C_6
REMARK    5  A    between atoms: C_19  and  C_20
REMARK    6  A    between atoms: C_20  and  C_21
REMARK                            x       y       z     vdW  Elec       q    Type
REMARK                         _______ _______ _______ _____ _____    ______ ____
ROOT
ATOM      1  C   UNL     1      47.459   9.507  13.514  0.00  0.00    +0.000 C 
ATOM      2  C   UNL     1      47.899   8.038  13.511  0.00  0.00    +0.000 C 
ENDROOT
BRANCH   2   3
ATOM      3  C   UNL     1      46.886   7.190  12.754  0.00  0.00    +0.000 A 
ATOM      4  C   UNL     1      45.857   7.788  12.016  0.00  0.00    +0.000 A 
ATOM      5  C   UNL     1      44.960   7.006  11.283  0.00  0.00    +0.000 A 
ATOM      6  C   UNL     1      45.080   5.608  11.256  0.00  0.00    +0.000 A 
ATOM      7  C   UNL     1      46.094   5.007  12.007  0.00  0.00    +0.000 A 
ATOM      8  C   UNL     1      46.982   5.788  12.751  0.00  0.00    +0.000 A 
BRANCH   6   9
ATOM      9  C   UNL     1      44.143   4.761  10.423  0.00  0.00    +0.000 C 
BRANCH   9  10
ATOM     10  C   UNL     1      44.811   3.867   9.397  0.00  0.00    +0.000 A 
ATOM     11  C   UNL     1      44.808   2.480   9.542  0.00  0.00    +0.000 A 
ATOM     12  C   UNL     1      45.524   1.699   8.638  0.00  0.00    +0.000 A 
ATOM     13  C   UNL     1      46.227   2.316   7.613  0.00  0.00    +0.000 A 
ATOM     14  C   UNL     1      46.172   3.696   7.528  0.00  0.00    +0.000 A 
ATOM     15  N   UNL     1      45.487   4.480   8.391  0.00  0.00    +0.000 NA
ENDBRANCH   9  10
ENDBRANCH   6   9
ENDBRANCH   2   3
BRANCH   2  16
ATOM     16  N   UNL     1      48.068   7.491  14.850  0.00  0.00    +0.000 N 
ATOM     17  C   UNL     1      49.284   7.122  15.369  0.00  0.00    +0.000 C 
ATOM     18  O   UNL     1      50.340   7.285  14.761  0.00  0.00    +0.000 OA
ATOM     19  H   UNL     1      47.239   7.065  15.255  0.00  0.00    +0.000 HD
BRANCH  17  20
ATOM     20  C   UNL     1      49.275   6.573  16.729  0.00  0.00    +0.000 A 
ATOM     21  C   UNL     1      49.844   7.302  17.765  0.00  0.00    +0.000 A 
ATOM     22  S   UNL     1      49.758   6.523  19.279  0.00  0.00    +0.000 S 
ATOM     23  C   UNL     1      48.991   5.165  18.596  0.00  0.00    +0.000 A 
ATOM     24  N   UNL     1      48.673   4.085  19.359  0.00  0.00    +0.000 NA
ATOM     25  C   UNL     1      48.120   3.117  18.707  0.00  0.00    +0.000 A 
ATOM     26  N   UNL     1      47.844   3.138  17.364  0.00  0.00    +0.000 N 
ATOM     27  C   UNL     1      48.122   4.218  16.559  0.00  0.00    +0.000 A 
ATOM     28  O   UNL     1      47.820   4.228  15.372  0.00  0.00    +0.000 OA
ATOM     29  C   UNL     1      48.771   5.321  17.239  0.00  0.00    +0.000 A 
ATOM     30  H   UNL     1      47.388   2.355  16.918  0.00  0.00    +0.000 HD
ENDBRANCH  17  20
ENDBRANCH   2  16
TORSDOF 5
ENDMDL
MODEL 7
REMARK VINA RESULT:    -7.109      5.196     11.692
REMARK INTER + INTRA:         -10.401
REMARK INTER:                  -9.157
REMARK INTRA:                  -1.243
REMARK UNBOUND:                -1.214
REMARK  Name = 
REMARK  6 active torsions:
REMARK  status: ('A' for Active; 'I' for Inactive)
REMARK    1  A    between atoms: C_1  and  C_2
REMARK    2  A    between atoms: C_2  and  N_3
REMARK    3  A    between atoms: C_2  and  C_16
REMARK    4  A    between atoms: C_4  and  C_6
REMARK    5  A    between atoms: C_19  and  C_20
REMARK    6  A    between atoms: C_20  and  C_21
REMARK                            x       y       z     vdW  Elec       q    Type
REMARK                         _______ _______ _______ _____ _____    ______ ____
ROOT
ATOM      1  C   UNL     1      47.731   3.165  16.734  0.00  0.00    +0.000 C 
ATOM      2  C   UNL     1      48.052   4.563  16.194  0.00  0.00    +0.000 C 
ENDROOT
BRANCH   2   3
ATOM      3  C   UNL     1      48.082   5.571  17.336  0.00  0.00    +0.000 A 
ATOM      4  C   UNL     1      47.331   5.360  18.500  0.00  0.00    +0.000 A 
ATOM      5  C   UNL     1      47.401   6.264  19.564  0.00  0.00    +0.000 A 
ATOM      6  C   UNL     1      48.235   7.390  19.498  0.00  0.00    +0.000 A 
ATOM      7  C   UNL     1      48.970   7.614  18.331  0.00  0.00    +0.000 A 
ATOM      8  C   UNL     1      48.890   6.718  17.261  0.00  0.00    +0.000 A 
BRANCH   6   9
ATOM      9  C   UNL     1      48.353   8.343  20.668  0.00  0.00    +0.000 C 
BRANCH   9  10
ATOM     10  C   UNL     1      47.188   9.292  20.856  0.00  0.00    +0.000 A 
ATOM     11  C   UNL     1      46.824  10.192  19.854  0.00  0.00    +0.000 A 
ATOM     12  C   UNL     1      45.818  11.121  20.104  0.00  0.00    +0.000 A 
ATOM     13  C   UNL     1      45.198  11.136  21.346  0.00  0.00    +0.000 A 
ATOM     14  C   UNL     1      45.605  10.204  22.285  0.00  0.00    +0.000 A 
ATOM     15  N   UNL     1      46.580   9.291  22.070  0.00  0.00    +0.000 NA
ENDBRANCH   9  10
ENDBRANCH   6   9
ENDBRANCH   2   3
BRANCH   2  16
ATOM     16  N   UNL     1      47.103   5.018  15.187  0.00  0.00    +0.000 N 
ATOM     17  C   UNL     1      47.470   5.702  14.056  0.00  0.00    +0.000 C 
ATOM     18  O   UNL     1      48.644   5.931  13.773  0.00  0.00    +0.000 OA
ATOM     19  H   UNL     1      46.144   5.126  15.508  0.00  0.00    +0.000 HD
BRANCH  17  20
ATOM     20  C   UNL     1      46.387   6.100  13.152  0.00  0.00    +0.000 A 
ATOM     21  C   UNL     1      46.216   7.442  12.838  0.00  0.00    +0.000 A 
ATOM     22  S   UNL     1      44.911   7.738  11.781  0.00  0.00    +0.000 S 
ATOM     23  C   UNL     1      44.503   6.086  11.737  0.00  0.00    +0.000 A 
ATOM     24  N   UNL     1      43.425   5.651  11.031  0.00  0.00    +0.000 NA
ATOM     25  C   UNL     1      43.218   4.379  11.106  0.00  0.00    +0.000 A 
ATOM     26  N   UNL     1      43.999   3.501  11.812  0.00  0.00    +0.000 N 
ATOM     27  C   UNL     1      45.115   3.891  12.517  0.00  0.00    +0.000 A 
ATOM     28  O   UNL     1      45.823   3.078  13.099  0.00  0.00    +0.000 OA
ATOM     29  C   UNL     1      45.374   5.317  12.488  0.00  0.00    +0.000 A 
ATOM     30  H   UNL     1      43.795   2.512  11.812  0.00  0.00    +0.000 HD
ENDBRANCH  17  20
ENDBRANCH   2  16
TORSDOF 5
ENDMDL
MODEL 8
REMARK VINA RESULT:    -7.078      4.488      9.371
REMARK INTER + INTRA:         -10.361
REMARK INTER:                  -9.249
REMARK INTRA:                  -1.112
REMARK UNBOUND:                -1.214
REMARK  Name = 
REMARK  6 active torsions:
REMARK  status: ('A' for Active; 'I' for Inactive)
REMARK    1  A    between atoms: C_1  and  C_2
REMARK    2  A    between atoms: C_2  and  N_3
REMARK    3  A    between atoms: C_2  and  C_16
REMARK    4  A    between atoms: C_4  and  C_6
REMARK    5  A    between atoms: C_19  and  C_20
REMARK    6  A    between atoms: C_20  and  C_21
REMARK                            x       y       z     vdW  Elec       q    Type
REMARK                         _______ _______ _______ _____ _____    ______ ____
ROOT
ATOM      1  C   UNL     1      49.711   8.059  12.054  0.00  0.00    +0.000 C 
ATOM      2  C   UNL     1      48.457   7.598  12.805  0.00  0.00    +0.000 C 
ENDROOT
BRANCH   2   3
ATOM      3  C   UNL     1      48.841   7.025  14.164  0.00  0.00    +0.000 A 
ATOM      4  C   UNL     1      48.006   6.114  14.821  0.00  0.00    +0.000 A 
ATOM      5  C   UNL     1      48.386   5.555  16.044  0.00  0.00    +0.000 A 
ATOM      6  C   UNL     1      49.619   5.879  16.631  0.00  0.00    +0.000 A 
ATOM      7  C   UNL     1      50.446   6.804  15.987  0.00  0.00    +0.000 A 
ATOM      8  C   UNL     1      50.059   7.373  14.771  0.00  0.00    +0.000 A 
BRANCH   6   9
ATOM      9  C   UNL     1      50.058   5.237  17.929  0.00  0.00    +0.000 C 
BRANCH   9  10
ATOM     10  C   UNL     1      50.868   3.965  17.785  0.00  0.00    +0.000 A 
ATOM     11  C   UNL     1      50.265   2.768  17.399  0.00  0.00    +0.000 A 
ATOM     12  C   UNL     1      51.019   1.598  17.383  0.00  0.00    +0.000 A 
ATOM     13  C   UNL     1      52.356   1.645  17.753  0.00  0.00    +0.000 A 
ATOM     14  C   UNL     1      52.887   2.871  18.113  0.00  0.00    +0.000 A 
ATOM     15  N   UNL     1      52.178   4.023  18.139  0.00  0.00    +0.000 NA
ENDBRANCH   9  10
ENDBRANCH   6   9
ENDBRANCH   2   3
BRANCH   2  16
ATOM     16  N   UNL     1      47.687   6.602  12.072  0.00  0.00    +0.000 N 
ATOM     17  C   UNL     1      46.361   6.754  11.755  0.00  0.00    +0.000 C 
ATOM     18  O   UNL     1      45.732   7.779  12.011  0.00  0.00    +0.000 OA
ATOM     19  H   UNL     1      48.052   5.654  12.110  0.00  0.00    +0.000 HD
BRANCH  17  20
ATOM     20  C   UNL     1      45.731   5.648  11.027  0.00  0.00    +0.000 A 
ATOM     21  C   UNL     1      45.857   5.578   9.646  0.00  0.00    +0.000 A 
ATOM     22  S   UNL     1      45.063   4.237   8.952  0.00  0.00    +0.000 S 
ATOM     23  C   UNL     1      44.489   3.725  10.471  0.00  0.00    +0.000 A 
ATOM     24  N   UNL     1      43.687   2.632  10.582  0.00  0.00    +0.000 NA
ATOM     25  C   UNL     1      43.305   2.373  11.788  0.00  0.00    +0.000 A 
ATOM     26  N   UNL     1      43.664   3.100  12.894  0.00  0.00    +0.000 N 
ATOM     27  C   UNL     1      44.496   4.194  12.834  0.00  0.00    +0.000 A 
ATOM     28  O   UNL     1      44.840   4.795  13.844  0.00  0.00    +0.000 OA
ATOM     29  C   UNL     1      44.929   4.544  11.495  0.00  0.00    +0.000 A 
ATOM     30  H   UNL     1      43.349   2.830  13.814  0.00  0.00    +0.000 HD
ENDBRANCH  17  20
ENDBRANCH   2  16
TORSDOF 5
ENDMDL
MODEL 9
REMARK VINA RESULT:    -6.772      3.175      5.568
REMARK INTER + INTRA:          -9.965
REMARK INTER:                  -8.809
REMARK INTRA:                  -1.156
REMARK UNBOUND:                -1.214
REMARK  Name = 
REMARK  6 active torsions:
REMARK  status: ('A' for Active; 'I' for Inactive)
REMARK    1  A    between atoms: C_1  and  C_2
REMARK    2  A    between atoms: C_2  and  N_3
REMARK    3  A    between atoms: C_2  and  C_16
REMARK    4  A    between atoms: C_4  and  C_6
REMARK    5  A    between atoms: C_19  and  C_20
REMARK    6  A    between atoms: C_20  and  C_21
REMARK                            x       y       z     vdW  Elec       q    Type
REMARK                         _______ _______ _______ _____ _____    ______ ____
ROOT
ATOM      1  C   UNL     1      47.348   4.039  15.492  0.00  0.00    +0.000 C 
ATOM      2  C   UNL     1      47.093   5.343  14.729  0.00  0.00    +0.000 C 
ENDROOT
BRANCH   2   3
ATOM      3  C   UNL     1      46.350   5.053  13.430  0.00  0.00    +0.000 A 
ATOM      4  C   UNL     1      46.248   6.027  12.429  0.00  0.00    +0.000 A 
ATOM      5  C   UNL     1      45.608   5.739  11.220  0.00  0.00    +0.000 A 
ATOM      6  C   UNL     1      45.069   4.466  10.977  0.00  0.00    +0.000 A 
ATOM      7  C   UNL     1      45.152   3.499  11.982  0.00  0.00    +0.000 A 
ATOM      8  C   UNL     1      45.780   3.791  13.196  0.00  0.00    +0.000 A 
BRANCH   6   9
ATOM      9  C   UNL     1      44.421   4.134   9.650  0.00  0.00    +0.000 C 
BRANCH   9  10
ATOM     10  C   UNL     1      45.306   3.412   8.655  0.00  0.00    +0.000 A 
ATOM     11  C   UNL     1      45.526   2.038   8.752  0.00  0.00    +0.000 A 
ATOM     12  C   UNL     1      46.430   1.429   7.887  0.00  0.00    +0.000 A 
ATOM     13  C   UNL     1      47.096   2.200   6.945  0.00  0.00    +0.000 A 
ATOM     14  C   UNL     1      46.817   3.555   6.901  0.00  0.00    +0.000 A 
ATOM     15  N   UNL     1      45.945   4.174   7.729  0.00  0.00    +0.000 NA
ENDBRANCH   9  10
ENDBRANCH   6   9
ENDBRANCH   2   3
BRANCH   2  16
ATOM     16  N   UNL     1      48.315   6.073  14.422  0.00  0.00    +0.000 N 
ATOM     17  C   UNL     1      48.945   6.903  15.315  0.00  0.00    +0.000 C 
ATOM     18  O   UNL     1      48.557   7.047  16.472  0.00  0.00    +0.000 OA
ATOM     19  H   UNL     1      48.494   6.228  13.433  0.00  0.00    +0.000 HD
BRANCH  17  20
ATOM     20  C   UNL     1      50.159   7.575  14.839  0.00  0.00    +0.000 A 
ATOM     21  C   UNL     1      51.363   7.357  15.495  0.00  0.00    +0.000 A 
ATOM     22  S   UNL     1      52.675   8.214  14.823  0.00  0.00    +0.000 S 
ATOM     23  C   UNL     1      51.671   8.939  13.655  0.00  0.00    +0.000 A 
ATOM     24  N   UNL     1      52.170   9.841  12.767  0.00  0.00    +0.000 NA
ATOM     25  C   UNL     1      51.292  10.330  11.956  0.00  0.00    +0.000 A 
ATOM     26  N   UNL     1      49.964   9.988  11.943  0.00  0.00    +0.000 N 
ATOM     27  C   UNL     1      49.421   9.060  12.801  0.00  0.00    +0.000 A 
ATOM     28  O   UNL     1      48.242   8.737  12.735  0.00  0.00    +0.000 OA
ATOM     29  C   UNL     1      50.362   8.503  13.753  0.00  0.00    +0.000 A 
ATOM     30  H   UNL     1      49.334  10.392  11.265  0.00  0.00    +0.000 HD
ENDBRANCH  17  20
ENDBRANCH   2  16
TORSDOF 5
ENDMDL
