MODEL 1
REMARK VINA RESULT:    -8.004      0.000      0.000
REMARK INTER + INTRA:         -12.333
REMARK INTER:                 -11.279
REMARK INTRA:                  -1.054
REMARK UNBOUND:                -1.054
REMARK  Name = 
REMARK  7 active torsions:
REMARK  status: ('A' for Active; 'I' for Inactive)
REMARK    1  A    between atoms: C_2  and  C_20
REMARK    2  A    between atoms: N_3  and  C_4
REMARK    3  A    between atoms: C_4  and  C_5
REMARK    4  A    between atoms: C_8  and  C_9
REMARK    5  A    between atoms: C_9  and  O_10
REMARK    6  A    between atoms: O_10  and  C_11
REMARK    7  A    between atoms: C_11  and  C_12
REMARK                            x       y       z     vdW  Elec       q    Type
REMARK                         _______ _______ _______ _____ _____    ______ ____
ROOT
ATOM      1  C   UNL     1      46.682   8.152  12.836  0.00  0.00    +0.000 C 
ENDROOT
BRANCH   1   2
ATOM      2  C   UNL     1      45.851   6.975  12.368  0.00  0.00    +0.000 A 
ATOM      3  N   UNL     1      44.803   6.594  13.122  0.00  0.00    +0.000 NA
ATOM      4  C   UNL     1      44.089   5.538  12.679  0.00  0.00    +0.000 A 
ATOM      5  C   UNL     1      44.385   4.833  11.531  0.00  0.00    +0.000 A 
ATOM      6  C   UNL     1      45.508   5.270  10.863  0.00  0.00    +0.000 A 
ATOM      7  N   UNL     1      46.267   6.313  11.263  0.00  0.00    +0.000 NA
BRANCH   5   8
ATOM      8  C   UNL     1      43.550   3.692  11.053  0.00  0.00    +0.000 C 
BRANCH   8   9
ATOM      9  O   UNL     1      43.847   3.450   9.684  0.00  0.00    +0.000 OA
BRANCH   9  10
ATOM     10  C   UNL     1      44.430   2.156   9.489  0.00  0.00    +0.000 C 
BRANCH  10  11
ATOM     11  C   UNL     1      45.539   2.207   8.463  0.00  0.00    +0.000 A 
ATOM     12  N   UNL     1      45.755   3.373   7.820  0.00  0.00    +0.000 NA
ATOM     13  C   UNL     1      46.745   3.382   6.909  0.00  0.00    +0.000 A 
ATOM     14  C   UNL     1      47.525   2.284   6.622  0.00  0.00    +0.000 A 
ATOM     15  C   UNL     1      47.233   1.149   7.335  0.00  0.00    +0.000 A 
ATOM     16  N   UNL     1      46.259   1.076   8.259  0.00  0.00    +0.000 NA
ENDBRANCH  10  11
ENDBRANCH   9  10
ENDBRANCH   8   9
ENDBRANCH   5   8
ENDBRANCH   1   2
BRANCH   1  19
ATOM     17  O   UNL     1      48.900   6.403  13.307  0.00  0.00    +0.000 OA
ATOM     18  C   UNL     1      48.327   6.951  14.240  0.00  0.00    +0.000 C 
ATOM     19  N   UNL     1      47.319   7.876  14.106  0.00  0.00    +0.000 N 
ATOM     20  H   UNL     1      46.750   8.087  14.911  0.00  0.00    +0.000 HD
BRANCH  18  21
ATOM     21  C   UNL     1      48.473   6.540  15.630  0.00  0.00    +0.000 A 
ATOM     22  C   UNL     1      49.058   7.342  16.594  0.00  0.00    +0.000 A 
ATOM     23  S   UNL     1      49.634   6.412  17.918  0.00  0.00    +0.000 S 
ATOM     24  C   UNL     1      48.975   4.976  17.269  0.00  0.00    +0.000 A 
ATOM     25  N   UNL     1      49.225   3.748  17.795  0.00  0.00    +0.000 NA
ATOM     26  C   UNL     1      48.603   2.782  17.198  0.00  0.00    +0.000 A 
ATOM     27  N   UNL     1      47.712   2.938  16.163  0.00  0.00    +0.000 N 
ATOM     28  C   UNL     1      47.405   4.163  15.622  0.00  0.00    +0.000 A 
ATOM     29  O   UNL     1      46.527   4.300  14.780  0.00  0.00    +0.000 OA
ATOM     30  C   UNL     1      48.198   5.244  16.165  0.00  0.00    +0.000 A 
ATOM     31  H   UNL     1      47.181   2.155  15.811  0.00  0.00    +0.000 HD
ENDBRANCH  18  21
ENDBRANCH   1  19
TORSDOF 7
ENDMDL
MODEL 2
REMARK VINA RESULT:    -7.585      2.351      2.832
REMARK INTER + INTRA:         -11.742
REMARK INTER:                 -10.673
REMARK INTRA:                  -1.070
REMARK UNBOUND:                -1.054
REMARK  Name = 
REMARK  7 active torsions:
REMARK  status: ('A' for Active; 'I' for Inactive)
REMARK    1  A    between atoms: C_2  and  C_20
REMARK    2  A    between atoms: N_3  and  C_4
REMARK    3  A    between atoms: C_4  and  C_5
REMARK    4  A    between atoms: C_8  and  C_9
REMARK    5  A    between atoms: C_9  and  O_10
REMARK    6  A    between atoms: O_10  and  C_11
REMARK    7  A    between atoms: C_11  and  C_12
REMARK                            x       y       z     vdW  Elec       q    Type
REMARK                         _______ _______ _______ _____ _____    ______ ____
ROOT
ATOM      1  C   UNL     1      47.689   4.544  14.813  0.00  0.00    +0.000 C 
ENDROOT
BRANCH   1   2
ATOM      2  C   UNL     1      46.539   4.513  13.828  0.00  0.00    +0.000 A 
ATOM      3  N   UNL     1      45.864   5.655  13.598  0.00  0.00    +0.000 NA
ATOM      4  C   UNL     1      44.841   5.589  12.721  0.00  0.00    +0.000 A 
ATOM      5  C   UNL     1      44.448   4.433  12.079  0.00  0.00    +0.000 A 
ATOM      6  C   UNL     1      45.169   3.311  12.425  0.00  0.00    +0.000 A 
ATOM      7  N   UNL     1      46.194   3.313  13.304  0.00  0.00    +0.000 NA
BRANCH   5   8
ATOM      8  C   UNL     1      43.334   4.407  11.086  0.00  0.00    +0.000 C 
BRANCH   8   9
ATOM      9  O   UNL     1      43.695   3.544  10.016  0.00  0.00    +0.000 OA
BRANCH   9  10
ATOM     10  C   UNL     1      44.364   4.251   8.965  0.00  0.00    +0.000 C 
BRANCH  10  11
ATOM     11  C   UNL     1      45.422   3.390   8.315  0.00  0.00    +0.000 A 
ATOM     12  N   UNL     1      46.283   3.981   7.461  0.00  0.00    +0.000 NA
ATOM     13  C   UNL     1      47.208   3.185   6.894  0.00  0.00    +0.000 A 
ATOM     14  C   UNL     1      47.310   1.836   7.149  0.00  0.00    +0.000 A 
ATOM     15  C   UNL     1      46.394   1.331   8.037  0.00  0.00    +0.000 A 
ATOM     16  N   UNL     1      45.448   2.074   8.638  0.00  0.00    +0.000 NA
ENDBRANCH  10  11
ENDBRANCH   9  10
ENDBRANCH   8   9
ENDBRANCH   5   8
ENDBRANCH   1   2
BRANCH   1  19
ATOM     17  O   UNL     1      49.928   5.671  16.196  0.00  0.00    +0.000 OA
ATOM     18  C   UNL     1      48.828   6.204  16.250  0.00  0.00    +0.000 C 
ATOM     19  N   UNL     1      47.722   5.791  15.546  0.00  0.00    +0.000 N 
ATOM     20  H   UNL     1      46.816   6.130  15.832  0.00  0.00    +0.000 HD
BRANCH  18  21
ATOM     21  C   UNL     1      48.468   7.215  17.235  0.00  0.00    +0.000 A 
ATOM     22  C   UNL     1      48.811   8.549  17.104  0.00  0.00    +0.000 A 
ATOM     23  S   UNL     1      48.810   9.349  18.624  0.00  0.00    +0.000 S 
ATOM     24  C   UNL     1      48.216   7.959  19.419  0.00  0.00    +0.000 A 
ATOM     25  N   UNL     1      48.126   7.867  20.772  0.00  0.00    +0.000 NA
ATOM     26  C   UNL     1      47.609   6.755  21.192  0.00  0.00    +0.000 A 
ATOM     27  N   UNL     1      47.124   5.756  20.382  0.00  0.00    +0.000 N 
ATOM     28  C   UNL     1      47.164   5.822  19.010  0.00  0.00    +0.000 A 
ATOM     29  O   UNL     1      46.627   4.980  18.303  0.00  0.00    +0.000 OA
ATOM     30  C   UNL     1      47.874   6.980  18.514  0.00  0.00    +0.000 A 
ATOM     31  H   UNL     1      46.638   4.962  20.771  0.00  0.00    +0.000 HD
ENDBRANCH  18  21
ENDBRANCH   1  19
TORSDOF 7
ENDMDL
MODEL 3
REMARK VINA RESULT:    -7.350      2.105      2.471
REMARK INTER + INTRA:         -11.412
REMARK INTER:                 -10.600
REMARK INTRA:                  -0.812
REMARK UNBOUND:                -1.054
REMARK  Name = 
REMARK  7 active torsions:
REMARK  status: ('A' for Active; 'I' for Inactive)
REMARK    1  A    between atoms: C_2  and  C_20
REMARK    2  A    between atoms: N_3  and  C_4
REMARK    3  A    between atoms: C_4  and  C_5
REMARK    4  A    between atoms: C_8  and  C_9
REMARK    5  A    between atoms: C_9  and  O_10
REMARK    6  A    between atoms: O_10  and  C_11
REMARK    7  A    between atoms: C_11  and  C_12
REMARK                            x       y       z     vdW  Elec       q    Type
REMARK                         _______ _______ _______ _____ _____    ______ ____
ROOT
ATOM      1  C   UNL     1      48.574   6.848  14.066  0.00  0.00    +0.000 C 
ENDROOT
BRANCH   1   2
ATOM      2  C   UNL     1      47.333   6.106  13.615  0.00  0.00    +0.000 A 
ATOM      3  N   UNL     1      46.282   6.825  13.181  0.00  0.00    +0.000 NA
ATOM      4  C   UNL     1      45.190   6.133  12.794  0.00  0.00    +0.000 A 
ATOM      5  C   UNL     1      45.094   4.758  12.839  0.00  0.00    +0.000 A 
ATOM      6  C   UNL     1      46.203   4.121  13.350  0.00  0.00    +0.000 A 
ATOM      7  N   UNL     1      47.318   4.761  13.763  0.00  0.00    +0.000 NA
BRANCH   5   8
ATOM      8  C   UNL     1      43.882   4.024  12.367  0.00  0.00    +0.000 C 
BRANCH   8   9
ATOM      9  O   UNL     1      44.246   3.205  11.264  0.00  0.00    +0.000 OA
BRANCH   9  10
ATOM     10  C   UNL     1      44.124   3.905  10.020  0.00  0.00    +0.000 C 
BRANCH  10  11
ATOM     11  C   UNL     1      45.101   3.374   8.997  0.00  0.00    +0.000 A 
ATOM     12  N   UNL     1      45.609   4.241   8.096  0.00  0.00    +0.000 NA
ATOM     13  C   UNL     1      46.471   3.734   7.195  0.00  0.00    +0.000 A 
ATOM     14  C   UNL     1      46.846   2.410   7.163  0.00  0.00    +0.000 A 
ATOM     15  C   UNL     1      46.281   1.611   8.125  0.00  0.00    +0.000 A 
ATOM     16  N   UNL     1      45.416   2.057   9.053  0.00  0.00    +0.000 NA
ENDBRANCH  10  11
ENDBRANCH   9  10
ENDBRANCH   8   9
ENDBRANCH   5   8
ENDBRANCH   1   2
BRANCH   1  19
ATOM     17  O   UNL     1      50.171   5.926  16.256  0.00  0.00    +0.000 OA
ATOM     18  C   UNL     1      49.232   6.687  16.445  0.00  0.00    +0.000 C 
ATOM     19  N   UNL     1      48.471   7.255  15.451  0.00  0.00    +0.000 N 
ATOM     20  H   UNL     1      47.584   7.666  15.699  0.00  0.00    +0.000 HD
BRANCH  18  21
ATOM     21  C   UNL     1      48.639   6.928  17.754  0.00  0.00    +0.000 A 
ATOM     22  C   UNL     1      48.367   8.197  18.235  0.00  0.00    +0.000 A 
ATOM     23  S   UNL     1      48.266   8.208  19.950  0.00  0.00    +0.000 S 
ATOM     24  C   UNL     1      48.438   6.511  20.028  0.00  0.00    +0.000 A 
ATOM     25  N   UNL     1      48.604   5.841  21.199  0.00  0.00    +0.000 NA
ATOM     26  C   UNL     1      48.670   4.555  21.066  0.00  0.00    +0.000 A 
ATOM     27  N   UNL     1      48.529   3.876  19.879  0.00  0.00    +0.000 N 
ATOM     28  C   UNL     1      48.327   4.511  18.676  0.00  0.00    +0.000 A 
ATOM     29  O   UNL     1      48.089   3.893  17.647  0.00  0.00    +0.000 OA
ATOM     30  C   UNL     1      48.401   5.952  18.771  0.00  0.00    +0.000 A 
ATOM     31  H   UNL     1      48.486   2.868  19.857  0.00  0.00    +0.000 HD
ENDBRANCH  18  21
ENDBRANCH   1  19
TORSDOF 7
ENDMDL
MODEL 4
REMARK VINA RESULT:    -6.918      2.356      2.922
REMARK INTER + INTRA:         -10.802
REMARK INTER:                 -10.110
REMARK INTRA:                  -0.692
REMARK UNBOUND:                -1.054
REMARK  Name = 
REMARK  7 active torsions:
REMARK  status: ('A' for Active; 'I' for Inactive)
REMARK    1  A    between atoms: C_2  and  C_20
REMARK    2  A    between atoms: N_3  and  C_4
REMARK    3  A    between atoms: C_4  and  C_5
REMARK    4  A    between atoms: C_8  and  C_9
REMARK    5  A    between atoms: C_9  and  O_10
REMARK    6  A    between atoms: O_10  and  C_11
REMARK    7  A    between atoms: C_11  and  C_12
REMARK                            x       y       z     vdW  Elec       q    Type
REMARK                         _______ _______ _______ _____ _____    ______ ____
ROOT
ATOM      1  C   UNL     1      47.940   6.358  13.900  0.00  0.00    +0.000 C 
ENDROOT
BRANCH   1   2
ATOM      2  C   UNL     1      46.683   5.774  13.291  0.00  0.00    +0.000 A 
ATOM      3  N   UNL     1      45.726   6.621  12.868  0.00  0.00    +0.000 NA
ATOM      4  C   UNL     1      44.616   6.067  12.337  0.00  0.00    +0.000 A 
ATOM      5  C   UNL     1      44.410   4.708  12.227  0.00  0.00    +0.000 A 
ATOM      6  C   UNL     1      45.425   3.930  12.739  0.00  0.00    +0.000 A 
ATOM      7  N   UNL     1      46.552   4.427  13.291  0.00  0.00    +0.000 NA
BRANCH   5   8
ATOM      8  C   UNL     1      43.184   4.132  11.600  0.00  0.00    +0.000 C 
BRANCH   8   9
ATOM      9  O   UNL     1      43.570   3.344  10.481  0.00  0.00    +0.000 OA
BRANCH   9  10
ATOM     10  C   UNL     1      44.054   4.154   9.404  0.00  0.00    +0.000 C 
BRANCH  10  11
ATOM     11  C   UNL     1      45.124   3.432   8.617  0.00  0.00    +0.000 A 
ATOM     12  N   UNL     1      45.842   4.144   7.722  0.00  0.00    +0.000 NA
ATOM     13  C   UNL     1      46.781   3.470   7.034  0.00  0.00    +0.000 A 
ATOM     14  C   UNL     1      47.034   2.127   7.207  0.00  0.00    +0.000 A 
ATOM     15  C   UNL     1      46.258   1.495   8.145  0.00  0.00    +0.000 A 
ATOM     16  N   UNL     1      45.305   2.112   8.866  0.00  0.00    +0.000 NA
ENDBRANCH  10  11
ENDBRANCH   9  10
ENDBRANCH   8   9
ENDBRANCH   5   8
ENDBRANCH   1   2
BRANCH   1  19
ATOM     17  O   UNL     1      49.831   7.445  15.755  0.00  0.00    +0.000 OA
ATOM     18  C   UNL     1      48.992   6.634  16.123  0.00  0.00    +0.000 C 
ATOM     19  N   UNL     1      47.988   6.132  15.329  0.00  0.00    +0.000 N 
ATOM     20  H   UNL     1      47.502   5.303  15.636  0.00  0.00    +0.000 HD
BRANCH  18  21
ATOM     21  C   UNL     1      49.065   5.913  17.386  0.00  0.00    +0.000 A 
ATOM     22  C   UNL     1      49.271   4.547  17.462  0.00  0.00    +0.000 A 
ATOM     23  S   UNL     1      48.713   3.911  18.957  0.00  0.00    +0.000 S 
ATOM     24  C   UNL     1      48.337   5.469  19.545  0.00  0.00    +0.000 A 
ATOM     25  N   UNL     1      47.664   5.675  20.708  0.00  0.00    +0.000 NA
ATOM     26  C   UNL     1      47.512   6.924  21.015  0.00  0.00    +0.000 A 
ATOM     27  N   UNL     1      48.018   7.981  20.297  0.00  0.00    +0.000 N 
ATOM     28  C   UNL     1      48.731   7.818  19.133  0.00  0.00    +0.000 A 
ATOM     29  O   UNL     1      49.273   8.758  18.566  0.00  0.00    +0.000 OA
ATOM     30  C   UNL     1      48.787   6.445  18.684  0.00  0.00    +0.000 A 
ATOM     31  H   UNL     1      47.954   8.925  20.645  0.00  0.00    +0.000 HD
ENDBRANCH  18  21
ENDBRANCH   1  19
TORSDOF 7
ENDMDL
MODEL 5
REMARK VINA RESULT:    -6.860      2.150      3.463
REMARK INTER + INTRA:         -10.721
REMARK INTER:                  -9.998
REMARK INTRA:                  -0.723
REMARK UNBOUND:                -1.054
REMARK  Name = 
REMARK  7 active torsions:
REMARK  status: ('A' for Active; 'I' for Inactive)
REMARK    1  A    between atoms: C_2  and  C_20
REMARK    2  A    between atoms: N_3  and  C_4
REMARK    3  A    between atoms: C_4  and  C_5
REMARK    4  A    between atoms: C_8  and  C_9
REMARK    5  A    between atoms: C_9  and  O_10
REMARK    6  A    between atoms: O_10  and  C_11
REMARK    7  A    between atoms: C_11  and  C_12
REMARK                            x       y       z     vdW  Elec       q    Type
REMARK                         _______ _______ _______ _____ _____    ______ ____
ROOT
ATOM      1  C   UNL     1      47.195   3.963  15.409  0.00  0.00    +0.000 C 
ENDROOT
BRANCH   1   2
ATOM      2  C   UNL     1      46.641   4.455  14.088  0.00  0.00    +0.000 A 
ATOM      3  N   UNL     1      46.983   5.688  13.672  0.00  0.00    +0.000 NA
ATOM      4  C   UNL     1      46.466   6.097  12.495  0.00  0.00    +0.000 A 
ATOM      5  C   UNL     1      45.609   5.340  11.724  0.00  0.00    +0.000 A 
ATOM      6  C   UNL     1      45.280   4.116  12.266  0.00  0.00    +0.000 A 
ATOM      7  N   UNL     1      45.756   3.659  13.443  0.00  0.00    +0.000 NA
BRANCH   5   8
ATOM      8  C   UNL     1      45.086   5.812  10.408  0.00  0.00    +0.000 C 
BRANCH   8   9
ATOM      9  O   UNL     1      45.783   5.135   9.371  0.00  0.00    +0.000 OA
BRANCH   9  10
ATOM     10  C   UNL     1      44.971   4.128   8.755  0.00  0.00    +0.000 C 
BRANCH  10  11
ATOM     11  C   UNL     1      45.809   3.185   7.922  0.00  0.00    +0.000 A 
ATOM     12  N   UNL     1      46.315   3.647   6.760  0.00  0.00    +0.000 NA
ATOM     13  C   UNL     1      47.051   2.781   6.039  0.00  0.00    +0.000 A 
ATOM     14  C   UNL     1      47.304   1.486   6.433  0.00  0.00    +0.000 A 
ATOM     15  C   UNL     1      46.751   1.114   7.633  0.00  0.00    +0.000 A 
ATOM     16  N   UNL     1      46.009   1.933   8.400  0.00  0.00    +0.000 NA
ENDBRANCH  10  11
ENDBRANCH   9  10
ENDBRANCH   8   9
ENDBRANCH   5   8
ENDBRANCH   1   2
BRANCH   1  19
ATOM     17  O   UNL     1      49.606   4.036  16.951  0.00  0.00    +0.000 OA
ATOM     18  C   UNL     1      48.809   4.964  16.994  0.00  0.00    +0.000 C 
ATOM     19  N   UNL     1      47.677   5.060  16.220  0.00  0.00    +0.000 N 
ATOM     20  H   UNL     1      46.965   5.722  16.490  0.00  0.00    +0.000 HD
BRANCH  18  21
ATOM     21  C   UNL     1      48.822   5.992  18.025  0.00  0.00    +0.000 A 
ATOM     22  C   UNL     1      48.782   5.702  19.377  0.00  0.00    +0.000 A 
ATOM     23  S   UNL     1      48.203   7.038  20.289  0.00  0.00    +0.000 S 
ATOM     24  C   UNL     1      48.148   8.033  18.902  0.00  0.00    +0.000 A 
ATOM     25  N   UNL     1      47.590   9.273  18.906  0.00  0.00    +0.000 NA
ATOM     26  C   UNL     1      47.683   9.897  17.775  0.00  0.00    +0.000 A 
ATOM     27  N   UNL     1      48.330   9.419  16.661  0.00  0.00    +0.000 N 
ATOM     28  C   UNL     1      48.936   8.185  16.622  0.00  0.00    +0.000 A 
ATOM     29  O   UNL     1      49.606   7.820  15.665  0.00  0.00    +0.000 OA
ATOM     30  C   UNL     1      48.718   7.403  17.818  0.00  0.00    +0.000 A 
ATOM     31  H   UNL     1      48.457   9.998  15.844  0.00  0.00    +0.000 HD
ENDBRANCH  18  21
ENDBRANCH   1  19
TORSDOF 7
ENDMDL
MODEL 6
REMARK VINA RESULT:    -6.830      3.086      7.693
REMARK INTER + INTRA:         -10.678
REMARK INTER:                  -9.348
REMARK INTRA:                  -1.331
REMARK UNBOUND:                -1.054
REMARK  Name = 
REMARK  7 active torsions:
REMARK  status: ('A' for Active; 'I' for Inactive)
REMARK    1  A    between atoms: C_2  and  C_20
REMARK    2  A    between atoms: N_3  and  C_4
REMARK    3  A    between atoms: C_4  and  C_5
REMARK    4  A    between atoms: C_8  and  C_9
REMARK    5  A    between atoms: C_9  and  O_10
REMARK    6  A    between atoms: O_10  and  C_11
REMARK    7  A    between atoms: C_11  and  C_12
REMARK                            x       y       z     vdW  Elec       q    Type
REMARK                         _______ _______ _______ _____ _____    ______ ____
ROOT
ATOM      1  C   UNL     1      46.618   8.386  13.101  0.00  0.00    +0.000 C 
ENDROOT
BRANCH   1   2
ATOM      2  C   UNL     1      47.775   8.157  14.051  0.00  0.00    +0.000 A 
ATOM      3  N   UNL     1      48.605   7.125  13.811  0.00  0.00    +0.000 NA
ATOM      4  C   UNL     1      49.621   6.946  14.681  0.00  0.00    +0.000 A 
ATOM      5  C   UNL     1      49.834   7.738  15.790  0.00  0.00    +0.000 A 
ATOM      6  C   UNL     1      48.898   8.732  15.975  0.00  0.00    +0.000 A 
ATOM      7  N   UNL     1      47.855   8.951  15.145  0.00  0.00    +0.000 NA
BRANCH   5   8
ATOM      8  C   UNL     1      50.991   7.532  16.710  0.00  0.00    +0.000 C 
BRANCH   8   9
ATOM      9  O   UNL     1      51.325   6.151  16.722  0.00  0.00    +0.000 OA
BRANCH   9  10
ATOM     10  C   UNL     1      50.873   5.506  17.919  0.00  0.00    +0.000 C 
BRANCH  10  11
ATOM     11  C   UNL     1      49.612   4.711  17.667  0.00  0.00    +0.000 A 
ATOM     12  N   UNL     1      48.434   5.257  18.035  0.00  0.00    +0.000 NA
ATOM     13  C   UNL     1      47.332   4.521  17.803  0.00  0.00    +0.000 A 
ATOM     14  C   UNL     1      47.359   3.275  17.217  0.00  0.00    +0.000 A 
ATOM     15  C   UNL     1      48.603   2.811  16.872  0.00  0.00    +0.000 A 
ATOM     16  N   UNL     1      49.741   3.498  17.075  0.00  0.00    +0.000 NA
ENDBRANCH  10  11
ENDBRANCH   9  10
ENDBRANCH   8   9
ENDBRANCH   5   8
ENDBRANCH   1   2
BRANCH   1  19
ATOM     17  O   UNL     1      44.454   7.880  11.297  0.00  0.00    +0.000 OA
ATOM     18  C   UNL     1      45.420   7.131  11.338  0.00  0.00    +0.000 C 
ATOM     19  N   UNL     1      46.544   7.343  12.101  0.00  0.00    +0.000 N 
ATOM     20  H   UNL     1      47.171   6.569  12.259  0.00  0.00    +0.000 HD
BRANCH  18  21
ATOM     21  C   UNL     1      45.429   5.793  10.761  0.00  0.00    +0.000 A 
ATOM     22  C   UNL     1      45.794   5.542   9.451  0.00  0.00    +0.000 A 
ATOM     23  S   UNL     1      45.143   4.053   8.894  0.00  0.00    +0.000 S 
ATOM     24  C   UNL     1      44.507   3.689  10.436  0.00  0.00    +0.000 A 
ATOM     25  N   UNL     1      43.677   2.635  10.660  0.00  0.00    +0.000 NA
ATOM     26  C   UNL     1      43.334   2.489  11.900  0.00  0.00    +0.000 A 
ATOM     27  N   UNL     1      43.787   3.264  12.941  0.00  0.00    +0.000 N 
ATOM     28  C   UNL     1      44.651   4.319  12.764  0.00  0.00    +0.000 A 
ATOM     29  O   UNL     1      45.135   4.927  13.709  0.00  0.00    +0.000 OA
ATOM     30  C   UNL     1      44.932   4.601  11.374  0.00  0.00    +0.000 A 
ATOM     31  H   UNL     1      43.563   3.033  13.897  0.00  0.00    +0.000 HD
ENDBRANCH  18  21
ENDBRANCH   1  19
TORSDOF 7
ENDMDL
MODEL 7
REMARK VINA RESULT:    -6.745      2.988      4.328
REMARK INTER + INTRA:         -10.559
REMARK INTER:                  -9.667
REMARK INTRA:                  -0.892
REMARK UNBOUND:                -1.054
REMARK  Name = 
REMARK  7 active torsions:
REMARK  status: ('A' for Active; 'I' for Inactive)
REMARK    1  A    between atoms: C_2  and  C_20
REMARK    2  A    between atoms: N_3  and  C_4
REMARK    3  A    between atoms: C_4  and  C_5
REMARK    4  A    between atoms: C_8  and  C_9
REMARK    5  A    between atoms: C_9  and  O_10
REMARK    6  A    between atoms: O_10  and  C_11
REMARK    7  A    between atoms: C_11  and  C_12
REMARK                            x       y       z     vdW  Elec       q    Type
REMARK                         _______ _______ _______ _____ _____    ______ ____
ROOT
ATOM      1  C   UNL     1      47.868   4.805  16.536  0.00  0.00    +0.000 C 
ENDROOT
BRANCH   1   2
ATOM      2  C   UNL     1      47.321   4.980  15.135  0.00  0.00    +0.000 A 
ATOM      3  N   UNL     1      47.882   5.911  14.342  0.00  0.00    +0.000 NA
ATOM      4  C   UNL     1      47.365   6.045  13.102  0.00  0.00    +0.000 A 
ATOM      5  C   UNL     1      46.302   5.307  12.627  0.00  0.00    +0.000 A 
ATOM      6  C   UNL     1      45.766   4.420  13.535  0.00  0.00    +0.000 A 
ATOM      7  N   UNL     1      46.233   4.251  14.791  0.00  0.00    +0.000 NA
BRANCH   5   8
ATOM      8  C   UNL     1      45.780   5.457  11.236  0.00  0.00    +0.000 C 
BRANCH   8   9
ATOM      9  O   UNL     1      44.603   4.673  11.102  0.00  0.00    +0.000 OA
BRANCH   9  10
ATOM     10  C   UNL     1      44.155   4.615   9.743  0.00  0.00    +0.000 C 
BRANCH  10  11
ATOM     11  C   UNL     1      45.086   3.779   8.896  0.00  0.00    +0.000 A 
ATOM     12  N   UNL     1      45.147   2.453   9.142  0.00  0.00    +0.000 NA
ATOM     13  C   UNL     1      45.990   1.738   8.375  0.00  0.00    +0.000 A 
ATOM     14  C   UNL     1      46.765   2.289   7.378  0.00  0.00    +0.000 A 
ATOM     15  C   UNL     1      46.625   3.643   7.201  0.00  0.00    +0.000 A 
ATOM     16  N   UNL     1      45.799   4.411   7.932  0.00  0.00    +0.000 NA
ENDBRANCH  10  11
ENDBRANCH   9  10
ENDBRANCH   8   9
ENDBRANCH   5   8
ENDBRANCH   1   2
BRANCH   1  19
ATOM     17  O   UNL     1      48.950   3.478  18.831  0.00  0.00    +0.000 OA
ATOM     18  C   UNL     1      49.465   3.341  17.730  0.00  0.00    +0.000 C 
ATOM     19  N   UNL     1      48.963   3.859  16.560  0.00  0.00    +0.000 N 
ATOM     20  H   UNL     1      49.569   3.904  15.755  0.00  0.00    +0.000 HD
BRANCH  18  21
ATOM     21  C   UNL     1      50.802   2.799  17.526  0.00  0.00    +0.000 A 
ATOM     22  C   UNL     1      51.046   1.451  17.336  0.00  0.00    +0.000 A 
ATOM     23  S   UNL     1      52.668   1.046  17.732  0.00  0.00    +0.000 S 
ATOM     24  C   UNL     1      53.068   2.682  18.012  0.00  0.00    +0.000 A 
ATOM     25  N   UNL     1      54.258   3.069  18.544  0.00  0.00    +0.000 NA
ATOM     26  C   UNL     1      54.400   4.353  18.640  0.00  0.00    +0.000 A 
ATOM     27  N   UNL     1      53.489   5.283  18.200  0.00  0.00    +0.000 N 
ATOM     28  C   UNL     1      52.288   4.937  17.626  0.00  0.00    +0.000 A 
ATOM     29  O   UNL     1      51.538   5.771  17.137  0.00  0.00    +0.000 OA
ATOM     30  C   UNL     1      52.034   3.514  17.645  0.00  0.00    +0.000 A 
ATOM     31  H   UNL     1      53.705   6.268  18.208  0.00  0.00    +0.000 HD
ENDBRANCH  18  21
ENDBRANCH   1  19
TORSDOF 7
ENDMDL
MODEL 8
REMARK VINA RESULT:    -6.543      2.573      3.641
REMARK INTER + INTRA:         -10.274
REMARK INTER:                  -9.361
REMARK INTRA:                  -0.913
REMARK UNBOUND:                -1.054
REMARK  Name = 
REMARK  7 active torsions:
REMARK  status: ('A' for Active; 'I' for Inactive)
REMARK    1  A    between atoms: C_2  and  C_20
REMARK    2  A    between atoms: N_3  and  C_4
REMARK    3  A    between atoms: C_4  and  C_5
REMARK    4  A    between atoms: C_8  and  C_9
REMARK    5  A    between atoms: C_9  and  O_10
REMARK    6  A    between atoms: O_10  and  C_11
REMARK    7  A    between atoms: C_11  and  C_12
REMARK                            x       y       z     vdW  Elec       q    Type
REMARK                         _______ _______ _______ _____ _____    ______ ____
ROOT
ATOM      1  C   UNL     1      48.455   7.263  13.973  0.00  0.00    +0.000 C 
ENDROOT
BRANCH   1   2
ATOM      2  C   UNL     1      47.302   6.358  13.591  0.00  0.00    +0.000 A 
ATOM      3  N   UNL     1      47.489   5.027  13.644  0.00  0.00    +0.000 NA
ATOM      4  C   UNL     1      46.443   4.251  13.290  0.00  0.00    +0.000 A 
ATOM      5  C   UNL     1      45.227   4.744  12.866  0.00  0.00    +0.000 A 
ATOM      6  C   UNL     1      45.157   6.118  12.796  0.00  0.00    +0.000 A 
ATOM      7  N   UNL     1      46.173   6.944  13.126  0.00  0.00    +0.000 NA
BRANCH   5   8
ATOM      8  C   UNL     1      44.080   3.854  12.518  0.00  0.00    +0.000 C 
BRANCH   8   9
ATOM      9  O   UNL     1      44.434   3.077  11.382  0.00  0.00    +0.000 OA
BRANCH   9  10
ATOM     10  C   UNL     1      44.193   3.783  10.159  0.00  0.00    +0.000 C 
BRANCH  10  11
ATOM     11  C   UNL     1      45.127   3.317   9.066  0.00  0.00    +0.000 A 
ATOM     12  N   UNL     1      45.484   2.016   9.051  0.00  0.00    +0.000 NA
ATOM     13  C   UNL     1      46.321   1.634   8.069  0.00  0.00    +0.000 A 
ATOM     14  C   UNL     1      46.806   2.492   7.107  0.00  0.00    +0.000 A 
ATOM     15  C   UNL     1      46.378   3.792   7.204  0.00  0.00    +0.000 A 
ATOM     16  N   UNL     1      45.541   4.235   8.159  0.00  0.00    +0.000 NA
ENDBRANCH  10  11
ENDBRANCH   9  10
ENDBRANCH   8   9
ENDBRANCH   5   8
ENDBRANCH   1   2
BRANCH   1  19
ATOM     17  O   UNL     1      50.109   5.945  15.903  0.00  0.00    +0.000 OA
ATOM     18  C   UNL     1      49.260   6.752  16.256  0.00  0.00    +0.000 C 
ATOM     19  N   UNL     1      48.487   7.501  15.401  0.00  0.00    +0.000 N 
ATOM     20  H   UNL     1      47.661   7.949  15.766  0.00  0.00    +0.000 HD
BRANCH  18  21
ATOM     21  C   UNL     1      48.785   6.876  17.628  0.00  0.00    +0.000 A 
ATOM     22  C   UNL     1      48.337   5.797  18.369  0.00  0.00    +0.000 A 
ATOM     23  S   UNL     1      47.308   6.301  19.649  0.00  0.00    +0.000 S 
ATOM     24  C   UNL     1      47.582   7.949  19.297  0.00  0.00    +0.000 A 
ATOM     25  N   UNL     1      46.888   8.955  19.894  0.00  0.00    +0.000 NA
ATOM     26  C   UNL     1      47.266  10.141  19.535  0.00  0.00    +0.000 A 
ATOM     27  N   UNL     1      48.308  10.412  18.680  0.00  0.00    +0.000 N 
ATOM     28  C   UNL     1      49.056   9.428  18.081  0.00  0.00    +0.000 A 
ATOM     29  O   UNL     1      50.051   9.683  17.414  0.00  0.00    +0.000 OA
ATOM     30  C   UNL     1      48.562   8.094  18.341  0.00  0.00    +0.000 A 
ATOM     31  H   UNL     1      48.619  11.359  18.523  0.00  0.00    +0.000 HD
ENDBRANCH  18  21
ENDBRANCH   1  19
TORSDOF 7
ENDMDL
MODEL 9
REMARK VINA RESULT:    -6.499      2.016      2.682
REMARK INTER + INTRA:         -10.212
REMARK INTER:                  -9.336
REMARK INTRA:                  -0.876
REMARK UNBOUND:                -1.054
REMARK  Name = 
REMARK  7 active torsions:
REMARK  status: ('A' for Active; 'I' for Inactive)
REMARK    1  A    between atoms: C_2  and  C_20
REMARK    2  A    between atoms: N_3  and  C_4
REMARK    3  A    between atoms: C_4  and  C_5
REMARK    4  A    between atoms: C_8  and  C_9
REMARK    5  A    between atoms: C_9  and  O_10
REMARK    6  A    between atoms: O_10  and  C_11
REMARK    7  A    between atoms: C_11  and  C_12
REMARK                            x       y       z     vdW  Elec       q    Type
REMARK                         _______ _______ _______ _____ _____    ______ ____
ROOT
ATOM      1  C   UNL     1      48.879   7.429  14.427  0.00  0.00    +0.000 C 
ENDROOT
BRANCH   1   2
ATOM      2  C   UNL     1      47.561   6.924  13.878  0.00  0.00    +0.000 A 
ATOM      3  N   UNL     1      47.294   5.608  13.966  0.00  0.00    +0.000 NA
ATOM      4  C   UNL     1      46.113   5.193  13.462  0.00  0.00    +0.000 A 
ATOM      5  C   UNL     1      45.197   6.027  12.856  0.00  0.00    +0.000 A 
ATOM      6  C   UNL     1      45.590   7.345  12.768  0.00  0.00    +0.000 A 
ATOM      7  N   UNL     1      46.763   7.816  13.245  0.00  0.00    +0.000 NA
BRANCH   5   8
ATOM      8  C   UNL     1      43.884   5.536  12.342  0.00  0.00    +0.000 C 
BRANCH   8   9
ATOM      9  O   UNL     1      44.122   4.520  11.377  0.00  0.00    +0.000 OA
BRANCH   9  10
ATOM     10  C   UNL     1      44.437   5.071  10.093  0.00  0.00    +0.000 C 
BRANCH  10  11
ATOM     11  C   UNL     1      45.124   4.050   9.214  0.00  0.00    +0.000 A 
ATOM     12  N   UNL     1      45.000   2.747   9.542  0.00  0.00    +0.000 NA
ATOM     13  C   UNL     1      45.628   1.865   8.743  0.00  0.00    +0.000 A 
ATOM     14  C   UNL     1      46.364   2.230   7.638  0.00  0.00    +0.000 A 
ATOM     15  C   UNL     1      46.423   3.577   7.385  0.00  0.00    +0.000 A 
ATOM     16  N   UNL     1      45.816   4.507   8.142  0.00  0.00    +0.000 NA
ENDBRANCH  10  11
ENDBRANCH   9  10
ENDBRANCH   8   9
ENDBRANCH   5   8
ENDBRANCH   1   2
BRANCH   1  19
ATOM     17  O   UNL     1      49.542   8.217  17.098  0.00  0.00    +0.000 OA
ATOM     18  C   UNL     1      49.739   7.071  16.718  0.00  0.00    +0.000 C 
ATOM     19  N   UNL     1      49.368   6.577  15.490  0.00  0.00    +0.000 N 
ATOM     20  H   UNL     1      49.779   5.712  15.175  0.00  0.00    +0.000 HD
BRANCH  18  21
ATOM     21  C   UNL     1      50.594   6.124  17.421  0.00  0.00    +0.000 A 
ATOM     22  C   UNL     1      51.850   6.454  17.899  0.00  0.00    +0.000 A 
ATOM     23  S   UNL     1      52.828   5.058  18.109  0.00  0.00    +0.000 S 
ATOM     24  C   UNL     1      51.533   4.020  17.705  0.00  0.00    +0.000 A 
ATOM     25  N   UNL     1      51.691   2.683  17.520  0.00  0.00    +0.000 NA
ATOM     26  C   UNL     1      50.589   2.052  17.264  0.00  0.00    +0.000 A 
ATOM     27  N   UNL     1      49.341   2.626  17.232  0.00  0.00    +0.000 N 
ATOM     28  C   UNL     1      49.131   3.967  17.446  0.00  0.00    +0.000 A 
ATOM     29  O   UNL     1      48.007   4.444  17.528  0.00  0.00    +0.000 OA
ATOM     30  C   UNL     1      50.356   4.724  17.582  0.00  0.00    +0.000 A 
ATOM     31  H   UNL     1      48.511   2.061  17.131  0.00  0.00    +0.000 HD
ENDBRANCH  18  21
ENDBRANCH   1  19
TORSDOF 7
ENDMDL
