MODEL 1
REMARK VINA RESULT:    -8.191      0.000      0.000
REMARK INTER + INTRA:         -11.001
REMARK INTER:                 -10.106
REMARK INTRA:                  -0.895
REMARK UNBOUND:                -0.895
REMARK  Name = 
REMARK  4 active torsions:
REMARK  status: ('A' for Active; 'I' for Inactive)
REMARK    1  A    between atoms: C_7  and  N_8
REMARK    2  A    between atoms: N_8  and  C_9
REMARK    3  A    between atoms: C_9  and  C_10
REMARK    4  A    between atoms: C_14  and  C_15
REMARK                            x       y       z     vdW  Elec       q    Type
REMARK                         _______ _______ _______ _____ _____    ______ ____
ROOT
ATOM      1  C   UNL     1      43.891   5.049  10.977  0.00  0.00    +0.000 A 
ATOM      2  C   UNL     1      43.198   4.063  11.664  0.00  0.00    +0.000 A 
ATOM      3  N   UNL     1      43.234   2.754  11.341  0.00  0.00    +0.000 NA
ATOM      4  C   UNL     1      44.006   2.410  10.278  0.00  0.00    +0.000 A 
ATOM      5  C   UNL     1      44.780   3.293   9.521  0.00  0.00    +0.000 A 
ATOM      6  C   UNL     1      44.705   4.640   9.910  0.00  0.00    +0.000 A 
ENDROOT
BRANCH   5   7
ATOM      7  C   UNL     1      45.631   2.841   8.398  0.00  0.00    +0.000 A 
ATOM      8  C   UNL     1      45.991   3.708   7.350  0.00  0.00    +0.000 A 
ATOM      9  C   UNL     1      46.835   3.293   6.313  0.00  0.00    +0.000 A 
ATOM     10  C   UNL     1      47.327   1.992   6.292  0.00  0.00    +0.000 A 
ATOM     11  C   UNL     1      46.970   1.106   7.302  0.00  0.00    +0.000 A 
ATOM     12  C   UNL     1      46.133   1.526   8.342  0.00  0.00    +0.000 A 
ENDBRANCH   5   7
BRANCH   1  13
ATOM     13  C   UNL     1      43.758   6.499  11.352  0.00  0.00    +0.000 C 
BRANCH  13  14
ATOM     14  N   UNL     1      44.438   6.763  12.612  0.00  0.00    +0.000 N 
ATOM     15  H   UNL     1      44.095   7.585  13.103  0.00  0.00    +0.000 HD
BRANCH  14  22
ATOM     16  F   UNL     1      45.935   4.668  13.973  0.00  0.00    +0.000 F 
ATOM     17  C   UNL     1      46.580   5.680  13.368  0.00  0.00    +0.000 A 
ATOM     18  N   UNL     1      47.931   5.645  13.467  0.00  0.00    +0.000 NA
ATOM     19  C   UNL     1      48.605   6.645  12.870  0.00  0.00    +0.000 A 
ATOM     20  C   UNL     1      47.992   7.675  12.181  0.00  0.00    +0.000 A 
ATOM     21  C   UNL     1      46.600   7.674  12.085  0.00  0.00    +0.000 A 
ATOM     22  C   UNL     1      45.840   6.652  12.666  0.00  0.00    +0.000 A 
ENDBRANCH  14  22
ENDBRANCH  13  14
ENDBRANCH   1  13
TORSDOF 4
ENDMDL
MODEL 2
REMARK VINA RESULT:    -7.794      2.637      6.359
REMARK INTER + INTRA:         -10.512
REMARK INTER:                  -9.857
REMARK INTRA:                  -0.655
REMARK UNBOUND:                -0.895
REMARK  Name = 
REMARK  4 active torsions:
REMARK  status: ('A' for Active; 'I' for Inactive)
REMARK    1  A    between atoms: C_7  and  N_8
REMARK    2  A    between atoms: N_8  and  C_9
REMARK    3  A    between atoms: C_9  and  C_10
REMARK    4  A    between atoms: C_14  and  C_15
REMARK                            x       y       z     vdW  Elec       q    Type
REMARK                         _______ _______ _______ _____ _____    ______ ____
ROOT
ATOM      1  C   UNL     1      44.388   3.445  10.673  0.00  0.00    +0.000 A 
ATOM      2  C   UNL     1      43.779   2.950  11.817  0.00  0.00    +0.000 A 
ATOM      3  N   UNL     1      43.863   3.536  13.028  0.00  0.00    +0.000 NA
ATOM      4  C   UNL     1      44.589   4.681  13.101  0.00  0.00    +0.000 A 
ATOM      5  C   UNL     1      45.224   5.307  12.025  0.00  0.00    +0.000 A 
ATOM      6  C   UNL     1      45.096   4.651  10.790  0.00  0.00    +0.000 A 
ENDROOT
BRANCH   5   7
ATOM      7  C   UNL     1      45.967   6.578  12.171  0.00  0.00    +0.000 A 
ATOM      8  C   UNL     1      47.321   6.688  11.800  0.00  0.00    +0.000 A 
ATOM      9  C   UNL     1      48.009   7.904  11.893  0.00  0.00    +0.000 A 
ATOM     10  C   UNL     1      47.363   9.036  12.377  0.00  0.00    +0.000 A 
ATOM     11  C   UNL     1      46.032   8.952  12.773  0.00  0.00    +0.000 A 
ATOM     12  C   UNL     1      45.344   7.738  12.670  0.00  0.00    +0.000 A 
ENDBRANCH   5   7
BRANCH   1  13
ATOM     13  C   UNL     1      44.305   2.707   9.365  0.00  0.00    +0.000 C 
BRANCH  13  14
ATOM     14  N   UNL     1      45.485   1.875   9.175  0.00  0.00    +0.000 N 
ATOM     15  H   UNL     1      46.112   1.858   9.974  0.00  0.00    +0.000 HD
BRANCH  14  22
ATOM     16  F   UNL     1      47.017  -0.280   7.952  0.00  0.00    +0.000 F 
ATOM     17  C   UNL     1      46.970   0.933   7.375  0.00  0.00    +0.000 A 
ATOM     18  N   UNL     1      47.689   1.057   6.233  0.00  0.00    +0.000 NA
ATOM     19  C   UNL     1      47.662   2.260   5.631  0.00  0.00    +0.000 A 
ATOM     20  C   UNL     1      46.949   3.341   6.116  0.00  0.00    +0.000 A 
ATOM     21  C   UNL     1      46.207   3.176   7.285  0.00  0.00    +0.000 A 
ATOM     22  C   UNL     1      46.177   1.944   7.951  0.00  0.00    +0.000 A 
ENDBRANCH  14  22
ENDBRANCH  13  14
ENDBRANCH   1  13
TORSDOF 4
ENDMDL
MODEL 3
REMARK VINA RESULT:    -7.670      2.219      6.158
REMARK INTER + INTRA:         -10.358
REMARK INTER:                  -9.893
REMARK INTRA:                  -0.465
REMARK UNBOUND:                -0.895
REMARK  Name = 
REMARK  4 active torsions:
REMARK  status: ('A' for Active; 'I' for Inactive)
REMARK    1  A    between atoms: C_7  and  N_8
REMARK    2  A    between atoms: N_8  and  C_9
REMARK    3  A    between atoms: C_9  and  C_10
REMARK    4  A    between atoms: C_14  and  C_15
REMARK                            x       y       z     vdW  Elec       q    Type
REMARK                         _______ _______ _______ _____ _____    ______ ____
ROOT
ATOM      1  C   UNL     1      44.857   4.495  11.065  0.00  0.00    +0.000 A 
ATOM      2  C   UNL     1      45.048   3.690  12.179  0.00  0.00    +0.000 A 
ATOM      3  N   UNL     1      45.885   3.993  13.191  0.00  0.00    +0.000 NA
ATOM      4  C   UNL     1      46.564   5.165  13.090  0.00  0.00    +0.000 A 
ATOM      5  C   UNL     1      46.442   6.084  12.045  0.00  0.00    +0.000 A 
ATOM      6  C   UNL     1      45.552   5.714  11.024  0.00  0.00    +0.000 A 
ENDROOT
BRANCH   5   7
ATOM      7  C   UNL     1      47.185   7.363  12.020  0.00  0.00    +0.000 A 
ATOM      8  C   UNL     1      48.564   7.409  11.742  0.00  0.00    +0.000 A 
ATOM      9  C   UNL     1      49.257   8.624  11.672  0.00  0.00    +0.000 A 
ATOM     10  C   UNL     1      48.587   9.822  11.895  0.00  0.00    +0.000 A 
ATOM     11  C   UNL     1      47.229   9.806  12.194  0.00  0.00    +0.000 A 
ATOM     12  C   UNL     1      46.538   8.591  12.255  0.00  0.00    +0.000 A 
ENDBRANCH   5   7
BRANCH   1  13
ATOM     13  C   UNL     1      43.955   4.067   9.941  0.00  0.00    +0.000 C 
BRANCH  13  14
ATOM     14  N   UNL     1      44.610   4.268   8.657  0.00  0.00    +0.000 N 
ATOM     15  H   UNL     1      44.001   4.643   7.935  0.00  0.00    +0.000 HD
BRANCH  14  22
ATOM     16  F   UNL     1      44.495   1.436   9.331  0.00  0.00    +0.000 F 
ATOM     17  C   UNL     1      45.464   1.904   8.526  0.00  0.00    +0.000 A 
ATOM     18  N   UNL     1      46.355   0.978   8.097  0.00  0.00    +0.000 NA
ATOM     19  C   UNL     1      47.338   1.416   7.290  0.00  0.00    +0.000 A 
ATOM     20  C   UNL     1      47.470   2.733   6.892  0.00  0.00    +0.000 A 
ATOM     21  C   UNL     1      46.528   3.659   7.339  0.00  0.00    +0.000 A 
ATOM     22  C   UNL     1      45.469   3.266   8.166  0.00  0.00    +0.000 A 
ENDBRANCH  14  22
ENDBRANCH  13  14
ENDBRANCH   1  13
TORSDOF 4
ENDMDL
MODEL 4
REMARK VINA RESULT:    -7.442      1.479      1.918
REMARK INTER + INTRA:         -10.077
REMARK INTER:                  -9.337
REMARK INTRA:                  -0.740
REMARK UNBOUND:                -0.895
REMARK  Name = 
REMARK  4 active torsions:
REMARK  status: ('A' for Active; 'I' for Inactive)
REMARK    1  A    between atoms: C_7  and  N_8
REMARK    2  A    between atoms: N_8  and  C_9
REMARK    3  A    between atoms: C_9  and  C_10
REMARK    4  A    between atoms: C_14  and  C_15
REMARK                            x       y       z     vdW  Elec       q    Type
REMARK                         _______ _______ _______ _____ _____    ______ ____
ROOT
ATOM      1  C   UNL     1      44.040   4.808  10.686  0.00  0.00    +0.000 A 
ATOM      2  C   UNL     1      43.353   3.792  11.335  0.00  0.00    +0.000 A 
ATOM      3  N   UNL     1      43.418   2.493  10.978  0.00  0.00    +0.000 NA
ATOM      4  C   UNL     1      44.216   2.192   9.920  0.00  0.00    +0.000 A 
ATOM      5  C   UNL     1      44.987   3.108   9.202  0.00  0.00    +0.000 A 
ATOM      6  C   UNL     1      44.881   4.443   9.624  0.00  0.00    +0.000 A 
ENDROOT
BRANCH   5   7
ATOM      7  C   UNL     1      45.867   2.702   8.083  0.00  0.00    +0.000 A 
ATOM      8  C   UNL     1      46.441   1.417   8.025  0.00  0.00    +0.000 A 
ATOM      9  C   UNL     1      47.234   1.018   6.943  0.00  0.00    +0.000 A 
ATOM     10  C   UNL     1      47.485   1.901   5.898  0.00  0.00    +0.000 A 
ATOM     11  C   UNL     1      46.950   3.184   5.939  0.00  0.00    +0.000 A 
ATOM     12  C   UNL     1      46.150   3.578   7.018  0.00  0.00    +0.000 A 
ENDBRANCH   5   7
BRANCH   1  13
ATOM     13  C   UNL     1      43.873   6.245  11.098  0.00  0.00    +0.000 C 
BRANCH  13  14
ATOM     14  N   UNL     1      45.091   6.996  10.829  0.00  0.00    +0.000 N 
ATOM     15  H   UNL     1      45.570   6.716   9.978  0.00  0.00    +0.000 HD
BRANCH  14  22
ATOM     16  F   UNL     1      44.914   9.206  12.719  0.00  0.00    +0.000 F 
ATOM     17  C   UNL     1      45.945   8.346  12.774  0.00  0.00    +0.000 A 
ATOM     18  N   UNL     1      46.864   8.607  13.734  0.00  0.00    +0.000 NA
ATOM     19  C   UNL     1      47.910   7.764  13.814  0.00  0.00    +0.000 A 
ATOM     20  C   UNL     1      48.076   6.673  12.981  0.00  0.00    +0.000 A 
ATOM     21  C   UNL     1      47.105   6.423  12.012  0.00  0.00    +0.000 A 
ATOM     22  C   UNL     1      45.982   7.251  11.888  0.00  0.00    +0.000 A 
ENDBRANCH  14  22
ENDBRANCH  13  14
ENDBRANCH   1  13
TORSDOF 4
ENDMDL
MODEL 5
REMARK VINA RESULT:    -7.371      1.382      2.090
REMARK INTER + INTRA:          -9.990
REMARK INTER:                  -9.439
REMARK INTRA:                  -0.551
REMARK UNBOUND:                -0.895
REMARK  Name = 
REMARK  4 active torsions:
REMARK  status: ('A' for Active; 'I' for Inactive)
REMARK    1  A    between atoms: C_7  and  N_8
REMARK    2  A    between atoms: N_8  and  C_9
REMARK    3  A    between atoms: C_9  and  C_10
REMARK    4  A    between atoms: C_14  and  C_15
REMARK                            x       y       z     vdW  Elec       q    Type
REMARK                         _______ _______ _______ _____ _____    ______ ____
ROOT
ATOM      1  C   UNL     1      44.319   3.375  11.085  0.00  0.00    +0.000 A 
ATOM      2  C   UNL     1      43.542   4.447  10.673  0.00  0.00    +0.000 A 
ATOM      3  N   UNL     1      43.555   4.947   9.421  0.00  0.00    +0.000 NA
ATOM      4  C   UNL     1      44.383   4.341   8.531  0.00  0.00    +0.000 A 
ATOM      5  C   UNL     1      45.191   3.234   8.802  0.00  0.00    +0.000 A 
ATOM      6  C   UNL     1      45.130   2.757  10.122  0.00  0.00    +0.000 A 
ENDROOT
BRANCH   5   7
ATOM      7  C   UNL     1      46.041   2.599   7.771  0.00  0.00    +0.000 A 
ATOM      8  C   UNL     1      46.524   1.285   7.920  0.00  0.00    +0.000 A 
ATOM      9  C   UNL     1      47.288   0.668   6.922  0.00  0.00    +0.000 A 
ATOM     10  C   UNL     1      47.601   1.359   5.757  0.00  0.00    +0.000 A 
ATOM     11  C   UNL     1      47.157   2.666   5.591  0.00  0.00    +0.000 A 
ATOM     12  C   UNL     1      46.386   3.277   6.586  0.00  0.00    +0.000 A 
ENDBRANCH   5   7
BRANCH   1  13
ATOM     13  C   UNL     1      44.302   2.906  12.515  0.00  0.00    +0.000 C 
BRANCH  13  14
ATOM     14  N   UNL     1      44.449   4.036  13.422  0.00  0.00    +0.000 N 
ATOM     15  H   UNL     1      43.601   4.584  13.540  0.00  0.00    +0.000 HD
BRANCH  14  22
ATOM     16  F   UNL     1      47.178   3.188  13.989  0.00  0.00    +0.000 F 
ATOM     17  C   UNL     1      46.918   4.464  13.655  0.00  0.00    +0.000 A 
ATOM     18  N   UNL     1      47.995   5.285  13.630  0.00  0.00    +0.000 NA
ATOM     19  C   UNL     1      47.766   6.569  13.300  0.00  0.00    +0.000 A 
ATOM     20  C   UNL     1      46.514   7.068  12.991  0.00  0.00    +0.000 A 
ATOM     21  C   UNL     1      45.428   6.193  13.011  0.00  0.00    +0.000 A 
ATOM     22  C   UNL     1      45.600   4.840  13.329  0.00  0.00    +0.000 A 
ENDBRANCH  14  22
ENDBRANCH  13  14
ENDBRANCH   1  13
TORSDOF 4
ENDMDL
MODEL 6
REMARK VINA RESULT:    -6.923      2.599      3.484
REMARK INTER + INTRA:          -9.437
REMARK INTER:                  -8.938
REMARK INTRA:                  -0.499
REMARK UNBOUND:                -0.895
REMARK  Name = 
REMARK  4 active torsions:
REMARK  status: ('A' for Active; 'I' for Inactive)
REMARK    1  A    between atoms: C_7  and  N_8
REMARK    2  A    between atoms: N_8  and  C_9
REMARK    3  A    between atoms: C_9  and  C_10
REMARK    4  A    between atoms: C_14  and  C_15
REMARK                            x       y       z     vdW  Elec       q    Type
REMARK                         _______ _______ _______ _____ _____    ______ ____
ROOT
ATOM      1  C   UNL     1      44.982   5.418  10.611  0.00  0.00    +0.000 A 
ATOM      2  C   UNL     1      43.900   4.736  11.149  0.00  0.00    +0.000 A 
ATOM      3  N   UNL     1      43.471   3.537  10.705  0.00  0.00    +0.000 NA
ATOM      4  C   UNL     1      44.161   2.987   9.673  0.00  0.00    +0.000 A 
ATOM      5  C   UNL     1      45.286   3.547   9.062  0.00  0.00    +0.000 A 
ATOM      6  C   UNL     1      45.687   4.792   9.572  0.00  0.00    +0.000 A 
ENDROOT
BRANCH   5   7
ATOM      7  C   UNL     1      46.014   2.871   7.966  0.00  0.00    +0.000 A 
ATOM      8  C   UNL     1      46.425   1.528   8.071  0.00  0.00    +0.000 A 
ATOM      9  C   UNL     1      47.072   0.875   7.015  0.00  0.00    +0.000 A 
ATOM     10  C   UNL     1      47.336   1.556   5.832  0.00  0.00    +0.000 A 
ATOM     11  C   UNL     1      46.962   2.889   5.707  0.00  0.00    +0.000 A 
ATOM     12  C   UNL     1      46.308   3.537   6.761  0.00  0.00    +0.000 A 
ENDBRANCH   5   7
BRANCH   1  13
ATOM     13  C   UNL     1      45.369   6.781  11.113  0.00  0.00    +0.000 C 
BRANCH  13  14
ATOM     14  N   UNL     1      44.183   7.568  11.418  0.00  0.00    +0.000 N 
ATOM     15  H   UNL     1      43.329   7.209  10.999  0.00  0.00    +0.000 HD
BRANCH  14  22
ATOM     16  F   UNL     1      42.198   9.341  10.232  0.00  0.00    +0.000 F 
ATOM     17  C   UNL     1      43.341   9.839  10.734  0.00  0.00    +0.000 A 
ATOM     18  N   UNL     1      43.483  11.181  10.620  0.00  0.00    +0.000 NA
ATOM     19  C   UNL     1      44.618  11.711  11.114  0.00  0.00    +0.000 A 
ATOM     20  C   UNL     1      45.612  10.962  11.715  0.00  0.00    +0.000 A 
ATOM     21  C   UNL     1      45.428   9.584  11.830  0.00  0.00    +0.000 A 
ATOM     22  C   UNL     1      44.261   8.972  11.355  0.00  0.00    +0.000 A 
ENDBRANCH  14  22
ENDBRANCH  13  14
ENDBRANCH   1  13
TORSDOF 4
ENDMDL
MODEL 7
REMARK VINA RESULT:    -6.903      2.270      6.220
REMARK INTER + INTRA:          -9.413
REMARK INTER:                  -8.965
REMARK INTRA:                  -0.448
REMARK UNBOUND:                -0.895
REMARK  Name = 
REMARK  4 active torsions:
REMARK  status: ('A' for Active; 'I' for Inactive)
REMARK    1  A    between atoms: C_7  and  N_8
REMARK    2  A    between atoms: N_8  and  C_9
REMARK    3  A    between atoms: C_9  and  C_10
REMARK    4  A    between atoms: C_14  and  C_15
REMARK                            x       y       z     vdW  Elec       q    Type
REMARK                         _______ _______ _______ _____ _____    ______ ____
ROOT
ATOM      1  C   UNL     1      44.639   4.527  10.892  0.00  0.00    +0.000 A 
ATOM      2  C   UNL     1      44.094   3.864  11.981  0.00  0.00    +0.000 A 
ATOM      3  N   UNL     1      44.566   3.969  13.240  0.00  0.00    +0.000 NA
ATOM      4  C   UNL     1      45.636   4.785  13.422  0.00  0.00    +0.000 A 
ATOM      5  C   UNL     1      46.261   5.537  12.423  0.00  0.00    +0.000 A 
ATOM      6  C   UNL     1      45.720   5.388  11.135  0.00  0.00    +0.000 A 
ENDROOT
BRANCH   5   7
ATOM      7  C   UNL     1      47.401   6.437  12.702  0.00  0.00    +0.000 A 
ATOM      8  C   UNL     1      48.061   6.428  13.945  0.00  0.00    +0.000 A 
ATOM      9  C   UNL     1      49.170   7.247  14.192  0.00  0.00    +0.000 A 
ATOM     10  C   UNL     1      49.635   8.108  13.203  0.00  0.00    +0.000 A 
ATOM     11  C   UNL     1      48.988   8.155  11.973  0.00  0.00    +0.000 A 
ATOM     12  C   UNL     1      47.886   7.329  11.726  0.00  0.00    +0.000 A 
ENDBRANCH   5   7
BRANCH   1  13
ATOM     13  C   UNL     1      44.102   4.315   9.503  0.00  0.00    +0.000 C 
BRANCH  13  14
ATOM     14  N   UNL     1      44.288   2.931   9.090  0.00  0.00    +0.000 N 
ATOM     15  H   UNL     1      44.010   2.250   9.792  0.00  0.00    +0.000 HD
BRANCH  14  22
ATOM     16  F   UNL     1      46.127   4.756   7.758  0.00  0.00    +0.000 F 
ATOM     17  C   UNL     1      46.348   3.430   7.735  0.00  0.00    +0.000 A 
ATOM     18  N   UNL     1      47.447   3.041   7.044  0.00  0.00    +0.000 NA
ATOM     19  C   UNL     1      47.695   1.719   7.002  0.00  0.00    +0.000 A 
ATOM     20  C   UNL     1      46.899   0.772   7.618  0.00  0.00    +0.000 A 
ATOM     21  C   UNL     1      45.783   1.207   8.334  0.00  0.00    +0.000 A 
ATOM     22  C   UNL     1      45.479   2.570   8.434  0.00  0.00    +0.000 A 
ENDBRANCH  14  22
ENDBRANCH  13  14
ENDBRANCH   1  13
TORSDOF 4
ENDMDL
MODEL 8
REMARK VINA RESULT:    -6.803      1.716      2.007
REMARK INTER + INTRA:          -9.289
REMARK INTER:                  -8.725
REMARK INTRA:                  -0.565
REMARK UNBOUND:                -0.895
REMARK  Name = 
REMARK  4 active torsions:
REMARK  status: ('A' for Active; 'I' for Inactive)
REMARK    1  A    between atoms: C_7  and  N_8
REMARK    2  A    between atoms: N_8  and  C_9
REMARK    3  A    between atoms: C_9  and  C_10
REMARK    4  A    between atoms: C_14  and  C_15
REMARK                            x       y       z     vdW  Elec       q    Type
REMARK                         _______ _______ _______ _____ _____    ______ ____
ROOT
ATOM      1  C   UNL     1      44.753   4.023  12.120  0.00  0.00    +0.000 A 
ATOM      2  C   UNL     1      43.593   3.292  12.329  0.00  0.00    +0.000 A 
ATOM      3  N   UNL     1      43.075   2.430  11.431  0.00  0.00    +0.000 NA
ATOM      4  C   UNL     1      43.754   2.286  10.264  0.00  0.00    +0.000 A 
ATOM      5  C   UNL     1      44.948   2.932   9.937  0.00  0.00    +0.000 A 
ATOM      6  C   UNL     1      45.440   3.812  10.915  0.00  0.00    +0.000 A 
ENDROOT
BRANCH   5   7
ATOM      7  C   UNL     1      45.656   2.696   8.659  0.00  0.00    +0.000 A 
ATOM      8  C   UNL     1      45.847   3.727   7.721  0.00  0.00    +0.000 A 
ATOM      9  C   UNL     1      46.558   3.515   6.533  0.00  0.00    +0.000 A 
ATOM     10  C   UNL     1      47.082   2.258   6.250  0.00  0.00    +0.000 A 
ATOM     11  C   UNL     1      46.889   1.214   7.147  0.00  0.00    +0.000 A 
ATOM     12  C   UNL     1      46.185   1.431   8.337  0.00  0.00    +0.000 A 
ENDBRANCH   5   7
BRANCH   1  13
ATOM     13  C   UNL     1      45.242   5.016  13.139  0.00  0.00    +0.000 C 
BRANCH  13  14
ATOM     14  N   UNL     1      46.062   4.352  14.142  0.00  0.00    +0.000 N 
ATOM     15  H   UNL     1      45.528   3.872  14.862  0.00  0.00    +0.000 HD
BRANCH  14  22
ATOM     16  F   UNL     1      47.385   3.770  16.672  0.00  0.00    +0.000 F 
ATOM     17  C   UNL     1      47.794   4.800  15.912  0.00  0.00    +0.000 A 
ATOM     18  N   UNL     1      48.820   5.522  16.423  0.00  0.00    +0.000 NA
ATOM     19  C   UNL     1      49.253   6.561  15.685  0.00  0.00    +0.000 A 
ATOM     20  C   UNL     1      48.710   6.908  14.463  0.00  0.00    +0.000 A 
ATOM     21  C   UNL     1      47.664   6.136  13.957  0.00  0.00    +0.000 A 
ATOM     22  C   UNL     1      47.179   5.030  14.666  0.00  0.00    +0.000 A 
ENDBRANCH  14  22
ENDBRANCH  13  14
ENDBRANCH   1  13
TORSDOF 4
ENDMDL
MODEL 9
REMARK VINA RESULT:    -6.611      2.547      4.546
REMARK INTER + INTRA:          -9.052
REMARK INTER:                  -8.276
REMARK INTRA:                  -0.776
REMARK UNBOUND:                -0.895
REMARK  Name = 
REMARK  4 active torsions:
REMARK  status: ('A' for Active; 'I' for Inactive)
REMARK    1  A    between atoms: C_7  and  N_8
REMARK    2  A    between atoms: N_8  and  C_9
REMARK    3  A    between atoms: C_9  and  C_10
REMARK    4  A    between atoms: C_14  and  C_15
REMARK                            x       y       z     vdW  Elec       q    Type
REMARK                         _______ _______ _______ _____ _____    ______ ____
ROOT
ATOM      1  C   UNL     1      47.239   7.008  13.201  0.00  0.00    +0.000 A 
ATOM      2  C   UNL     1      46.438   8.141  13.194  0.00  0.00    +0.000 A 
ATOM      3  N   UNL     1      45.369   8.301  12.388  0.00  0.00    +0.000 NA
ATOM      4  C   UNL     1      45.081   7.274  11.547  0.00  0.00    +0.000 A 
ATOM      5  C   UNL     1      45.781   6.067  11.474  0.00  0.00    +0.000 A 
ATOM      6  C   UNL     1      46.880   5.958  12.342  0.00  0.00    +0.000 A 
ENDROOT
BRANCH   5   7
ATOM      7  C   UNL     1      45.385   4.973  10.560  0.00  0.00    +0.000 A 
ATOM      8  C   UNL     1      44.701   3.834  11.025  0.00  0.00    +0.000 A 
ATOM      9  C   UNL     1      44.285   2.822  10.151  0.00  0.00    +0.000 A 
ATOM     10  C   UNL     1      44.560   2.918   8.791  0.00  0.00    +0.000 A 
ATOM     11  C   UNL     1      45.255   4.021   8.306  0.00  0.00    +0.000 A 
ATOM     12  C   UNL     1      45.662   5.035   9.181  0.00  0.00    +0.000 A 
ENDBRANCH   5   7
BRANCH   1  13
ATOM     13  C   UNL     1      48.454   6.920  14.083  0.00  0.00    +0.000 C 
BRANCH  13  14
ATOM     14  N   UNL     1      48.062   6.727  15.472  0.00  0.00    +0.000 N 
ATOM     15  H   UNL     1      48.367   7.471  16.095  0.00  0.00    +0.000 HD
BRANCH  14  22
ATOM     16  F   UNL     1      46.316   4.440  15.016  0.00  0.00    +0.000 F 
ATOM     17  C   UNL     1      47.337   4.353  15.886  0.00  0.00    +0.000 A 
ATOM     18  N   UNL     1      47.457   3.161  16.518  0.00  0.00    +0.000 NA
ATOM     19  C   UNL     1      48.470   3.043  17.396  0.00  0.00    +0.000 A 
ATOM     20  C   UNL     1      49.367   4.059  17.668  0.00  0.00    +0.000 A 
ATOM     21  C   UNL     1      49.225   5.269  16.990  0.00  0.00    +0.000 A 
ATOM     22  C   UNL     1      48.204   5.452  16.049  0.00  0.00    +0.000 A 
ENDBRANCH  14  22
ENDBRANCH  13  14
ENDBRANCH   1  13
TORSDOF 4
ENDMDL
