MODEL 1
REMARK VINA RESULT:    -8.182      0.000      0.000
REMARK INTER + INTRA:         -11.646
REMARK INTER:                 -11.052
REMARK INTRA:                  -0.594
REMARK UNBOUND:                -0.594
REMARK  Name = 
REMARK  7 active torsions:
REMARK  status: ('A' for Active; 'I' for Inactive)
REMARK    1  A    between atoms: C_1  and  C_2
REMARK    2  A    between atoms: C_6  and  C_7
REMARK    3  A    between atoms: C_7  and  O_8
REMARK    4  A    between atoms: O_8  and  C_9
REMARK    5  A    between atoms: C_12  and  C_13
REMARK    6  A    between atoms: C_13  and  N_14
REMARK    7  A    between atoms: C_15  and  C_17
REMARK                            x       y       z     vdW  Elec       q    Type
REMARK                         _______ _______ _______ _____ _____    ______ ____
ROOT
ATOM      1  C   UNL     1      46.939   7.899  13.326  0.00  0.00    +0.000 C 
ENDROOT
BRANCH   1   5
ATOM      2  C   UNL     1      44.675   5.407  10.806  0.00  0.00    +0.000 A 
ATOM      3  C   UNL     1      44.216   5.732  12.076  0.00  0.00    +0.000 A 
ATOM      4  N   UNL     1      44.904   6.551  12.919  0.00  0.00    +0.000 NA
ATOM      5  C   UNL     1      46.094   7.012  12.448  0.00  0.00    +0.000 A 
ATOM      6  C   UNL     1      46.556   6.649  11.188  0.00  0.00    +0.000 A 
ATOM      7  N   UNL     1      45.859   5.854  10.339  0.00  0.00    +0.000 NA
BRANCH   2   8
ATOM      8  O   UNL     1      43.933   4.545  10.027  0.00  0.00    +0.000 OA
BRANCH   8   9
ATOM      9  C   UNL     1      44.415   3.196  10.126  0.00  0.00    +0.000 C 
BRANCH   9  15
ATOM     10  C   UNL     1      46.915  -0.171   7.622  0.00  0.00    +0.000 C 
ATOM     11  C   UNL     1      46.448   1.250   7.715  0.00  0.00    +0.000 A 
ATOM     12  C   UNL     1      46.788   2.175   6.735  0.00  0.00    +0.000 A 
ATOM     13  C   UNL     1      46.332   3.483   6.863  0.00  0.00    +0.000 A 
ATOM     14  C   UNL     1      45.555   3.831   7.964  0.00  0.00    +0.000 A 
ATOM     15  C   UNL     1      45.261   2.858   8.916  0.00  0.00    +0.000 A 
ATOM     16  N   UNL     1      45.694   1.574   8.794  0.00  0.00    +0.000 NA
ENDBRANCH   9  15
ENDBRANCH   8   9
ENDBRANCH   2   8
ENDBRANCH   1   5
BRANCH   1  17
ATOM     17  N   UNL     1      47.436   7.207  14.490  0.00  0.00    +0.000 N 
ATOM     18  C   UNL     1      48.741   6.803  14.607  0.00  0.00    +0.000 C 
ATOM     19  O   UNL     1      49.589   7.058  13.756  0.00  0.00    +0.000 OA
ATOM     20  H   UNL     1      46.728   6.754  15.057  0.00  0.00    +0.000 HD
BRANCH  18  21
ATOM     21  C   UNL     1      49.076   6.113  15.854  0.00  0.00    +0.000 A 
ATOM     22  C   UNL     1      50.147   6.526  16.629  0.00  0.00    +0.000 A 
ATOM     23  S   UNL     1      50.303   5.651  18.088  0.00  0.00    +0.000 S 
ATOM     24  C   UNL     1      48.983   4.649  17.694  0.00  0.00    +0.000 A 
ATOM     25  N   UNL     1      48.574   3.656  18.528  0.00  0.00    +0.000 NA
ATOM     26  C   UNL     1      47.579   2.961  18.081  0.00  0.00    +0.000 A 
ATOM     27  N   UNL     1      46.961   3.165  16.878  0.00  0.00    +0.000 N 
ATOM     28  C   UNL     1      47.321   4.170  16.013  0.00  0.00    +0.000 A 
ATOM     29  O   UNL     1      46.713   4.361  14.968  0.00  0.00    +0.000 OA
ATOM     30  C   UNL     1      48.432   4.982  16.472  0.00  0.00    +0.000 A 
ATOM     31  H   UNL     1      46.182   2.592  16.583  0.00  0.00    +0.000 HD
ENDBRANCH  18  21
ENDBRANCH   1  17
TORSDOF 6
ENDMDL
MODEL 2
REMARK VINA RESULT:    -8.052      3.113      5.558
REMARK INTER + INTRA:         -11.470
REMARK INTER:                 -10.812
REMARK INTRA:                  -0.658
REMARK UNBOUND:                -0.594
REMARK  Name = 
REMARK  7 active torsions:
REMARK  status: ('A' for Active; 'I' for Inactive)
REMARK    1  A    between atoms: C_1  and  C_2
REMARK    2  A    between atoms: C_6  and  C_7
REMARK    3  A    between atoms: C_7  and  O_8
REMARK    4  A    between atoms: O_8  and  C_9
REMARK    5  A    between atoms: C_12  and  C_13
REMARK    6  A    between atoms: C_13  and  N_14
REMARK    7  A    between atoms: C_15  and  C_17
REMARK                            x       y       z     vdW  Elec       q    Type
REMARK                         _______ _______ _______ _____ _____    ______ ____
ROOT
ATOM      1  C   UNL     1      43.998   4.219   9.730  0.00  0.00    +0.000 C 
ENDROOT
BRANCH   1   5
ATOM      2  C   UNL     1      46.664   1.937   7.412  0.00  0.00    +0.000 A 
ATOM      3  C   UNL     1      46.497   3.294   7.167  0.00  0.00    +0.000 A 
ATOM      4  N   UNL     1      45.662   4.077   7.903  0.00  0.00    +0.000 NA
ATOM      5  C   UNL     1      44.971   3.438   8.885  0.00  0.00    +0.000 A 
ATOM      6  C   UNL     1      45.122   2.071   9.096  0.00  0.00    +0.000 A 
ATOM      7  N   UNL     1      45.973   1.297   8.378  0.00  0.00    +0.000 NA
BRANCH   2   8
ATOM      8  O   UNL     1      47.505   1.208   6.600  0.00  0.00    +0.000 OA
BRANCH   8   9
ATOM      9  C   UNL     1      47.550   1.744   5.268  0.00  0.00    +0.000 C 
BRANCH   9  15
ATOM     10  C   UNL     1      46.790  -2.901   3.964  0.00  0.00    +0.000 C 
ATOM     11  C   UNL     1      46.552  -1.450   3.676  0.00  0.00    +0.000 A 
ATOM     12  C   UNL     1      45.798  -1.058   2.576  0.00  0.00    +0.000 A 
ATOM     13  C   UNL     1      45.603   0.299   2.348  0.00  0.00    +0.000 A 
ATOM     14  C   UNL     1      46.168   1.227   3.218  0.00  0.00    +0.000 A 
ATOM     15  C   UNL     1      46.922   0.767   4.295  0.00  0.00    +0.000 A 
ATOM     16  N   UNL     1      47.110  -0.559   4.532  0.00  0.00    +0.000 NA
ENDBRANCH   9  15
ENDBRANCH   8   9
ENDBRANCH   2   8
ENDBRANCH   1   5
BRANCH   1  17
ATOM     17  N   UNL     1      44.590   5.407  10.294  0.00  0.00    +0.000 N 
ATOM     18  C   UNL     1      44.768   5.572  11.644  0.00  0.00    +0.000 C 
ATOM     19  O   UNL     1      44.493   4.695  12.458  0.00  0.00    +0.000 OA
ATOM     20  H   UNL     1      44.566   6.226   9.697  0.00  0.00    +0.000 HD
BRANCH  18  21
ATOM     21  C   UNL     1      45.382   6.839  12.047  0.00  0.00    +0.000 A 
ATOM     22  C   UNL     1      44.849   8.050  11.635  0.00  0.00    +0.000 A 
ATOM     23  S   UNL     1      45.656   9.404  12.295  0.00  0.00    +0.000 S 
ATOM     24  C   UNL     1      46.783   8.410  13.099  0.00  0.00    +0.000 A 
ATOM     25  N   UNL     1      47.779   8.940  13.858  0.00  0.00    +0.000 NA
ATOM     26  C   UNL     1      48.574   8.065  14.380  0.00  0.00    +0.000 A 
ATOM     27  N   UNL     1      48.467   6.712  14.211  0.00  0.00    +0.000 N 
ATOM     28  C   UNL     1      47.464   6.128  13.474  0.00  0.00    +0.000 A 
ATOM     29  O   UNL     1      47.364   4.911  13.384  0.00  0.00    +0.000 OA
ATOM     30  C   UNL     1      46.542   7.070  12.869  0.00  0.00    +0.000 A 
ATOM     31  H   UNL     1      49.116   6.073  14.650  0.00  0.00    +0.000 HD
ENDBRANCH  18  21
ENDBRANCH   1  17
TORSDOF 6
ENDMDL
MODEL 3
REMARK VINA RESULT:    -7.805      2.028      2.287
REMARK INTER + INTRA:         -11.136
REMARK INTER:                 -10.231
REMARK INTRA:                  -0.904
REMARK UNBOUND:                -0.594
REMARK  Name = 
REMARK  7 active torsions:
REMARK  status: ('A' for Active; 'I' for Inactive)
REMARK    1  A    between atoms: C_1  and  C_2
REMARK    2  A    between atoms: C_6  and  C_7
REMARK    3  A    between atoms: C_7  and  O_8
REMARK    4  A    between atoms: O_8  and  C_9
REMARK    5  A    between atoms: C_12  and  C_13
REMARK    6  A    between atoms: C_13  and  N_14
REMARK    7  A    between atoms: C_15  and  C_17
REMARK                            x       y       z     vdW  Elec       q    Type
REMARK                         _______ _______ _______ _____ _____    ______ ____
ROOT
ATOM      1  C   UNL     1      48.122   6.648  14.028  0.00  0.00    +0.000 C 
ENDROOT
BRANCH   1   5
ATOM      2  C   UNL     1      45.426   3.968  12.231  0.00  0.00    +0.000 A 
ATOM      3  C   UNL     1      46.437   3.503  13.061  0.00  0.00    +0.000 A 
ATOM      4  N   UNL     1      47.320   4.333  13.681  0.00  0.00    +0.000 NA
ATOM      5  C   UNL     1      47.169   5.658  13.411  0.00  0.00    +0.000 A 
ATOM      6  C   UNL     1      46.173   6.105  12.550  0.00  0.00    +0.000 A 
ATOM      7  N   UNL     1      45.278   5.280  11.953  0.00  0.00    +0.000 NA
BRANCH   2   8
ATOM      8  O   UNL     1      44.593   3.059  11.616  0.00  0.00    +0.000 OA
BRANCH   8   9
ATOM      9  C   UNL     1      44.078   3.566  10.375  0.00  0.00    +0.000 C 
BRANCH   9  15
ATOM     10  C   UNL     1      46.609   0.259   7.823  0.00  0.00    +0.000 C 
ATOM     11  C   UNL     1      46.257   1.701   8.028  0.00  0.00    +0.000 A 
ATOM     12  C   UNL     1      46.810   2.690   7.222  0.00  0.00    +0.000 A 
ATOM     13  C   UNL     1      46.454   4.015   7.449  0.00  0.00    +0.000 A 
ATOM     14  C   UNL     1      45.562   4.317   8.474  0.00  0.00    +0.000 A 
ATOM     15  C   UNL     1      45.055   3.279   9.253  0.00  0.00    +0.000 A 
ATOM     16  N   UNL     1      45.389   1.980   9.031  0.00  0.00    +0.000 NA
ENDBRANCH   9  15
ENDBRANCH   8   9
ENDBRANCH   2   8
ENDBRANCH   1   5
BRANCH   1  17
ATOM     17  N   UNL     1      48.065   6.643  15.469  0.00  0.00    +0.000 N 
ATOM     18  C   UNL     1      48.842   7.470  16.241  0.00  0.00    +0.000 C 
ATOM     19  O   UNL     1      49.590   8.313  15.756  0.00  0.00    +0.000 OA
ATOM     20  H   UNL     1      47.683   5.800  15.882  0.00  0.00    +0.000 HD
BRANCH  18  21
ATOM     21  C   UNL     1      48.659   7.333  17.687  0.00  0.00    +0.000 A 
ATOM     22  C   UNL     1      48.316   8.427  18.467  0.00  0.00    +0.000 A 
ATOM     23  S   UNL     1      48.056   8.031  20.108  0.00  0.00    +0.000 S 
ATOM     24  C   UNL     1      48.459   6.398  19.837  0.00  0.00    +0.000 A 
ATOM     25  N   UNL     1      48.448   5.488  20.848  0.00  0.00    +0.000 NA
ATOM     26  C   UNL     1      48.806   4.296  20.496  0.00  0.00    +0.000 A 
ATOM     27  N   UNL     1      49.176   3.932  19.231  0.00  0.00    +0.000 N 
ATOM     28  C   UNL     1      49.180   4.809  18.172  0.00  0.00    +0.000 A 
ATOM     29  O   UNL     1      49.466   4.440  17.040  0.00  0.00    +0.000 OA
ATOM     30  C   UNL     1      48.782   6.161  18.515  0.00  0.00    +0.000 A 
ATOM     31  H   UNL     1      49.441   2.982  19.013  0.00  0.00    +0.000 HD
ENDBRANCH  18  21
ENDBRANCH   1  17
TORSDOF 6
ENDMDL
MODEL 4
REMARK VINA RESULT:    -7.685      2.148      3.617
REMARK INTER + INTRA:         -10.974
REMARK INTER:                 -10.006
REMARK INTRA:                  -0.967
REMARK UNBOUND:                -0.594
REMARK  Name = 
REMARK  7 active torsions:
REMARK  status: ('A' for Active; 'I' for Inactive)
REMARK    1  A    between atoms: C_1  and  C_2
REMARK    2  A    between atoms: C_6  and  C_7
REMARK    3  A    between atoms: C_7  and  O_8
REMARK    4  A    between atoms: O_8  and  C_9
REMARK    5  A    between atoms: C_12  and  C_13
REMARK    6  A    between atoms: C_13  and  N_14
REMARK    7  A    between atoms: C_15  and  C_17
REMARK                            x       y       z     vdW  Elec       q    Type
REMARK                         _______ _______ _______ _____ _____    ______ ____
ROOT
ATOM      1  C   UNL     1      47.047   4.611  14.931  0.00  0.00    +0.000 C 
ENDROOT
BRANCH   1   5
ATOM      2  C   UNL     1      45.034   4.638  11.239  0.00  0.00    +0.000 A 
ATOM      3  C   UNL     1      44.924   3.551  12.096  0.00  0.00    +0.000 A 
ATOM      4  N   UNL     1      45.540   3.505  13.309  0.00  0.00    +0.000 NA
ATOM      5  C   UNL     1      46.301   4.588  13.622  0.00  0.00    +0.000 A 
ATOM      6  C   UNL     1      46.430   5.654  12.738  0.00  0.00    +0.000 A 
ATOM      7  N   UNL     1      45.796   5.710  11.541  0.00  0.00    +0.000 NA
BRANCH   2   8
ATOM      8  O   UNL     1      44.404   4.591  10.014  0.00  0.00    +0.000 OA
BRANCH   8   9
ATOM      9  C   UNL     1      44.184   3.239   9.583  0.00  0.00    +0.000 C 
BRANCH   9  15
ATOM     10  C   UNL     1      46.888  -0.361   7.691  0.00  0.00    +0.000 C 
ATOM     11  C   UNL     1      46.560   1.101   7.708  0.00  0.00    +0.000 A 
ATOM     12  C   UNL     1      47.232   1.990   6.878  0.00  0.00    +0.000 A 
ATOM     13  C   UNL     1      46.894   3.338   6.928  0.00  0.00    +0.000 A 
ATOM     14  C   UNL     1      45.900   3.762   7.806  0.00  0.00    +0.000 A 
ATOM     15  C   UNL     1      45.275   2.819   8.618  0.00  0.00    +0.000 A 
ATOM     16  N   UNL     1      45.591   1.498   8.569  0.00  0.00    +0.000 NA
ENDBRANCH   9  15
ENDBRANCH   8   9
ENDBRANCH   2   8
ENDBRANCH   1   5
BRANCH   1  17
ATOM     17  N   UNL     1      47.713   5.869  15.163  0.00  0.00    +0.000 N 
ATOM     18  C   UNL     1      48.765   5.997  16.034  0.00  0.00    +0.000 C 
ATOM     19  O   UNL     1      49.251   5.038  16.627  0.00  0.00    +0.000 OA
ATOM     20  H   UNL     1      47.177   6.693  14.915  0.00  0.00    +0.000 HD
BRANCH  18  21
ATOM     21  C   UNL     1      49.323   7.346  16.152  0.00  0.00    +0.000 A 
ATOM     22  C   UNL     1      49.365   7.993  17.376  0.00  0.00    +0.000 A 
ATOM     23  S   UNL     1      50.143   9.513  17.311  0.00  0.00    +0.000 S 
ATOM     24  C   UNL     1      50.387   9.378  15.630  0.00  0.00    +0.000 A 
ATOM     25  N   UNL     1      51.005  10.362  14.923  0.00  0.00    +0.000 NA
ATOM     26  C   UNL     1      51.091  10.132  13.654  0.00  0.00    +0.000 A 
ATOM     27  N   UNL     1      50.613   9.015  13.027  0.00  0.00    +0.000 N 
ATOM     28  C   UNL     1      50.004   7.983  13.701  0.00  0.00    +0.000 A 
ATOM     29  O   UNL     1      49.634   6.971  13.118  0.00  0.00    +0.000 OA
ATOM     30  C   UNL     1      49.887   8.192  15.131  0.00  0.00    +0.000 A 
ATOM     31  H   UNL     1      50.715   8.886  12.029  0.00  0.00    +0.000 HD
ENDBRANCH  18  21
ENDBRANCH   1  17
TORSDOF 6
ENDMDL
MODEL 5
REMARK VINA RESULT:    -7.668      2.635      3.055
REMARK INTER + INTRA:         -10.951
REMARK INTER:                 -10.149
REMARK INTRA:                  -0.803
REMARK UNBOUND:                -0.594
REMARK  Name = 
REMARK  7 active torsions:
REMARK  status: ('A' for Active; 'I' for Inactive)
REMARK    1  A    between atoms: C_1  and  C_2
REMARK    2  A    between atoms: C_6  and  C_7
REMARK    3  A    between atoms: C_7  and  O_8
REMARK    4  A    between atoms: O_8  and  C_9
REMARK    5  A    between atoms: C_12  and  C_13
REMARK    6  A    between atoms: C_13  and  N_14
REMARK    7  A    between atoms: C_15  and  C_17
REMARK                            x       y       z     vdW  Elec       q    Type
REMARK                         _______ _______ _______ _____ _____    ______ ____
ROOT
ATOM      1  C   UNL     1      47.753   4.254  15.321  0.00  0.00    +0.000 C 
ENDROOT
BRANCH   1   5
ATOM      2  C   UNL     1      45.386   4.767  11.883  0.00  0.00    +0.000 A 
ATOM      3  C   UNL     1      45.517   3.516  12.471  0.00  0.00    +0.000 A 
ATOM      4  N   UNL     1      46.255   3.304  13.596  0.00  0.00    +0.000 NA
ATOM      5  C   UNL     1      46.887   4.400  14.097  0.00  0.00    +0.000 A 
ATOM      6  C   UNL     1      46.775   5.640  13.476  0.00  0.00    +0.000 A 
ATOM      7  N   UNL     1      46.020   5.854  12.372  0.00  0.00    +0.000 NA
BRANCH   2   8
ATOM      8  O   UNL     1      44.646   4.890  10.728  0.00  0.00    +0.000 OA
BRANCH   8   9
ATOM      9  C   UNL     1      44.308   3.607  10.177  0.00  0.00    +0.000 C 
BRANCH   9  15
ATOM     10  C   UNL     1      46.768   0.186   7.707  0.00  0.00    +0.000 C 
ATOM     11  C   UNL     1      46.415   1.635   7.853  0.00  0.00    +0.000 A 
ATOM     12  C   UNL     1      46.935   2.584   6.980  0.00  0.00    +0.000 A 
ATOM     13  C   UNL     1      46.580   3.917   7.153  0.00  0.00    +0.000 A 
ATOM     14  C   UNL     1      45.723   4.267   8.192  0.00  0.00    +0.000 A 
ATOM     15  C   UNL     1      45.248   3.268   9.038  0.00  0.00    +0.000 A 
ATOM     16  N   UNL     1      45.580   1.960   8.870  0.00  0.00    +0.000 NA
ENDBRANCH   9  15
ENDBRANCH   8   9
ENDBRANCH   2   8
ENDBRANCH   1   5
BRANCH   1  17
ATOM     17  N   UNL     1      47.685   5.408  16.184  0.00  0.00    +0.000 N 
ATOM     18  C   UNL     1      48.710   6.314  16.287  0.00  0.00    +0.000 C 
ATOM     19  O   UNL     1      49.728   6.238  15.604  0.00  0.00    +0.000 OA
ATOM     20  H   UNL     1      47.008   5.344  16.935  0.00  0.00    +0.000 HD
BRANCH  18  21
ATOM     21  C   UNL     1      48.476   7.425  17.211  0.00  0.00    +0.000 A 
ATOM     22  C   UNL     1      48.593   8.739  16.787  0.00  0.00    +0.000 A 
ATOM     23  S   UNL     1      48.182   9.877  17.993  0.00  0.00    +0.000 S 
ATOM     24  C   UNL     1      47.899   8.648  19.137  0.00  0.00    +0.000 A 
ATOM     25  N   UNL     1      47.516   8.938  20.409  0.00  0.00    +0.000 NA
ATOM     26  C   UNL     1      47.369   7.904  21.171  0.00  0.00    +0.000 A 
ATOM     27  N   UNL     1      47.574   6.610  20.780  0.00  0.00    +0.000 N 
ATOM     28  C   UNL     1      47.937   6.264  19.500  0.00  0.00    +0.000 A 
ATOM     29  O   UNL     1      48.061   5.092  19.167  0.00  0.00    +0.000 OA
ATOM     30  C   UNL     1      48.111   7.391  18.605  0.00  0.00    +0.000 A 
ATOM     31  H   UNL     1      47.437   5.838  21.420  0.00  0.00    +0.000 HD
ENDBRANCH  18  21
ENDBRANCH   1  17
TORSDOF 6
ENDMDL
MODEL 6
REMARK VINA RESULT:    -7.578      2.530      3.270
REMARK INTER + INTRA:         -10.830
REMARK INTER:                  -9.974
REMARK INTRA:                  -0.856
REMARK UNBOUND:                -0.594
REMARK  Name = 
REMARK  7 active torsions:
REMARK  status: ('A' for Active; 'I' for Inactive)
REMARK    1  A    between atoms: C_1  and  C_2
REMARK    2  A    between atoms: C_6  and  C_7
REMARK    3  A    between atoms: C_7  and  O_8
REMARK    4  A    between atoms: O_8  and  C_9
REMARK    5  A    between atoms: C_12  and  C_13
REMARK    6  A    between atoms: C_13  and  N_14
REMARK    7  A    between atoms: C_15  and  C_17
REMARK                            x       y       z     vdW  Elec       q    Type
REMARK                         _______ _______ _______ _____ _____    ______ ____
ROOT
ATOM      1  C   UNL     1      47.395   4.043  15.446  0.00  0.00    +0.000 C 
ENDROOT
BRANCH   1   5
ATOM      2  C   UNL     1      45.486   5.666  12.068  0.00  0.00    +0.000 A 
ATOM      3  C   UNL     1      44.799   4.821  12.931  0.00  0.00    +0.000 A 
ATOM      4  N   UNL     1      45.368   4.289  14.047  0.00  0.00    +0.000 NA
ATOM      5  C   UNL     1      46.673   4.614  14.252  0.00  0.00    +0.000 A 
ATOM      6  C   UNL     1      47.358   5.432  13.360  0.00  0.00    +0.000 A 
ATOM      7  N   UNL     1      46.783   5.982  12.263  0.00  0.00    +0.000 NA
BRANCH   2   8
ATOM      8  O   UNL     1      44.846   6.137  10.942  0.00  0.00    +0.000 OA
BRANCH   8   9
ATOM      9  C   UNL     1      43.847   5.216  10.477  0.00  0.00    +0.000 C 
BRANCH   9  15
ATOM     10  C   UNL     1      46.812   4.011   6.788  0.00  0.00    +0.000 C 
ATOM     11  C   UNL     1      45.915   3.547   7.895  0.00  0.00    +0.000 A 
ATOM     12  C   UNL     1      45.710   2.191   8.123  0.00  0.00    +0.000 A 
ATOM     13  C   UNL     1      44.870   1.806   9.162  0.00  0.00    +0.000 A 
ATOM     14  C   UNL     1      44.254   2.782   9.940  0.00  0.00    +0.000 A 
ATOM     15  C   UNL     1      44.494   4.124   9.650  0.00  0.00    +0.000 A 
ATOM     16  N   UNL     1      45.322   4.509   8.643  0.00  0.00    +0.000 NA
ENDBRANCH   9  15
ENDBRANCH   8   9
ENDBRANCH   2   8
ENDBRANCH   1   5
BRANCH   1  17
ATOM     17  N   UNL     1      47.409   4.952  16.566  0.00  0.00    +0.000 N 
ATOM     18  C   UNL     1      48.505   5.713  16.885  0.00  0.00    +0.000 C 
ATOM     19  O   UNL     1      49.525   5.719  16.201  0.00  0.00    +0.000 OA
ATOM     20  H   UNL     1      46.715   4.765  17.281  0.00  0.00    +0.000 HD
BRANCH  18  21
ATOM     21  C   UNL     1      48.350   6.579  18.054  0.00  0.00    +0.000 A 
ATOM     22  C   UNL     1      48.303   7.958  17.917  0.00  0.00    +0.000 A 
ATOM     23  S   UNL     1      48.018   8.774  19.390  0.00  0.00    +0.000 S 
ATOM     24  C   UNL     1      48.015   7.313  20.265  0.00  0.00    +0.000 A 
ATOM     25  N   UNL     1      47.827   7.294  21.612  0.00  0.00    +0.000 NA
ATOM     26  C   UNL     1      47.880   6.115  22.141  0.00  0.00    +0.000 A 
ATOM     27  N   UNL     1      48.108   4.957  21.450  0.00  0.00    +0.000 N 
ATOM     28  C   UNL     1      48.279   4.922  20.086  0.00  0.00    +0.000 A 
ATOM     29  O   UNL     1      48.427   3.864  19.489  0.00  0.00    +0.000 OA
ATOM     30  C   UNL     1      48.223   6.222  19.444  0.00  0.00    +0.000 A 
ATOM     31  H   UNL     1      48.133   4.061  21.917  0.00  0.00    +0.000 HD
ENDBRANCH  18  21
ENDBRANCH   1  17
TORSDOF 6
ENDMDL
MODEL 7
REMARK VINA RESULT:    -7.566      2.809      4.765
REMARK INTER + INTRA:         -10.814
REMARK INTER:                  -9.938
REMARK INTRA:                  -0.876
REMARK UNBOUND:                -0.594
REMARK  Name = 
REMARK  7 active torsions:
REMARK  status: ('A' for Active; 'I' for Inactive)
REMARK    1  A    between atoms: C_1  and  C_2
REMARK    2  A    between atoms: C_6  and  C_7
REMARK    3  A    between atoms: C_7  and  O_8
REMARK    4  A    between atoms: O_8  and  C_9
REMARK    5  A    between atoms: C_12  and  C_13
REMARK    6  A    between atoms: C_13  and  N_14
REMARK    7  A    between atoms: C_15  and  C_17
REMARK                            x       y       z     vdW  Elec       q    Type
REMARK                         _______ _______ _______ _____ _____    ______ ____
ROOT
ATOM      1  C   UNL     1      47.525   5.717  14.763  0.00  0.00    +0.000 C 
ENDROOT
BRANCH   1   5
ATOM      2  C   UNL     1      45.099   3.489  12.148  0.00  0.00    +0.000 A 
ATOM      3  C   UNL     1      44.929   4.861  12.273  0.00  0.00    +0.000 A 
ATOM      4  N   UNL     1      45.703   5.627  13.090  0.00  0.00    +0.000 NA
ATOM      5  C   UNL     1      46.644   4.955  13.807  0.00  0.00    +0.000 A 
ATOM      6  C   UNL     1      46.778   3.575  13.697  0.00  0.00    +0.000 A 
ATOM      7  N   UNL     1      46.024   2.817  12.864  0.00  0.00    +0.000 NA
BRANCH   2   8
ATOM      8  O   UNL     1      44.253   2.782  11.322  0.00  0.00    +0.000 OA
BRANCH   8   9
ATOM      9  C   UNL     1      43.977   3.498  10.108  0.00  0.00    +0.000 C 
BRANCH   9  15
ATOM     10  C   UNL     1      46.668   0.158   7.771  0.00  0.00    +0.000 C 
ATOM     11  C   UNL     1      46.325   1.605   7.954  0.00  0.00    +0.000 A 
ATOM     12  C   UNL     1      46.965   2.587   7.207  0.00  0.00    +0.000 A 
ATOM     13  C   UNL     1      46.614   3.917   7.411  0.00  0.00    +0.000 A 
ATOM     14  C   UNL     1      45.640   4.231   8.354  0.00  0.00    +0.000 A 
ATOM     15  C   UNL     1      45.046   3.199   9.076  0.00  0.00    +0.000 A 
ATOM     16  N   UNL     1      45.375   1.895   8.877  0.00  0.00    +0.000 NA
ENDBRANCH   9  15
ENDBRANCH   8   9
ENDBRANCH   2   8
ENDBRANCH   1   5
BRANCH   1  17
ATOM     17  N   UNL     1      47.707   7.091  14.366  0.00  0.00    +0.000 N 
ATOM     18  C   UNL     1      48.609   7.468  13.404  0.00  0.00    +0.000 C 
ATOM     19  O   UNL     1      49.276   6.654  12.771  0.00  0.00    +0.000 OA
ATOM     20  H   UNL     1      47.390   7.780  15.040  0.00  0.00    +0.000 HD
BRANCH  18  21
ATOM     21  C   UNL     1      48.668   8.904  13.125  0.00  0.00    +0.000 A 
ATOM     22  C   UNL     1      49.819   9.632  13.383  0.00  0.00    +0.000 A 
ATOM     23  S   UNL     1      49.709  11.265  12.894  0.00  0.00    +0.000 S 
ATOM     24  C   UNL     1      48.096  11.063  12.385  0.00  0.00    +0.000 A 
ATOM     25  N   UNL     1      47.384  12.096  11.860  0.00  0.00    +0.000 NA
ATOM     26  C   UNL     1      46.165  11.800  11.548  0.00  0.00    +0.000 A 
ATOM     27  N   UNL     1      45.592  10.569  11.716  0.00  0.00    +0.000 N 
ATOM     28  C   UNL     1      46.277   9.488  12.219  0.00  0.00    +0.000 A 
ATOM     29  O   UNL     1      45.752   8.386  12.308  0.00  0.00    +0.000 OA
ATOM     30  C   UNL     1      47.653   9.770  12.581  0.00  0.00    +0.000 A 
ATOM     31  H   UNL     1      44.634  10.393  11.447  0.00  0.00    +0.000 HD
ENDBRANCH  18  21
ENDBRANCH   1  17
TORSDOF 6
ENDMDL
MODEL 8
REMARK VINA RESULT:    -7.455      2.827      3.799
REMARK INTER + INTRA:         -10.663
REMARK INTER:                  -9.926
REMARK INTRA:                  -0.737
REMARK UNBOUND:                -0.594
REMARK  Name = 
REMARK  7 active torsions:
REMARK  status: ('A' for Active; 'I' for Inactive)
REMARK    1  A    between atoms: C_1  and  C_2
REMARK    2  A    between atoms: C_6  and  C_7
REMARK    3  A    between atoms: C_7  and  O_8
REMARK    4  A    between atoms: O_8  and  C_9
REMARK    5  A    between atoms: C_12  and  C_13
REMARK    6  A    between atoms: C_13  and  N_14
REMARK    7  A    between atoms: C_15  and  C_17
REMARK                            x       y       z     vdW  Elec       q    Type
REMARK                         _______ _______ _______ _____ _____    ______ ____
ROOT
ATOM      1  C   UNL     1      47.276   4.326  16.399  0.00  0.00    +0.000 C 
ENDROOT
BRANCH   1   5
ATOM      2  C   UNL     1      46.482   5.637  12.483  0.00  0.00    +0.000 A 
ATOM      3  C   UNL     1      45.648   4.715  13.103  0.00  0.00    +0.000 A 
ATOM      4  N   UNL     1      45.853   4.277  14.376  0.00  0.00    +0.000 NA
ATOM      5  C   UNL     1      46.952   4.780  14.999  0.00  0.00    +0.000 A 
ATOM      6  C   UNL     1      47.798   5.675  14.353  0.00  0.00    +0.000 A 
ATOM      7  N   UNL     1      47.579   6.130  13.095  0.00  0.00    +0.000 NA
BRANCH   2   8
ATOM      8  O   UNL     1      46.223   6.004  11.181  0.00  0.00    +0.000 OA
BRANCH   8   9
ATOM      9  C   UNL     1      44.924   5.562  10.755  0.00  0.00    +0.000 C 
BRANCH   9  15
ATOM     10  C   UNL     1      46.704   3.756   6.580  0.00  0.00    +0.000 C 
ATOM     11  C   UNL     1      45.917   3.512   7.832  0.00  0.00    +0.000 A 
ATOM     12  C   UNL     1      45.360   2.264   8.089  0.00  0.00    +0.000 A 
ATOM     13  C   UNL     1      44.637   2.084   9.263  0.00  0.00    +0.000 A 
ATOM     14  C   UNL     1      44.486   3.151  10.144  0.00  0.00    +0.000 A 
ATOM     15  C   UNL     1      45.061   4.378   9.820  0.00  0.00    +0.000 A 
ATOM     16  N   UNL     1      45.778   4.561   8.679  0.00  0.00    +0.000 NA
ENDBRANCH   9  15
ENDBRANCH   8   9
ENDBRANCH   2   8
ENDBRANCH   1   5
BRANCH   1  17
ATOM     17  N   UNL     1      48.695   4.188  16.618  0.00  0.00    +0.000 N 
ATOM     18  C   UNL     1      49.266   4.319  17.859  0.00  0.00    +0.000 C 
ATOM     19  O   UNL     1      48.602   4.499  18.875  0.00  0.00    +0.000 OA
ATOM     20  H   UNL     1      49.273   4.316  15.795  0.00  0.00    +0.000 HD
BRANCH  18  21
ATOM     21  C   UNL     1      50.720   4.151  17.902  0.00  0.00    +0.000 A 
ATOM     22  C   UNL     1      51.551   5.220  18.198  0.00  0.00    +0.000 A 
ATOM     23  S   UNL     1      53.201   4.787  18.294  0.00  0.00    +0.000 S 
ATOM     24  C   UNL     1      52.859   3.171  17.877  0.00  0.00    +0.000 A 
ATOM     25  N   UNL     1      53.847   2.243  17.771  0.00  0.00    +0.000 NA
ATOM     26  C   UNL     1      53.439   1.068  17.418  0.00  0.00    +0.000 A 
ATOM     27  N   UNL     1      52.138   0.737  17.158  0.00  0.00    +0.000 N 
ATOM     28  C   UNL     1      51.102   1.633  17.275  0.00  0.00    +0.000 A 
ATOM     29  O   UNL     1      49.941   1.293  17.087  0.00  0.00    +0.000 OA
ATOM     30  C   UNL     1      51.509   2.967  17.673  0.00  0.00    +0.000 A 
ATOM     31  H   UNL     1      51.876  -0.202  16.891  0.00  0.00    +0.000 HD
ENDBRANCH  18  21
ENDBRANCH   1  17
TORSDOF 6
ENDMDL
MODEL 9
REMARK VINA RESULT:    -7.445      2.525      3.248
REMARK INTER + INTRA:         -10.651
REMARK INTER:                  -9.698
REMARK INTRA:                  -0.953
REMARK UNBOUND:                -0.594
REMARK  Name = 
REMARK  7 active torsions:
REMARK  status: ('A' for Active; 'I' for Inactive)
REMARK    1  A    between atoms: C_1  and  C_2
REMARK    2  A    between atoms: C_6  and  C_7
REMARK    3  A    between atoms: C_7  and  O_8
REMARK    4  A    between atoms: O_8  and  C_9
REMARK    5  A    between atoms: C_12  and  C_13
REMARK    6  A    between atoms: C_13  and  N_14
REMARK    7  A    between atoms: C_15  and  C_17
REMARK                            x       y       z     vdW  Elec       q    Type
REMARK                         _______ _______ _______ _____ _____    ______ ____
ROOT
ATOM      1  C   UNL     1      48.232   6.475  14.429  0.00  0.00    +0.000 C 
ENDROOT
BRANCH   1   5
ATOM      2  C   UNL     1      44.859   5.006  12.391  0.00  0.00    +0.000 A 
ATOM      3  C   UNL     1      45.338   6.285  12.137  0.00  0.00    +0.000 A 
ATOM      4  N   UNL     1      46.437   6.796  12.756  0.00  0.00    +0.000 NA
ATOM      5  C   UNL     1      47.028   5.980  13.670  0.00  0.00    +0.000 A 
ATOM      6  C   UNL     1      46.516   4.716  13.940  0.00  0.00    +0.000 A 
ATOM      7  N   UNL     1      45.436   4.198  13.305  0.00  0.00    +0.000 NA
BRANCH   2   8
ATOM      8  O   UNL     1      43.721   4.576  11.745  0.00  0.00    +0.000 OA
BRANCH   8   9
ATOM      9  C   UNL     1      43.723   4.957  10.361  0.00  0.00    +0.000 C 
BRANCH   9  15
ATOM     10  C   UNL     1      46.862   4.014   6.739  0.00  0.00    +0.000 C 
ATOM     11  C   UNL     1      45.973   3.473   7.818  0.00  0.00    +0.000 A 
ATOM     12  C   UNL     1      45.862   2.103   8.026  0.00  0.00    +0.000 A 
ATOM     13  C   UNL     1      45.025   1.646   9.039  0.00  0.00    +0.000 A 
ATOM     14  C   UNL     1      44.320   2.566   9.810  0.00  0.00    +0.000 A 
ATOM     15  C   UNL     1      44.468   3.924   9.540  0.00  0.00    +0.000 A 
ATOM     16  N   UNL     1      45.292   4.381   8.560  0.00  0.00    +0.000 NA
ENDBRANCH   9  15
ENDBRANCH   8   9
ENDBRANCH   2   8
ENDBRANCH   1   5
BRANCH   1  17
ATOM     17  N   UNL     1      48.107   6.274  15.852  0.00  0.00    +0.000 N 
ATOM     18  C   UNL     1      49.188   6.035  16.661  0.00  0.00    +0.000 C 
ATOM     19  O   UNL     1      50.341   6.038  16.239  0.00  0.00    +0.000 OA
ATOM     20  H   UNL     1      47.184   5.997  16.168  0.00  0.00    +0.000 HD
BRANCH  18  21
ATOM     21  C   UNL     1      48.882   5.852  18.081  0.00  0.00    +0.000 A 
ATOM     22  C   UNL     1      49.114   4.638  18.708  0.00  0.00    +0.000 A 
ATOM     23  S   UNL     1      48.782   4.668  20.383  0.00  0.00    +0.000 S 
ATOM     24  C   UNL     1      48.255   6.286  20.307  0.00  0.00    +0.000 A 
ATOM     25  N   UNL     1      47.816   6.941  21.415  0.00  0.00    +0.000 NA
ATOM     26  C   UNL     1      47.421   8.153  21.197  0.00  0.00    +0.000 A 
ATOM     27  N   UNL     1      47.421   8.767  19.975  0.00  0.00    +0.000 N 
ATOM     28  C   UNL     1      47.878   8.156  18.831  0.00  0.00    +0.000 A 
ATOM     29  O   UNL     1      47.916   8.751  17.761  0.00  0.00    +0.000 OA
ATOM     30  C   UNL     1      48.337   6.794  19.025  0.00  0.00    +0.000 A 
ATOM     31  H   UNL     1      47.105   9.721  19.864  0.00  0.00    +0.000 HD
ENDBRANCH  18  21
ENDBRANCH   1  17
TORSDOF 6
ENDMDL
