MODEL 1
REMARK VINA RESULT:    -7.822      0.000      0.000
REMARK INTER + INTRA:         -11.685
REMARK INTER:                 -11.023
REMARK INTRA:                  -0.662
REMARK UNBOUND:                -0.662
REMARK  Name = 
REMARK  7 active torsions:
REMARK  status: ('A' for Active; 'I' for Inactive)
REMARK    1  A    between atoms: C_2  and  C_11
REMARK    2  A    between atoms: N_3  and  C_4
REMARK    3  A    between atoms: C_4  and  C_5
REMARK    4  A    between atoms: C_14  and  C_15
REMARK    5  A    between atoms: C_15  and  O_16
REMARK    6  A    between atoms: O_16  and  C_17
REMARK    7  A    between atoms: C_17  and  C_18
REMARK                            x       y       z     vdW  Elec       q    Type
REMARK                         _______ _______ _______ _____ _____    ______ ____
ROOT
ATOM      1  C   UNL     1      46.545   5.140  13.510  0.00  0.00    +0.000 A 
ATOM      2  C   UNL     1      46.152   3.828  13.227  0.00  0.00    +0.000 A 
ATOM      3  C   UNL     1      45.281   3.569  12.165  0.00  0.00    +0.000 A 
ATOM      4  C   UNL     1      44.805   4.617  11.363  0.00  0.00    +0.000 A 
ATOM      5  C   UNL     1      45.228   5.926  11.638  0.00  0.00    +0.000 A 
ATOM      6  C   UNL     1      46.097   6.189  12.701  0.00  0.00    +0.000 A 
ENDROOT
BRANCH   1   8
ATOM      7  O   UNL     1      48.462   6.063  14.517  0.00  0.00    +0.000 OA
ATOM      8  C   UNL     1      47.449   5.382  14.661  0.00  0.00    +0.000 C 
ATOM      9  N   UNL     1      47.097   4.781  15.850  0.00  0.00    +0.000 N 
ATOM     10  H   UNL     1      46.419   4.031  15.833  0.00  0.00    +0.000 HD
BRANCH   9  11
ATOM     11  C   UNL     1      47.956   4.888  17.008  0.00  0.00    +0.000 C 
BRANCH  11  12
ATOM     12  C   UNL     1      48.976   3.790  17.041  0.00  0.00    +0.000 A 
ATOM     13  C   UNL     1      50.202   3.953  17.695  0.00  0.00    +0.000 A 
ATOM     14  C   UNL     1      51.140   2.926  17.676  0.00  0.00    +0.000 A 
ATOM     15  C   UNL     1      50.822   1.761  16.998  0.00  0.00    +0.000 A 
ATOM     16  N   UNL     1      49.652   1.566  16.352  0.00  0.00    +0.000 NA
ATOM     17  C   UNL     1      48.761   2.584  16.384  0.00  0.00    +0.000 A 
ENDBRANCH  11  12
ENDBRANCH   9  11
ENDBRANCH   1   8
BRANCH   4  18
ATOM     18  C   UNL     1      43.893   4.346  10.190  0.00  0.00    +0.000 C 
BRANCH  18  19
ATOM     19  O   UNL     1      44.481   3.383   9.324  0.00  0.00    +0.000 OA
BRANCH  19  20
ATOM     20  C   UNL     1      45.333   4.014   8.358  0.00  0.00    +0.000 C 
BRANCH  20  21
ATOM     21  C   UNL     1      46.113   2.991   7.561  0.00  0.00    +0.000 A 
ATOM     22  N   UNL     1      46.311   1.776   8.118  0.00  0.00    +0.000 NA
ATOM     23  C   UNL     1      47.009   0.887   7.387  0.00  0.00    +0.000 A 
ATOM     24  C   UNL     1      47.500   1.153   6.132  0.00  0.00    +0.000 A 
ATOM     25  C   UNL     1      47.237   2.412   5.648  0.00  0.00    +0.000 A 
ATOM     26  N   UNL     1      46.547   3.345   6.332  0.00  0.00    +0.000 NA
ENDBRANCH  20  21
ENDBRANCH  19  20
ENDBRANCH  18  19
ENDBRANCH   4  18
TORSDOF 7
ENDMDL
MODEL 2
REMARK VINA RESULT:    -7.460      1.557      8.540
REMARK INTER + INTRA:         -11.174
REMARK INTER:                 -10.397
REMARK INTRA:                  -0.777
REMARK UNBOUND:                -0.662
REMARK  Name = 
REMARK  7 active torsions:
REMARK  status: ('A' for Active; 'I' for Inactive)
REMARK    1  A    between atoms: C_2  and  C_11
REMARK    2  A    between atoms: N_3  and  C_4
REMARK    3  A    between atoms: C_4  and  C_5
REMARK    4  A    between atoms: C_14  and  C_15
REMARK    5  A    between atoms: C_15  and  O_16
REMARK    6  A    between atoms: O_16  and  C_17
REMARK    7  A    between atoms: C_17  and  C_18
REMARK                            x       y       z     vdW  Elec       q    Type
REMARK                         _______ _______ _______ _____ _____    ______ ____
ROOT
ATOM      1  C   UNL     1      45.941   5.426  11.730  0.00  0.00    +0.000 A 
ATOM      2  C   UNL     1      46.295   4.788  12.923  0.00  0.00    +0.000 A 
ATOM      3  C   UNL     1      47.093   5.448  13.861  0.00  0.00    +0.000 A 
ATOM      4  C   UNL     1      47.533   6.760  13.625  0.00  0.00    +0.000 A 
ATOM      5  C   UNL     1      47.148   7.400  12.439  0.00  0.00    +0.000 A 
ATOM      6  C   UNL     1      46.351   6.742  11.497  0.00  0.00    +0.000 A 
ENDROOT
BRANCH   1   8
ATOM      7  O   UNL     1      44.172   3.996  11.123  0.00  0.00    +0.000 OA
ATOM      8  C   UNL     1      45.114   4.687  10.743  0.00  0.00    +0.000 C 
ATOM      9  N   UNL     1      45.490   4.805   9.423  0.00  0.00    +0.000 N 
ATOM     10  H   UNL     1      46.413   5.158   9.211  0.00  0.00    +0.000 HD
BRANCH   9  11
ATOM     11  C   UNL     1      44.800   4.059   8.395  0.00  0.00    +0.000 C 
BRANCH  11  12
ATOM     12  C   UNL     1      45.672   2.988   7.812  0.00  0.00    +0.000 A 
ATOM     13  C   UNL     1      46.333   3.169   6.592  0.00  0.00    +0.000 A 
ATOM     14  C   UNL     1      47.107   2.141   6.063  0.00  0.00    +0.000 A 
ATOM     15  C   UNL     1      47.194   0.955   6.774  0.00  0.00    +0.000 A 
ATOM     16  N   UNL     1      46.570   0.740   7.951  0.00  0.00    +0.000 NA
ATOM     17  C   UNL     1      45.821   1.756   8.439  0.00  0.00    +0.000 A 
ENDBRANCH  11  12
ENDBRANCH   9  11
ENDBRANCH   1   8
BRANCH   4  18
ATOM     18  C   UNL     1      48.365   7.495  14.649  0.00  0.00    +0.000 C 
BRANCH  18  19
ATOM     19  O   UNL     1      49.480   6.703  15.038  0.00  0.00    +0.000 OA
BRANCH  19  20
ATOM     20  C   UNL     1      49.574   6.617  16.467  0.00  0.00    +0.000 C 
BRANCH  20  21
ATOM     21  C   UNL     1      49.095   5.272  16.970  0.00  0.00    +0.000 A 
ATOM     22  N   UNL     1      47.795   5.155  17.315  0.00  0.00    +0.000 NA
ATOM     23  C   UNL     1      47.398   3.947  17.759  0.00  0.00    +0.000 A 
ATOM     24  C   UNL     1      48.233   2.862  17.859  0.00  0.00    +0.000 A 
ATOM     25  C   UNL     1      49.534   3.079  17.474  0.00  0.00    +0.000 A 
ATOM     26  N   UNL     1      49.991   4.263  17.024  0.00  0.00    +0.000 NA
ENDBRANCH  20  21
ENDBRANCH  19  20
ENDBRANCH  18  19
ENDBRANCH   4  18
TORSDOF 7
ENDMDL
MODEL 3
REMARK VINA RESULT:    -7.349      1.731      2.091
REMARK INTER + INTRA:         -11.018
REMARK INTER:                 -10.248
REMARK INTRA:                  -0.770
REMARK UNBOUND:                -0.662
REMARK  Name = 
REMARK  7 active torsions:
REMARK  status: ('A' for Active; 'I' for Inactive)
REMARK    1  A    between atoms: C_2  and  C_11
REMARK    2  A    between atoms: N_3  and  C_4
REMARK    3  A    between atoms: C_4  and  C_5
REMARK    4  A    between atoms: C_14  and  C_15
REMARK    5  A    between atoms: C_15  and  O_16
REMARK    6  A    between atoms: O_16  and  C_17
REMARK    7  A    between atoms: C_17  and  C_18
REMARK                            x       y       z     vdW  Elec       q    Type
REMARK                         _______ _______ _______ _____ _____    ______ ____
ROOT
ATOM      1  C   UNL     1      46.978   5.875  12.967  0.00  0.00    +0.000 A 
ATOM      2  C   UNL     1      46.160   4.833  13.416  0.00  0.00    +0.000 A 
ATOM      3  C   UNL     1      45.059   4.430  12.656  0.00  0.00    +0.000 A 
ATOM      4  C   UNL     1      44.772   5.051  11.431  0.00  0.00    +0.000 A 
ATOM      5  C   UNL     1      45.616   6.075  10.978  0.00  0.00    +0.000 A 
ATOM      6  C   UNL     1      46.717   6.483  11.736  0.00  0.00    +0.000 A 
ENDROOT
BRANCH   1   8
ATOM      7  O   UNL     1      49.190   6.616  13.289  0.00  0.00    +0.000 OA
ATOM      8  C   UNL     1      48.124   6.297  13.811  0.00  0.00    +0.000 C 
ATOM      9  N   UNL     1      47.919   6.273  15.173  0.00  0.00    +0.000 N 
ATOM     10  H   UNL     1      47.131   5.753  15.537  0.00  0.00    +0.000 HD
BRANCH   9  11
ATOM     11  C   UNL     1      48.999   6.587  16.082  0.00  0.00    +0.000 C 
BRANCH  11  12
ATOM     12  C   UNL     1      48.929   5.755  17.328  0.00  0.00    +0.000 A 
ATOM     13  C   UNL     1      48.681   4.379  17.273  0.00  0.00    +0.000 A 
ATOM     14  C   UNL     1      48.588   3.643  18.450  0.00  0.00    +0.000 A 
ATOM     15  C   UNL     1      48.746   4.311  19.653  0.00  0.00    +0.000 A 
ATOM     16  N   UNL     1      48.983   5.636  19.749  0.00  0.00    +0.000 NA
ATOM     17  C   UNL     1      49.065   6.327  18.588  0.00  0.00    +0.000 A 
ENDBRANCH  11  12
ENDBRANCH   9  11
ENDBRANCH   1   8
BRANCH   4  18
ATOM     18  C   UNL     1      43.606   4.598  10.585  0.00  0.00    +0.000 C 
BRANCH  18  19
ATOM     19  O   UNL     1      44.067   4.130   9.324  0.00  0.00    +0.000 OA
BRANCH  19  20
ATOM     20  C   UNL     1      44.464   2.754   9.401  0.00  0.00    +0.000 C 
BRANCH  20  21
ATOM     21  C   UNL     1      45.612   2.459   8.458  0.00  0.00    +0.000 A 
ATOM     22  N   UNL     1      46.037   1.180   8.364  0.00  0.00    +0.000 NA
ATOM     23  C   UNL     1      47.059   0.948   7.519  0.00  0.00    +0.000 A 
ATOM     24  C   UNL     1      47.657   1.926   6.763  0.00  0.00    +0.000 A 
ATOM     25  C   UNL     1      47.146   3.192   6.920  0.00  0.00    +0.000 A 
ATOM     26  N   UNL     1      46.128   3.487   7.751  0.00  0.00    +0.000 NA
ENDBRANCH  20  21
ENDBRANCH  19  20
ENDBRANCH  18  19
ENDBRANCH   4  18
TORSDOF 7
ENDMDL
MODEL 4
REMARK VINA RESULT:    -7.051      2.069      3.154
REMARK INTER + INTRA:         -10.598
REMARK INTER:                  -9.858
REMARK INTRA:                  -0.740
REMARK UNBOUND:                -0.662
REMARK  Name = 
REMARK  7 active torsions:
REMARK  status: ('A' for Active; 'I' for Inactive)
REMARK    1  A    between atoms: C_2  and  C_11
REMARK    2  A    between atoms: N_3  and  C_4
REMARK    3  A    between atoms: C_4  and  C_5
REMARK    4  A    between atoms: C_14  and  C_15
REMARK    5  A    between atoms: C_15  and  O_16
REMARK    6  A    between atoms: O_16  and  C_17
REMARK    7  A    between atoms: C_17  and  C_18
REMARK                            x       y       z     vdW  Elec       q    Type
REMARK                         _______ _______ _______ _____ _____    ______ ____
ROOT
ATOM      1  C   UNL     1      46.908   5.731  13.267  0.00  0.00    +0.000 A 
ATOM      2  C   UNL     1      46.074   4.667  13.627  0.00  0.00    +0.000 A 
ATOM      3  C   UNL     1      44.999   4.311  12.808  0.00  0.00    +0.000 A 
ATOM      4  C   UNL     1      44.755   5.002  11.612  0.00  0.00    +0.000 A 
ATOM      5  C   UNL     1      45.615   6.048  11.247  0.00  0.00    +0.000 A 
ATOM      6  C   UNL     1      46.689   6.409  12.064  0.00  0.00    +0.000 A 
ENDROOT
BRANCH   1   8
ATOM      7  O   UNL     1      49.043   6.613  13.718  0.00  0.00    +0.000 OA
ATOM      8  C   UNL     1      48.024   6.100  14.173  0.00  0.00    +0.000 C 
ATOM      9  N   UNL     1      47.849   5.806  15.507  0.00  0.00    +0.000 N 
ATOM     10  H   UNL     1      47.122   5.154  15.770  0.00  0.00    +0.000 HD
BRANCH   9  11
ATOM     11  C   UNL     1      48.911   6.052  16.457  0.00  0.00    +0.000 C 
BRANCH  11  12
ATOM     12  C   UNL     1      48.471   6.985  17.545  0.00  0.00    +0.000 A 
ATOM     13  C   UNL     1      47.978   6.505  18.763  0.00  0.00    +0.000 A 
ATOM     14  C   UNL     1      47.546   7.399  19.738  0.00  0.00    +0.000 A 
ATOM     15  C   UNL     1      47.618   8.754  19.461  0.00  0.00    +0.000 A 
ATOM     16  N   UNL     1      48.083   9.257  18.298  0.00  0.00    +0.000 NA
ATOM     17  C   UNL     1      48.494   8.364  17.368  0.00  0.00    +0.000 A 
ENDBRANCH  11  12
ENDBRANCH   9  11
ENDBRANCH   1   8
BRANCH   4  18
ATOM     18  C   UNL     1      43.619   4.601  10.701  0.00  0.00    +0.000 C 
BRANCH  18  19
ATOM     19  O   UNL     1      44.124   4.192   9.436  0.00  0.00    +0.000 OA
BRANCH  19  20
ATOM     20  C   UNL     1      44.418   2.788   9.430  0.00  0.00    +0.000 C 
BRANCH  20  21
ATOM     21  C   UNL     1      45.574   2.472   8.505  0.00  0.00    +0.000 A 
ATOM     22  N   UNL     1      45.970   1.184   8.410  0.00  0.00    +0.000 NA
ATOM     23  C   UNL     1      47.001   0.933   7.581  0.00  0.00    +0.000 A 
ATOM     24  C   UNL     1      47.636   1.902   6.843  0.00  0.00    +0.000 A 
ATOM     25  C   UNL     1      47.153   3.179   7.001  0.00  0.00    +0.000 A 
ATOM     26  N   UNL     1      46.128   3.492   7.815  0.00  0.00    +0.000 NA
ENDBRANCH  20  21
ENDBRANCH  19  20
ENDBRANCH  18  19
ENDBRANCH   4  18
TORSDOF 7
ENDMDL
MODEL 5
REMARK VINA RESULT:    -6.884      2.030      2.749
REMARK INTER + INTRA:         -10.362
REMARK INTER:                  -9.599
REMARK INTRA:                  -0.763
REMARK UNBOUND:                -0.662
REMARK  Name = 
REMARK  7 active torsions:
REMARK  status: ('A' for Active; 'I' for Inactive)
REMARK    1  A    between atoms: C_2  and  C_11
REMARK    2  A    between atoms: N_3  and  C_4
REMARK    3  A    between atoms: C_4  and  C_5
REMARK    4  A    between atoms: C_14  and  C_15
REMARK    5  A    between atoms: C_15  and  O_16
REMARK    6  A    between atoms: O_16  and  C_17
REMARK    7  A    between atoms: C_17  and  C_18
REMARK                            x       y       z     vdW  Elec       q    Type
REMARK                         _______ _______ _______ _____ _____    ______ ____
ROOT
ATOM      1  C   UNL     1      46.342   4.357  13.576  0.00  0.00    +0.000 A 
ATOM      2  C   UNL     1      45.840   3.230  12.918  0.00  0.00    +0.000 A 
ATOM      3  C   UNL     1      44.975   3.381  11.830  0.00  0.00    +0.000 A 
ATOM      4  C   UNL     1      44.616   4.659  11.376  0.00  0.00    +0.000 A 
ATOM      5  C   UNL     1      45.149   5.782  12.026  0.00  0.00    +0.000 A 
ATOM      6  C   UNL     1      46.011   5.636  13.116  0.00  0.00    +0.000 A 
ENDROOT
BRANCH   1   8
ATOM      7  O   UNL     1      47.703   3.052  14.984  0.00  0.00    +0.000 OA
ATOM      8  C   UNL     1      47.236   4.162  14.745  0.00  0.00    +0.000 C 
ATOM      9  N   UNL     1      47.466   5.272  15.528  0.00  0.00    +0.000 N 
ATOM     10  H   UNL     1      46.849   6.068  15.435  0.00  0.00    +0.000 HD
BRANCH   9  11
ATOM     11  C   UNL     1      48.256   5.166  16.735  0.00  0.00    +0.000 C 
BRANCH  11  12
ATOM     12  C   UNL     1      49.284   6.254  16.816  0.00  0.00    +0.000 A 
ATOM     13  C   UNL     1      49.858   6.803  15.664  0.00  0.00    +0.000 A 
ATOM     14  C   UNL     1      50.835   7.787  15.777  0.00  0.00    +0.000 A 
ATOM     15  C   UNL     1      51.211   8.193  17.047  0.00  0.00    +0.000 A 
ATOM     16  N   UNL     1      50.685   7.687  18.182  0.00  0.00    +0.000 NA
ATOM     17  C   UNL     1      49.739   6.728  18.042  0.00  0.00    +0.000 A 
ENDBRANCH  11  12
ENDBRANCH   9  11
ENDBRANCH   1   8
BRANCH   4  18
ATOM     18  C   UNL     1      43.713   4.832  10.179  0.00  0.00    +0.000 C 
BRANCH  18  19
ATOM     19  O   UNL     1      44.067   3.908   9.158  0.00  0.00    +0.000 OA
BRANCH  19  20
ATOM     20  C   UNL     1      45.219   4.360   8.433  0.00  0.00    +0.000 C 
BRANCH  20  21
ATOM     21  C   UNL     1      46.043   3.194   7.927  0.00  0.00    +0.000 A 
ATOM     22  N   UNL     1      47.045   3.461   7.062  0.00  0.00    +0.000 NA
ATOM     23  C   UNL     1      47.760   2.405   6.628  0.00  0.00    +0.000 A 
ATOM     24  C   UNL     1      47.525   1.112   7.028  0.00  0.00    +0.000 A 
ATOM     25  C   UNL     1      46.491   0.946   7.917  0.00  0.00    +0.000 A 
ATOM     26  N   UNL     1      45.740   1.961   8.386  0.00  0.00    +0.000 NA
ENDBRANCH  20  21
ENDBRANCH  19  20
ENDBRANCH  18  19
ENDBRANCH   4  18
TORSDOF 7
ENDMDL
MODEL 6
REMARK VINA RESULT:    -6.299      3.329      3.932
REMARK INTER + INTRA:          -9.538
REMARK INTER:                  -8.690
REMARK INTRA:                  -0.848
REMARK UNBOUND:                -0.662
REMARK  Name = 
REMARK  7 active torsions:
REMARK  status: ('A' for Active; 'I' for Inactive)
REMARK    1  A    between atoms: C_2  and  C_11
REMARK    2  A    between atoms: N_3  and  C_4
REMARK    3  A    between atoms: C_4  and  C_5
REMARK    4  A    between atoms: C_14  and  C_15
REMARK    5  A    between atoms: C_15  and  O_16
REMARK    6  A    between atoms: O_16  and  C_17
REMARK    7  A    between atoms: C_17  and  C_18
REMARK                            x       y       z     vdW  Elec       q    Type
REMARK                         _______ _______ _______ _____ _____    ______ ____
ROOT
ATOM      1  C   UNL     1      46.901   6.444  12.744  0.00  0.00    +0.000 A 
ATOM      2  C   UNL     1      46.407   5.362  13.479  0.00  0.00    +0.000 A 
ATOM      3  C   UNL     1      45.221   4.733  13.091  0.00  0.00    +0.000 A 
ATOM      4  C   UNL     1      44.524   5.166  11.953  0.00  0.00    +0.000 A 
ATOM      5  C   UNL     1      45.044   6.234  11.207  0.00  0.00    +0.000 A 
ATOM      6  C   UNL     1      46.228   6.868  11.593  0.00  0.00    +0.000 A 
ENDROOT
BRANCH   1   8
ATOM      7  O   UNL     1      49.205   6.481  13.225  0.00  0.00    +0.000 OA
ATOM      8  C   UNL     1      48.148   7.107  13.199  0.00  0.00    +0.000 C 
ATOM      9  N   UNL     1      48.028   8.418  13.605  0.00  0.00    +0.000 N 
ATOM     10  H   UNL     1      47.107   8.780  13.812  0.00  0.00    +0.000 HD
BRANCH   9  11
ATOM     11  C   UNL     1      49.168   9.126  14.143  0.00  0.00    +0.000 C 
BRANCH  11  12
ATOM     12  C   UNL     1      49.170   9.109  15.642  0.00  0.00    +0.000 A 
ATOM     13  C   UNL     1      47.982   9.205  16.374  0.00  0.00    +0.000 A 
ATOM     14  C   UNL     1      48.023   9.221  17.765  0.00  0.00    +0.000 A 
ATOM     15  C   UNL     1      49.260   9.142  18.384  0.00  0.00    +0.000 A 
ATOM     16  N   UNL     1      50.428   9.052  17.714  0.00  0.00    +0.000 NA
ATOM     17  C   UNL     1      50.358   9.042  16.362  0.00  0.00    +0.000 A 
ENDBRANCH  11  12
ENDBRANCH   9  11
ENDBRANCH   1   8
BRANCH   4  18
ATOM     18  C   UNL     1      43.262   4.469  11.503  0.00  0.00    +0.000 C 
BRANCH  18  19
ATOM     19  O   UNL     1      43.446   3.907  10.210  0.00  0.00    +0.000 OA
BRANCH  19  20
ATOM     20  C   UNL     1      44.270   2.734  10.273  0.00  0.00    +0.000 C 
BRANCH  20  21
ATOM     21  C   UNL     1      45.230   2.674   9.104  0.00  0.00    +0.000 A 
ATOM     22  N   UNL     1      45.533   3.832   8.478  0.00  0.00    +0.000 NA
ATOM     23  C   UNL     1      46.389   3.747   7.442  0.00  0.00    +0.000 A 
ATOM     24  C   UNL     1      46.957   2.571   7.019  0.00  0.00    +0.000 A 
ATOM     25  C   UNL     1      46.594   1.450   7.726  0.00  0.00    +0.000 A 
ATOM     26  N   UNL     1      45.743   1.470   8.770  0.00  0.00    +0.000 NA
ENDBRANCH  20  21
ENDBRANCH  19  20
ENDBRANCH  18  19
ENDBRANCH   4  18
TORSDOF 7
ENDMDL
MODEL 7
REMARK VINA RESULT:    -6.299      2.474      3.156
REMARK INTER + INTRA:          -9.538
REMARK INTER:                  -8.931
REMARK INTRA:                  -0.607
REMARK UNBOUND:                -0.662
REMARK  Name = 
REMARK  7 active torsions:
REMARK  status: ('A' for Active; 'I' for Inactive)
REMARK    1  A    between atoms: C_2  and  C_11
REMARK    2  A    between atoms: N_3  and  C_4
REMARK    3  A    between atoms: C_4  and  C_5
REMARK    4  A    between atoms: C_14  and  C_15
REMARK    5  A    between atoms: C_15  and  O_16
REMARK    6  A    between atoms: O_16  and  C_17
REMARK    7  A    between atoms: C_17  and  C_18
REMARK                            x       y       z     vdW  Elec       q    Type
REMARK                         _______ _______ _______ _____ _____    ______ ____
ROOT
ATOM      1  C   UNL     1      47.900   6.831  14.025  0.00  0.00    +0.000 A 
ATOM      2  C   UNL     1      47.396   5.535  13.878  0.00  0.00    +0.000 A 
ATOM      3  C   UNL     1      46.441   5.261  12.896  0.00  0.00    +0.000 A 
ATOM      4  C   UNL     1      45.991   6.275  12.037  0.00  0.00    +0.000 A 
ATOM      5  C   UNL     1      46.525   7.565  12.175  0.00  0.00    +0.000 A 
ATOM      6  C   UNL     1      47.478   7.844  13.158  0.00  0.00    +0.000 A 
ENDROOT
BRANCH   1   8
ATOM      7  O   UNL     1      50.080   6.834  14.914  0.00  0.00    +0.000 OA
ATOM      8  C   UNL     1      48.893   7.094  15.097  0.00  0.00    +0.000 C 
ATOM      9  N   UNL     1      48.397   7.602  16.277  0.00  0.00    +0.000 N 
ATOM     10  H   UNL     1      47.403   7.538  16.453  0.00  0.00    +0.000 HD
BRANCH   9  11
ATOM     11  C   UNL     1      49.271   7.814  17.409  0.00  0.00    +0.000 C 
BRANCH  11  12
ATOM     12  C   UNL     1      48.918   6.913  18.554  0.00  0.00    +0.000 A 
ATOM     13  C   UNL     1      47.617   6.857  19.064  0.00  0.00    +0.000 A 
ATOM     14  C   UNL     1      47.332   6.036  20.150  0.00  0.00    +0.000 A 
ATOM     15  C   UNL     1      48.365   5.293  20.698  0.00  0.00    +0.000 A 
ATOM     16  N   UNL     1      49.633   5.322  20.238  0.00  0.00    +0.000 NA
ATOM     17  C   UNL     1      49.882   6.132  19.183  0.00  0.00    +0.000 A 
ENDBRANCH  11  12
ENDBRANCH   9  11
ENDBRANCH   1   8
BRANCH   4  18
ATOM     18  C   UNL     1      44.987   5.982  10.948  0.00  0.00    +0.000 C 
BRANCH  18  19
ATOM     19  O   UNL     1      44.688   4.593  10.916  0.00  0.00    +0.000 OA
BRANCH  19  20
ATOM     20  C   UNL     1      44.115   4.220   9.655  0.00  0.00    +0.000 C 
BRANCH  20  21
ATOM     21  C   UNL     1      45.127   3.512   8.779  0.00  0.00    +0.000 A 
ATOM     22  N   UNL     1      45.788   4.249   7.860  0.00  0.00    +0.000 NA
ATOM     23  C   UNL     1      46.681   3.592   7.095  0.00  0.00    +0.000 A 
ATOM     24  C   UNL     1      46.947   2.251   7.218  0.00  0.00    +0.000 A 
ATOM     25  C   UNL     1      46.231   1.592   8.188  0.00  0.00    +0.000 A 
ATOM     26  N   UNL     1      45.324   2.192   8.982  0.00  0.00    +0.000 NA
ENDBRANCH  20  21
ENDBRANCH  19  20
ENDBRANCH  18  19
ENDBRANCH   4  18
TORSDOF 7
ENDMDL
MODEL 8
REMARK VINA RESULT:    -6.134      3.463      4.899
REMARK INTER + INTRA:          -9.305
REMARK INTER:                  -8.701
REMARK INTRA:                  -0.604
REMARK UNBOUND:                -0.662
REMARK  Name = 
REMARK  7 active torsions:
REMARK  status: ('A' for Active; 'I' for Inactive)
REMARK    1  A    between atoms: C_2  and  C_11
REMARK    2  A    between atoms: N_3  and  C_4
REMARK    3  A    between atoms: C_4  and  C_5
REMARK    4  A    between atoms: C_14  and  C_15
REMARK    5  A    between atoms: C_15  and  O_16
REMARK    6  A    between atoms: O_16  and  C_17
REMARK    7  A    between atoms: C_17  and  C_18
REMARK                            x       y       z     vdW  Elec       q    Type
REMARK                         _______ _______ _______ _____ _____    ______ ____
ROOT
ATOM      1  C   UNL     1      47.170   6.082  13.469  0.00  0.00    +0.000 A 
ATOM      2  C   UNL     1      46.651   6.576  12.268  0.00  0.00    +0.000 A 
ATOM      3  C   UNL     1      45.745   5.811  11.528  0.00  0.00    +0.000 A 
ATOM      4  C   UNL     1      45.333   4.552  11.989  0.00  0.00    +0.000 A 
ATOM      5  C   UNL     1      45.837   4.079  13.209  0.00  0.00    +0.000 A 
ATOM      6  C   UNL     1      46.746   4.840  13.951  0.00  0.00    +0.000 A 
ENDROOT
BRANCH   1   8
ATOM      7  O   UNL     1      49.273   6.469  14.452  0.00  0.00    +0.000 OA
ATOM      8  C   UNL     1      48.151   6.909  14.216  0.00  0.00    +0.000 C 
ATOM      9  N   UNL     1      47.712   8.145  14.635  0.00  0.00    +0.000 N 
ATOM     10  H   UNL     1      46.718   8.330  14.645  0.00  0.00    +0.000 HD
BRANCH   9  11
ATOM     11  C   UNL     1      48.565   8.991  15.440  0.00  0.00    +0.000 C 
BRANCH  11  12
ATOM     12  C   UNL     1      49.072  10.165  14.658  0.00  0.00    +0.000 A 
ATOM     13  C   UNL     1      49.512  10.026  13.337  0.00  0.00    +0.000 A 
ATOM     14  C   UNL     1      50.010  11.130  12.651  0.00  0.00    +0.000 A 
ATOM     15  C   UNL     1      50.054  12.346  13.314  0.00  0.00    +0.000 A 
ATOM     16  N   UNL     1      49.643  12.520  14.587  0.00  0.00    +0.000 NA
ATOM     17  C   UNL     1      49.167  11.429  15.230  0.00  0.00    +0.000 A 
ENDBRANCH  11  12
ENDBRANCH   9  11
ENDBRANCH   1   8
BRANCH   4  18
ATOM     18  C   UNL     1      44.326   3.734  11.216  0.00  0.00    +0.000 C 
BRANCH  18  19
ATOM     19  O   UNL     1      44.674   3.698   9.838  0.00  0.00    +0.000 OA
BRANCH  19  20
ATOM     20  C   UNL     1      44.751   2.347   9.363  0.00  0.00    +0.000 C 
BRANCH  20  21
ATOM     21  C   UNL     1      45.733   2.222   8.217  0.00  0.00    +0.000 A 
ATOM     22  N   UNL     1      46.442   1.077   8.118  0.00  0.00    +0.000 NA
ATOM     23  C   UNL     1      47.308   0.994   7.090  0.00  0.00    +0.000 A 
ATOM     24  C   UNL     1      47.482   1.991   6.160  0.00  0.00    +0.000 A 
ATOM     25  C   UNL     1      46.707   3.111   6.341  0.00  0.00    +0.000 A 
ATOM     26  N   UNL     1      45.826   3.253   7.350  0.00  0.00    +0.000 NA
ENDBRANCH  20  21
ENDBRANCH  19  20
ENDBRANCH  18  19
ENDBRANCH   4  18
TORSDOF 7
ENDMDL
MODEL 9
REMARK VINA RESULT:    -6.127      3.745      8.601
REMARK INTER + INTRA:          -9.295
REMARK INTER:                  -8.654
REMARK INTRA:                  -0.641
REMARK UNBOUND:                -0.662
REMARK  Name = 
REMARK  7 active torsions:
REMARK  status: ('A' for Active; 'I' for Inactive)
REMARK    1  A    between atoms: C_2  and  C_11
REMARK    2  A    between atoms: N_3  and  C_4
REMARK    3  A    between atoms: C_4  and  C_5
REMARK    4  A    between atoms: C_14  and  C_15
REMARK    5  A    between atoms: C_15  and  O_16
REMARK    6  A    between atoms: O_16  and  C_17
REMARK    7  A    between atoms: C_17  and  C_18
REMARK                            x       y       z     vdW  Elec       q    Type
REMARK                         _______ _______ _______ _____ _____    ______ ____
ROOT
ATOM      1  C   UNL     1      45.456   5.834  11.453  0.00  0.00    +0.000 A 
ATOM      2  C   UNL     1      46.479   5.441  12.322  0.00  0.00    +0.000 A 
ATOM      3  C   UNL     1      47.121   6.390  13.123  0.00  0.00    +0.000 A 
ATOM      4  C   UNL     1      46.737   7.738  13.077  0.00  0.00    +0.000 A 
ATOM      5  C   UNL     1      45.691   8.116  12.223  0.00  0.00    +0.000 A 
ATOM      6  C   UNL     1      45.047   7.171  11.419  0.00  0.00    +0.000 A 
ENDROOT
BRANCH   1   8
ATOM      7  O   UNL     1      44.154   3.903  11.107  0.00  0.00    +0.000 OA
ATOM      8  C   UNL     1      44.813   4.806  10.597  0.00  0.00    +0.000 C 
ATOM      9  N   UNL     1      45.030   4.919   9.241  0.00  0.00    +0.000 N 
ATOM     10  H   UNL     1      45.786   5.509   8.918  0.00  0.00    +0.000 HD
BRANCH   9  11
ATOM     11  C   UNL     1      44.516   3.921   8.331  0.00  0.00    +0.000 C 
BRANCH  11  12
ATOM     12  C   UNL     1      45.594   2.984   7.874  0.00  0.00    +0.000 A 
ATOM     13  C   UNL     1      46.482   3.337   6.853  0.00  0.00    +0.000 A 
ATOM     14  C   UNL     1      47.448   2.429   6.429  0.00  0.00    +0.000 A 
ATOM     15  C   UNL     1      47.495   1.189   7.044  0.00  0.00    +0.000 A 
ATOM     16  N   UNL     1      46.655   0.809   8.030  0.00  0.00    +0.000 NA
ATOM     17  C   UNL     1      45.723   1.710   8.418  0.00  0.00    +0.000 A 
ENDBRANCH  11  12
ENDBRANCH   9  11
ENDBRANCH   1   8
BRANCH   4  18
ATOM     18  C   UNL     1      47.399   8.765  13.965  0.00  0.00    +0.000 C 
BRANCH  18  19
ATOM     19  O   UNL     1      48.026   9.768  13.175  0.00  0.00    +0.000 OA
BRANCH  19  20
ATOM     20  C   UNL     1      49.191   9.249  12.518  0.00  0.00    +0.000 C 
BRANCH  20  21
ATOM     21  C   UNL     1      50.417   9.368  13.398  0.00  0.00    +0.000 A 
ATOM     22  N   UNL     1      50.465  10.394  14.276  0.00  0.00    +0.000 NA
ATOM     23  C   UNL     1      51.567  10.476  15.045  0.00  0.00    +0.000 A 
ATOM     24  C   UNL     1      52.605   9.578  14.983  0.00  0.00    +0.000 A 
ATOM     25  C   UNL     1      52.458   8.565  14.067  0.00  0.00    +0.000 A 
ATOM     26  N   UNL     1      51.381   8.431  13.269  0.00  0.00    +0.000 NA
ENDBRANCH  20  21
ENDBRANCH  19  20
ENDBRANCH  18  19
ENDBRANCH   4  18
TORSDOF 7
ENDMDL
