MODEL 1
REMARK VINA RESULT:    -8.232      0.000      0.000
REMARK INTER + INTRA:         -11.635
REMARK INTER:                 -10.879
REMARK INTRA:                  -0.755
REMARK UNBOUND:                -0.755
REMARK  Name = 
REMARK  6 active torsions:
REMARK  status: ('A' for Active; 'I' for Inactive)
REMARK    1  A    between atoms: N_1  and  S_2
REMARK    2  A    between atoms: S_2  and  C_5
REMARK    3  A    between atoms: C_9  and  C_10
REMARK    4  A    between atoms: C_10  and  O_11
REMARK    5  A    between atoms: O_11  and  C_12
REMARK    6  A    between atoms: C_17  and  C_18
REMARK                            x       y       z     vdW  Elec       q    Type
REMARK                         _______ _______ _______ _____ _____    ______ ____
ROOT
ATOM      1  O   UNL     1      45.095   6.365  10.648  0.00  0.00    +0.000 OA
ENDROOT
BRANCH   1   2
ATOM      2  C   UNL     1      44.965   5.066  10.240  0.00  0.00    +0.000 A 
ATOM      3  C   UNL     1      44.088   4.281  10.980  0.00  0.00    +0.000 A 
ATOM      4  C   UNL     1      43.930   2.945  10.643  0.00  0.00    +0.000 A 
ATOM      5  F   UNL     1      43.108   2.172  11.366  0.00  0.00    +0.000 F 
ATOM      6  C   UNL     1      44.612   2.382   9.562  0.00  0.00    +0.000 A 
ATOM      7  C   UNL     1      45.475   3.162   8.777  0.00  0.00    +0.000 A 
ATOM      8  C   UNL     1      45.633   4.512   9.144  0.00  0.00    +0.000 A 
BRANCH   7   9
ATOM      9  C   UNL     1      46.192   2.608   7.610  0.00  0.00    +0.000 A 
ATOM     10  C   UNL     1      46.447   3.361   6.456  0.00  0.00    +0.000 A 
ATOM     11  C   UNL     1      47.132   2.800   5.378  0.00  0.00    +0.000 A 
ATOM     12  C   UNL     1      47.542   1.482   5.470  0.00  0.00    +0.000 A 
ATOM     13  N   UNL     1      47.314   0.707   6.548  0.00  0.00    +0.000 NA
ATOM     14  C   UNL     1      46.659   1.288   7.582  0.00  0.00    +0.000 A 
ENDBRANCH   7   9
ENDBRANCH   1   2
BRANCH   1  15
ATOM     15  C   UNL     1      44.698   6.628  11.999  0.00  0.00    +0.000 C 
BRANCH  15  20
ATOM     16  C   UNL     1      47.218   5.370  14.547  0.00  0.00    +0.000 A 
ATOM     17  C   UNL     1      48.154   6.381  14.464  0.00  0.00    +0.000 A 
ATOM     18  N   UNL     1      48.000   7.458  13.652  0.00  0.00    +0.000 NA
ATOM     19  C   UNL     1      46.872   7.507  12.905  0.00  0.00    +0.000 A 
ATOM     20  C   UNL     1      45.881   6.529  12.918  0.00  0.00    +0.000 A 
ATOM     21  C   UNL     1      46.080   5.426  13.748  0.00  0.00    +0.000 A 
BRANCH  16  22
ATOM     22  S   UNL     1      47.461   4.015  15.619  0.00  0.00    +0.000 S 
ATOM     23  O   UNL     1      47.734   2.828  14.846  0.00  0.00    +0.000 OA
ATOM     24  O   UNL     1      46.463   4.044  16.663  0.00  0.00    +0.000 OA
BRANCH  22  25
ATOM     25  N   UNL     1      48.909   4.434  16.359  0.00  0.00    +0.000 NA
ATOM     26  H   UNL     1      49.075   3.837  17.170  0.00  0.00    +0.000 HD
ATOM     27  H   UNL     1      48.936   5.433  16.564  0.00  0.00    +0.000 HD
ENDBRANCH  22  25
ENDBRANCH  16  22
ENDBRANCH  15  20
ENDBRANCH   1  15
TORSDOF 6
ENDMDL
MODEL 2
REMARK VINA RESULT:    -7.658      1.618      2.299
REMARK INTER + INTRA:         -10.876
REMARK INTER:                  -9.961
REMARK INTRA:                  -0.915
REMARK UNBOUND:                -0.755
REMARK  Name = 
REMARK  6 active torsions:
REMARK  status: ('A' for Active; 'I' for Inactive)
REMARK    1  A    between atoms: N_1  and  S_2
REMARK    2  A    between atoms: S_2  and  C_5
REMARK    3  A    between atoms: C_9  and  C_10
REMARK    4  A    between atoms: C_10  and  O_11
REMARK    5  A    between atoms: O_11  and  C_12
REMARK    6  A    between atoms: C_17  and  C_18
REMARK                            x       y       z     vdW  Elec       q    Type
REMARK                         _______ _______ _______ _____ _____    ______ ____
ROOT
ATOM      1  O   UNL     1      45.972   7.486  12.343  0.00  0.00    +0.000 OA
ENDROOT
BRANCH   1   2
ATOM      2  C   UNL     1      45.229   6.536  11.698  0.00  0.00    +0.000 A 
ATOM      3  C   UNL     1      43.873   6.514  12.003  0.00  0.00    +0.000 A 
ATOM      4  C   UNL     1      43.063   5.557  11.410  0.00  0.00    +0.000 A 
ATOM      5  F   UNL     1      41.759   5.509  11.717  0.00  0.00    +0.000 F 
ATOM      6  C   UNL     1      43.577   4.634  10.496  0.00  0.00    +0.000 A 
ATOM      7  C   UNL     1      44.936   4.658  10.144  0.00  0.00    +0.000 A 
ATOM      8  C   UNL     1      45.743   5.629  10.767  0.00  0.00    +0.000 A 
BRANCH   7   9
ATOM      9  C   UNL     1      45.509   3.717   9.160  0.00  0.00    +0.000 A 
ATOM     10  C   UNL     1      46.157   4.148   7.995  0.00  0.00    +0.000 A 
ATOM     11  C   UNL     1      46.689   3.224   7.094  0.00  0.00    +0.000 A 
ATOM     12  C   UNL     1      46.552   1.876   7.373  0.00  0.00    +0.000 A 
ATOM     13  N   UNL     1      45.929   1.404   8.469  0.00  0.00    +0.000 NA
ATOM     14  C   UNL     1      45.436   2.329   9.329  0.00  0.00    +0.000 A 
ENDBRANCH   7   9
ENDBRANCH   1   2
BRANCH   1  15
ATOM     15  C   UNL     1      47.382   7.233  12.394  0.00  0.00    +0.000 C 
BRANCH  15  20
ATOM     16  C   UNL     1      48.107   5.401  15.641  0.00  0.00    +0.000 A 
ATOM     17  C   UNL     1      48.737   6.411  16.340  0.00  0.00    +0.000 A 
ATOM     18  N   UNL     1      48.913   7.656  15.829  0.00  0.00    +0.000 NA
ATOM     19  C   UNL     1      48.442   7.880  14.580  0.00  0.00    +0.000 A 
ATOM     20  C   UNL     1      47.804   6.918  13.801  0.00  0.00    +0.000 A 
ATOM     21  C   UNL     1      47.658   5.644  14.347  0.00  0.00    +0.000 A 
BRANCH  16  22
ATOM     22  S   UNL     1      47.896   3.822  16.352  0.00  0.00    +0.000 S 
ATOM     23  O   UNL     1      46.638   3.772  17.055  0.00  0.00    +0.000 OA
ATOM     24  O   UNL     1      49.137   3.398  16.959  0.00  0.00    +0.000 OA
BRANCH  22  25
ATOM     25  N   UNL     1      47.706   2.865  14.985  0.00  0.00    +0.000 NA
ATOM     26  H   UNL     1      48.501   2.986  14.358  0.00  0.00    +0.000 HD
ATOM     27  H   UNL     1      46.800   3.035  14.547  0.00  0.00    +0.000 HD
ENDBRANCH  22  25
ENDBRANCH  16  22
ENDBRANCH  15  20
ENDBRANCH   1  15
TORSDOF 6
ENDMDL
MODEL 3
REMARK VINA RESULT:    -7.525      2.415      3.151
REMARK INTER + INTRA:         -10.700
REMARK INTER:                  -9.842
REMARK INTRA:                  -0.858
REMARK UNBOUND:                -0.755
REMARK  Name = 
REMARK  6 active torsions:
REMARK  status: ('A' for Active; 'I' for Inactive)
REMARK    1  A    between atoms: N_1  and  S_2
REMARK    2  A    between atoms: S_2  and  C_5
REMARK    3  A    between atoms: C_9  and  C_10
REMARK    4  A    between atoms: C_10  and  O_11
REMARK    5  A    between atoms: O_11  and  C_12
REMARK    6  A    between atoms: C_17  and  C_18
REMARK                            x       y       z     vdW  Elec       q    Type
REMARK                         _______ _______ _______ _____ _____    ______ ____
ROOT
ATOM      1  O   UNL     1      44.531   6.424  10.923  0.00  0.00    +0.000 OA
ENDROOT
BRANCH   1   2
ATOM      2  C   UNL     1      44.518   5.109  10.547  0.00  0.00    +0.000 A 
ATOM      3  C   UNL     1      43.709   4.268  11.303  0.00  0.00    +0.000 A 
ATOM      4  C   UNL     1      43.671   2.915  10.998  0.00  0.00    +0.000 A 
ATOM      5  F   UNL     1      42.916   2.091  11.738  0.00  0.00    +0.000 F 
ATOM      6  C   UNL     1      44.405   2.389   9.933  0.00  0.00    +0.000 A 
ATOM      7  C   UNL     1      45.201   3.223   9.132  0.00  0.00    +0.000 A 
ATOM      8  C   UNL     1      45.237   4.590   9.466  0.00  0.00    +0.000 A 
BRANCH   7   9
ATOM      9  C   UNL     1      45.969   2.707   7.980  0.00  0.00    +0.000 A 
ATOM     10  C   UNL     1      46.255   3.490   6.854  0.00  0.00    +0.000 A 
ATOM     11  C   UNL     1      46.988   2.964   5.790  0.00  0.00    +0.000 A 
ATOM     12  C   UNL     1      47.415   1.650   5.868  0.00  0.00    +0.000 A 
ATOM     13  N   UNL     1      47.160   0.848   6.919  0.00  0.00    +0.000 NA
ATOM     14  C   UNL     1      46.457   1.395   7.940  0.00  0.00    +0.000 A 
ENDBRANCH   7   9
ENDBRANCH   1   2
BRANCH   1  15
ATOM     15  C   UNL     1      44.755   6.662  12.318  0.00  0.00    +0.000 C 
BRANCH  15  20
ATOM     16  C   UNL     1      48.326   7.922  12.615  0.00  0.00    +0.000 A 
ATOM     17  C   UNL     1      48.890   6.858  13.291  0.00  0.00    +0.000 A 
ATOM     18  N   UNL     1      48.186   5.748  13.628  0.00  0.00    +0.000 NA
ATOM     19  C   UNL     1      46.879   5.719  13.275  0.00  0.00    +0.000 A 
ATOM     20  C   UNL     1      46.227   6.748  12.602  0.00  0.00    +0.000 A 
ATOM     21  C   UNL     1      46.974   7.884  12.289  0.00  0.00    +0.000 A 
BRANCH  16  22
ATOM     22  S   UNL     1      49.282   9.319  12.194  0.00  0.00    +0.000 S 
ATOM     23  O   UNL     1      49.923   9.842  13.375  0.00  0.00    +0.000 OA
ATOM     24  O   UNL     1      48.532  10.158  11.287  0.00  0.00    +0.000 OA
BRANCH  22  25
ATOM     25  N   UNL     1      50.499   8.622  11.271  0.00  0.00    +0.000 NA
ATOM     26  H   UNL     1      50.176   7.740  10.871  0.00  0.00    +0.000 HD
ATOM     27  H   UNL     1      51.363   8.544  11.809  0.00  0.00    +0.000 HD
ENDBRANCH  22  25
ENDBRANCH  16  22
ENDBRANCH  15  20
ENDBRANCH   1  15
TORSDOF 6
ENDMDL
MODEL 4
REMARK VINA RESULT:    -7.418      2.011      2.343
REMARK INTER + INTRA:         -10.559
REMARK INTER:                  -9.834
REMARK INTRA:                  -0.725
REMARK UNBOUND:                -0.755
REMARK  Name = 
REMARK  6 active torsions:
REMARK  status: ('A' for Active; 'I' for Inactive)
REMARK    1  A    between atoms: N_1  and  S_2
REMARK    2  A    between atoms: S_2  and  C_5
REMARK    3  A    between atoms: C_9  and  C_10
REMARK    4  A    between atoms: C_10  and  O_11
REMARK    5  A    between atoms: O_11  and  C_12
REMARK    6  A    between atoms: C_17  and  C_18
REMARK                            x       y       z     vdW  Elec       q    Type
REMARK                         _______ _______ _______ _____ _____    ______ ____
ROOT
ATOM      1  O   UNL     1      44.507   6.411  10.907  0.00  0.00    +0.000 OA
ENDROOT
BRANCH   1   2
ATOM      2  C   UNL     1      44.500   5.094  10.539  0.00  0.00    +0.000 A 
ATOM      3  C   UNL     1      43.696   4.254  11.300  0.00  0.00    +0.000 A 
ATOM      4  C   UNL     1      43.664   2.899  11.003  0.00  0.00    +0.000 A 
ATOM      5  F   UNL     1      42.913   2.075  11.747  0.00  0.00    +0.000 F 
ATOM      6  C   UNL     1      44.402   2.370   9.941  0.00  0.00    +0.000 A 
ATOM      7  C   UNL     1      45.193   3.203   9.135  0.00  0.00    +0.000 A 
ATOM      8  C   UNL     1      45.222   4.572   9.462  0.00  0.00    +0.000 A 
BRANCH   7   9
ATOM      9  C   UNL     1      45.965   2.683   7.987  0.00  0.00    +0.000 A 
ATOM     10  C   UNL     1      46.239   3.458   6.853  0.00  0.00    +0.000 A 
ATOM     11  C   UNL     1      46.976   2.930   5.792  0.00  0.00    +0.000 A 
ATOM     12  C   UNL     1      47.418   1.622   5.883  0.00  0.00    +0.000 A 
ATOM     13  N   UNL     1      47.173   0.827   6.942  0.00  0.00    +0.000 NA
ATOM     14  C   UNL     1      46.467   1.377   7.959  0.00  0.00    +0.000 A 
ENDBRANCH   7   9
ENDBRANCH   1   2
BRANCH   1  15
ATOM     15  C   UNL     1      44.620   6.656  12.315  0.00  0.00    +0.000 C 
BRANCH  15  20
ATOM     16  C   UNL     1      47.932   8.150  13.421  0.00  0.00    +0.000 A 
ATOM     17  C   UNL     1      47.788   9.428  12.918  0.00  0.00    +0.000 A 
ATOM     18  N   UNL     1      46.669   9.837  12.268  0.00  0.00    +0.000 NA
ATOM     19  C   UNL     1      45.676   8.929  12.122  0.00  0.00    +0.000 A 
ATOM     20  C   UNL     1      45.739   7.618  12.588  0.00  0.00    +0.000 A 
ATOM     21  C   UNL     1      46.911   7.223  13.234  0.00  0.00    +0.000 A 
BRANCH  16  22
ATOM     22  S   UNL     1      49.387   7.681  14.262  0.00  0.00    +0.000 S 
ATOM     23  O   UNL     1      49.242   6.340  14.771  0.00  0.00    +0.000 OA
ATOM     24  O   UNL     1      49.838   8.778  15.089  0.00  0.00    +0.000 OA
BRANCH  22  25
ATOM     25  N   UNL     1      50.485   7.584  12.995  0.00  0.00    +0.000 NA
ATOM     26  H   UNL     1      50.728   8.519  12.667  0.00  0.00    +0.000 HD
ATOM     27  H   UNL     1      50.140   6.962  12.263  0.00  0.00    +0.000 HD
ENDBRANCH  22  25
ENDBRANCH  16  22
ENDBRANCH  15  20
ENDBRANCH   1  15
TORSDOF 6
ENDMDL
MODEL 5
REMARK VINA RESULT:    -7.170      3.005      4.509
REMARK INTER + INTRA:         -10.230
REMARK INTER:                  -9.418
REMARK INTRA:                  -0.813
REMARK UNBOUND:                -0.755
REMARK  Name = 
REMARK  6 active torsions:
REMARK  status: ('A' for Active; 'I' for Inactive)
REMARK    1  A    between atoms: N_1  and  S_2
REMARK    2  A    between atoms: S_2  and  C_5
REMARK    3  A    between atoms: C_9  and  C_10
REMARK    4  A    between atoms: C_10  and  O_11
REMARK    5  A    between atoms: O_11  and  C_12
REMARK    6  A    between atoms: C_17  and  C_18
REMARK                            x       y       z     vdW  Elec       q    Type
REMARK                         _______ _______ _______ _____ _____    ______ ____
ROOT
ATOM      1  O   UNL     1      48.724   7.573  13.452  0.00  0.00    +0.000 OA
ENDROOT
BRANCH   1   2
ATOM      2  C   UNL     1      47.501   7.510  12.843  0.00  0.00    +0.000 A 
ATOM      3  C   UNL     1      46.705   8.644  12.959  0.00  0.00    +0.000 A 
ATOM      4  C   UNL     1      45.438   8.640  12.393  0.00  0.00    +0.000 A 
ATOM      5  F   UNL     1      44.652   9.718  12.521  0.00  0.00    +0.000 F 
ATOM      6  C   UNL     1      44.960   7.533  11.689  0.00  0.00    +0.000 A 
ATOM      7  C   UNL     1      45.758   6.390  11.527  0.00  0.00    +0.000 A 
ATOM      8  C   UNL     1      47.034   6.408  12.120  0.00  0.00    +0.000 A 
BRANCH   7   9
ATOM      9  C   UNL     1      45.296   5.211  10.765  0.00  0.00    +0.000 A 
ATOM     10  C   UNL     1      45.508   5.075   9.387  0.00  0.00    +0.000 A 
ATOM     11  C   UNL     1      45.059   3.942   8.707  0.00  0.00    +0.000 A 
ATOM     12  C   UNL     1      44.391   2.964   9.422  0.00  0.00    +0.000 A 
ATOM     13  N   UNL     1      44.148   3.047  10.744  0.00  0.00    +0.000 NA
ATOM     14  C   UNL     1      44.610   4.154  11.375  0.00  0.00    +0.000 A 
ENDBRANCH   7   9
ENDBRANCH   1   2
BRANCH   1  15
ATOM     15  C   UNL     1      48.740   8.210  14.736  0.00  0.00    +0.000 C 
BRANCH  15  20
ATOM     16  C   UNL     1      48.438   4.945  16.653  0.00  0.00    +0.000 A 
ATOM     17  C   UNL     1      48.988   5.334  17.858  0.00  0.00    +0.000 A 
ATOM     18  N   UNL     1      49.423   6.598  18.092  0.00  0.00    +0.000 NA
ATOM     19  C   UNL     1      49.300   7.487  17.077  0.00  0.00    +0.000 A 
ATOM     20  C   UNL     1      48.767   7.180  15.828  0.00  0.00    +0.000 A 
ATOM     21  C   UNL     1      48.349   5.867  15.614  0.00  0.00    +0.000 A 
BRANCH  16  22
ATOM     22  S   UNL     1      47.882   3.309  16.413  0.00  0.00    +0.000 S 
ATOM     23  O   UNL     1      46.657   3.101  17.145  0.00  0.00    +0.000 OA
ATOM     24  O   UNL     1      49.003   2.402  16.510  0.00  0.00    +0.000 OA
BRANCH  22  25
ATOM     25  N   UNL     1      47.457   3.338  14.789  0.00  0.00    +0.000 NA
ATOM     26  H   UNL     1      48.281   3.180  14.207  0.00  0.00    +0.000 HD
ATOM     27  H   UNL     1      46.945   4.191  14.563  0.00  0.00    +0.000 HD
ENDBRANCH  22  25
ENDBRANCH  16  22
ENDBRANCH  15  20
ENDBRANCH   1  15
TORSDOF 6
ENDMDL
MODEL 6
REMARK VINA RESULT:    -7.069      4.824      8.627
REMARK INTER + INTRA:         -10.097
REMARK INTER:                  -9.457
REMARK INTRA:                  -0.640
REMARK UNBOUND:                -0.755
REMARK  Name = 
REMARK  6 active torsions:
REMARK  status: ('A' for Active; 'I' for Inactive)
REMARK    1  A    between atoms: N_1  and  S_2
REMARK    2  A    between atoms: S_2  and  C_5
REMARK    3  A    between atoms: C_9  and  C_10
REMARK    4  A    between atoms: C_10  and  O_11
REMARK    5  A    between atoms: O_11  and  C_12
REMARK    6  A    between atoms: C_17  and  C_18
REMARK                            x       y       z     vdW  Elec       q    Type
REMARK                         _______ _______ _______ _____ _____    ______ ____
ROOT
ATOM      1  O   UNL     1      46.694   3.744  15.767  0.00  0.00    +0.000 OA
ENDROOT
BRANCH   1   2
ATOM      2  C   UNL     1      47.617   3.892  16.765  0.00  0.00    +0.000 A 
ATOM      3  C   UNL     1      47.238   4.703  17.828  0.00  0.00    +0.000 A 
ATOM      4  C   UNL     1      48.136   4.924  18.863  0.00  0.00    +0.000 A 
ATOM      5  F   UNL     1      47.791   5.727  19.879  0.00  0.00    +0.000 F 
ATOM      6  C   UNL     1      49.399   4.329  18.868  0.00  0.00    +0.000 A 
ATOM      7  C   UNL     1      49.793   3.477  17.825  0.00  0.00    +0.000 A 
ATOM      8  C   UNL     1      48.872   3.276  16.778  0.00  0.00    +0.000 A 
BRANCH   7   9
ATOM      9  C   UNL     1      51.110   2.807  17.811  0.00  0.00    +0.000 A 
ATOM     10  C   UNL     1      51.271   1.472  17.417  0.00  0.00    +0.000 A 
ATOM     11  C   UNL     1      52.534   0.880  17.414  0.00  0.00    +0.000 A 
ATOM     12  C   UNL     1      53.619   1.636  17.820  0.00  0.00    +0.000 A 
ATOM     13  N   UNL     1      53.522   2.918  18.220  0.00  0.00    +0.000 NA
ATOM     14  C   UNL     1      52.283   3.466  18.197  0.00  0.00    +0.000 A 
ENDBRANCH   7   9
ENDBRANCH   1   2
BRANCH   1  15
ATOM     15  C   UNL     1      47.232   3.633  14.444  0.00  0.00    +0.000 C 
BRANCH  15  20
ATOM     16  C   UNL     1      44.668   5.130  12.076  0.00  0.00    +0.000 A 
ATOM     17  C   UNL     1      45.207   6.392  11.921  0.00  0.00    +0.000 A 
ATOM     18  N   UNL     1      46.365   6.772  12.517  0.00  0.00    +0.000 NA
ATOM     19  C   UNL     1      46.989   5.853  13.290  0.00  0.00    +0.000 A 
ATOM     20  C   UNL     1      46.514   4.562  13.509  0.00  0.00    +0.000 A 
ATOM     21  C   UNL     1      45.310   4.210  12.899  0.00  0.00    +0.000 A 
BRANCH  16  22
ATOM     22  S   UNL     1      43.182   4.690  11.275  0.00  0.00    +0.000 S 
ATOM     23  O   UNL     1      42.144   5.625  11.632  0.00  0.00    +0.000 OA
ATOM     24  O   UNL     1      42.996   3.259  11.360  0.00  0.00    +0.000 OA
BRANCH  22  25
ATOM     25  N   UNL     1      43.564   5.006   9.671  0.00  0.00    +0.000 NA
ATOM     26  H   UNL     1      44.284   4.359   9.346  0.00  0.00    +0.000 HD
ATOM     27  H   UNL     1      43.800   5.990   9.541  0.00  0.00    +0.000 HD
ENDBRANCH  22  25
ENDBRANCH  16  22
ENDBRANCH  15  20
ENDBRANCH   1  15
TORSDOF 6
ENDMDL
MODEL 7
REMARK VINA RESULT:    -6.297      4.662      6.071
REMARK INTER + INTRA:          -9.077
REMARK INTER:                  -8.405
REMARK INTRA:                  -0.672
REMARK UNBOUND:                -0.755
REMARK  Name = 
REMARK  6 active torsions:
REMARK  status: ('A' for Active; 'I' for Inactive)
REMARK    1  A    between atoms: N_1  and  S_2
REMARK    2  A    between atoms: S_2  and  C_5
REMARK    3  A    between atoms: C_9  and  C_10
REMARK    4  A    between atoms: C_10  and  O_11
REMARK    5  A    between atoms: O_11  and  C_12
REMARK    6  A    between atoms: C_17  and  C_18
REMARK                            x       y       z     vdW  Elec       q    Type
REMARK                         _______ _______ _______ _____ _____    ______ ____
ROOT
ATOM      1  O   UNL     1      49.969   7.271  15.176  0.00  0.00    +0.000 OA
ENDROOT
BRANCH   1   2
ATOM      2  C   UNL     1      49.087   7.290  14.130  0.00  0.00    +0.000 A 
ATOM      3  C   UNL     1      49.379   8.182  13.105  0.00  0.00    +0.000 A 
ATOM      4  C   UNL     1      48.512   8.278  12.026  0.00  0.00    +0.000 A 
ATOM      5  F   UNL     1      48.769   9.154  11.045  0.00  0.00    +0.000 F 
ATOM      6  C   UNL     1      47.369   7.481  11.939  0.00  0.00    +0.000 A 
ATOM      7  C   UNL     1      47.071   6.547  12.944  0.00  0.00    +0.000 A 
ATOM      8  C   UNL     1      47.956   6.474  14.036  0.00  0.00    +0.000 A 
BRANCH   7   9
ATOM      9  C   UNL     1      45.886   5.667  12.872  0.00  0.00    +0.000 A 
ATOM     10  C   UNL     1      44.583   6.168  12.755  0.00  0.00    +0.000 A 
ATOM     11  C   UNL     1      43.491   5.300  12.686  0.00  0.00    +0.000 A 
ATOM     12  C   UNL     1      43.726   3.938  12.747  0.00  0.00    +0.000 A 
ATOM     13  N   UNL     1      44.954   3.401  12.872  0.00  0.00    +0.000 NA
ATOM     14  C   UNL     1      45.992   4.272  12.922  0.00  0.00    +0.000 A 
ENDBRANCH   7   9
ENDBRANCH   1   2
BRANCH   1  15
ATOM     15  C   UNL     1      49.585   8.046  16.318  0.00  0.00    +0.000 C 
BRANCH  15  20
ATOM     16  C   UNL     1      48.210   5.044  18.196  0.00  0.00    +0.000 A 
ATOM     17  C   UNL     1      47.634   5.690  19.272  0.00  0.00    +0.000 A 
ATOM     18  N   UNL     1      47.642   7.040  19.406  0.00  0.00    +0.000 NA
ATOM     19  C   UNL     1      48.252   7.751  18.429  0.00  0.00    +0.000 A 
ATOM     20  C   UNL     1      48.866   7.184  17.315  0.00  0.00    +0.000 A 
ATOM     21  C   UNL     1      48.858   5.793  17.218  0.00  0.00    +0.000 A 
BRANCH  16  22
ATOM     22  S   UNL     1      48.158   3.305  18.067  0.00  0.00    +0.000 S 
ATOM     23  O   UNL     1      49.374   2.828  17.458  0.00  0.00    +0.000 OA
ATOM     24  O   UNL     1      46.850   2.898  17.605  0.00  0.00    +0.000 OA
BRANCH  22  25
ATOM     25  N   UNL     1      48.233   2.851  19.681  0.00  0.00    +0.000 NA
ATOM     26  H   UNL     1      48.535   3.638  20.255  0.00  0.00    +0.000 HD
ATOM     27  H   UNL     1      48.801   2.011  19.796  0.00  0.00    +0.000 HD
ENDBRANCH  22  25
ENDBRANCH  16  22
ENDBRANCH  15  20
ENDBRANCH   1  15
TORSDOF 6
ENDMDL
MODEL 8
REMARK VINA RESULT:    -6.276      4.636      9.652
REMARK INTER + INTRA:          -9.049
REMARK INTER:                  -8.418
REMARK INTRA:                  -0.631
REMARK UNBOUND:                -0.755
REMARK  Name = 
REMARK  6 active torsions:
REMARK  status: ('A' for Active; 'I' for Inactive)
REMARK    1  A    between atoms: N_1  and  S_2
REMARK    2  A    between atoms: S_2  and  C_5
REMARK    3  A    between atoms: C_9  and  C_10
REMARK    4  A    between atoms: C_10  and  O_11
REMARK    5  A    between atoms: O_11  and  C_12
REMARK    6  A    between atoms: C_17  and  C_18
REMARK                            x       y       z     vdW  Elec       q    Type
REMARK                         _______ _______ _______ _____ _____    ______ ____
ROOT
ATOM      1  O   UNL     1      48.172   4.960  15.271  0.00  0.00    +0.000 OA
ENDROOT
BRANCH   1   2
ATOM      2  C   UNL     1      48.223   5.068  16.633  0.00  0.00    +0.000 A 
ATOM      3  C   UNL     1      48.319   3.873  17.336  0.00  0.00    +0.000 A 
ATOM      4  C   UNL     1      48.344   3.905  18.723  0.00  0.00    +0.000 A 
ATOM      5  F   UNL     1      48.408   2.757  19.411  0.00  0.00    +0.000 F 
ATOM      6  C   UNL     1      48.302   5.113  19.423  0.00  0.00    +0.000 A 
ATOM      7  C   UNL     1      48.243   6.336  18.736  0.00  0.00    +0.000 A 
ATOM      8  C   UNL     1      48.205   6.281  17.330  0.00  0.00    +0.000 A 
BRANCH   7   9
ATOM      9  C   UNL     1      48.226   7.634  19.442  0.00  0.00    +0.000 A 
ATOM     10  C   UNL     1      47.320   8.653  19.121  0.00  0.00    +0.000 A 
ATOM     11  C   UNL     1      47.335   9.863  19.816  0.00  0.00    +0.000 A 
ATOM     12  C   UNL     1      48.271  10.035  20.820  0.00  0.00    +0.000 A 
ATOM     13  N   UNL     1      49.174   9.097  21.163  0.00  0.00    +0.000 NA
ATOM     14  C   UNL     1      49.122   7.929  20.476  0.00  0.00    +0.000 A 
ENDBRANCH   7   9
ENDBRANCH   1   2
BRANCH   1  15
ATOM     15  C   UNL     1      47.093   4.169  14.758  0.00  0.00    +0.000 C 
BRANCH  15  20
ATOM     16  C   UNL     1      44.816   5.054  11.850  0.00  0.00    +0.000 A 
ATOM     17  C   UNL     1      45.532   6.103  11.308  0.00  0.00    +0.000 A 
ATOM     18  N   UNL     1      46.721   6.519  11.814  0.00  0.00    +0.000 NA
ATOM     19  C   UNL     1      47.192   5.856  12.897  0.00  0.00    +0.000 A 
ATOM     20  C   UNL     1      46.533   4.795  13.513  0.00  0.00    +0.000 A 
ATOM     21  C   UNL     1      45.304   4.407  12.981  0.00  0.00    +0.000 A 
BRANCH  16  22
ATOM     22  S   UNL     1      43.299   4.553  11.148  0.00  0.00    +0.000 S 
ATOM     23  O   UNL     1      42.270   5.502  11.493  0.00  0.00    +0.000 OA
ATOM     24  O   UNL     1      43.132   3.130  11.334  0.00  0.00    +0.000 OA
BRANCH  22  25
ATOM     25  N   UNL     1      43.604   4.768   9.511  0.00  0.00    +0.000 NA
ATOM     26  H   UNL     1      44.426   4.231   9.232  0.00  0.00    +0.000 HD
ATOM     27  H   UNL     1      43.657   5.760   9.279  0.00  0.00    +0.000 HD
ENDBRANCH  22  25
ENDBRANCH  16  22
ENDBRANCH  15  20
ENDBRANCH   1  15
TORSDOF 6
ENDMDL
MODEL 9
REMARK VINA RESULT:    -6.272      4.293      8.992
REMARK INTER + INTRA:          -9.043
REMARK INTER:                  -8.234
REMARK INTRA:                  -0.809
REMARK UNBOUND:                -0.755
REMARK  Name = 
REMARK  6 active torsions:
REMARK  status: ('A' for Active; 'I' for Inactive)
REMARK    1  A    between atoms: N_1  and  S_2
REMARK    2  A    between atoms: S_2  and  C_5
REMARK    3  A    between atoms: C_9  and  C_10
REMARK    4  A    between atoms: C_10  and  O_11
REMARK    5  A    between atoms: O_11  and  C_12
REMARK    6  A    between atoms: C_17  and  C_18
REMARK                            x       y       z     vdW  Elec       q    Type
REMARK                         _______ _______ _______ _____ _____    ______ ____
ROOT
ATOM      1  O   UNL     1      48.156   5.328  14.308  0.00  0.00    +0.000 OA
ENDROOT
BRANCH   1   2
ATOM      2  C   UNL     1      47.998   5.121  15.651  0.00  0.00    +0.000 A 
ATOM      3  C   UNL     1      47.494   3.879  16.019  0.00  0.00    +0.000 A 
ATOM      4  C   UNL     1      47.278   3.610  17.363  0.00  0.00    +0.000 A 
ATOM      5  F   UNL     1      46.766   2.426  17.728  0.00  0.00    +0.000 F 
ATOM      6  C   UNL     1      47.582   4.550  18.351  0.00  0.00    +0.000 A 
ATOM      7  C   UNL     1      48.127   5.797  18.008  0.00  0.00    +0.000 A 
ATOM      8  C   UNL     1      48.325   6.056  16.638  0.00  0.00    +0.000 A 
BRANCH   7   9
ATOM      9  C   UNL     1      48.486   6.805  19.026  0.00  0.00    +0.000 A 
ATOM     10  C   UNL     1      49.591   6.655  19.875  0.00  0.00    +0.000 A 
ATOM     11  C   UNL     1      49.898   7.634  20.821  0.00  0.00    +0.000 A 
ATOM     12  C   UNL     1      49.081   8.747  20.909  0.00  0.00    +0.000 A 
ATOM     13  N   UNL     1      48.000   8.937  20.129  0.00  0.00    +0.000 NA
ATOM     14  C   UNL     1      47.739   7.974  19.212  0.00  0.00    +0.000 A 
ENDBRANCH   7   9
ENDBRANCH   1   2
BRANCH   1  15
ATOM     15  C   UNL     1      47.737   6.612  13.831  0.00  0.00    +0.000 C 
BRANCH  15  20
ATOM     16  C   UNL     1      44.917   5.153  11.748  0.00  0.00    +0.000 A 
ATOM     17  C   UNL     1      44.265   6.318  11.394  0.00  0.00    +0.000 A 
ATOM     18  N   UNL     1      44.704   7.546  11.768  0.00  0.00    +0.000 NA
ATOM     19  C   UNL     1      45.828   7.593  12.522  0.00  0.00    +0.000 A 
ATOM     20  C   UNL     1      46.543   6.470  12.932  0.00  0.00    +0.000 A 
ATOM     21  C   UNL     1      46.053   5.223  12.548  0.00  0.00    +0.000 A 
BRANCH  16  22
ATOM     22  S   UNL     1      44.315   3.600  11.226  0.00  0.00    +0.000 S 
ATOM     23  O   UNL     1      45.023   3.179  10.043  0.00  0.00    +0.000 OA
ATOM     24  O   UNL     1      42.872   3.593  11.307  0.00  0.00    +0.000 OA
BRANCH  22  25
ATOM     25  N   UNL     1      44.847   2.604  12.469  0.00  0.00    +0.000 NA
ATOM     26  H   UNL     1      44.588   1.636  12.279  0.00  0.00    +0.000 HD
ATOM     27  H   UNL     1      44.527   2.951  13.374  0.00  0.00    +0.000 HD
ENDBRANCH  22  25
ENDBRANCH  16  22
ENDBRANCH  15  20
ENDBRANCH   1  15
TORSDOF 6
ENDMDL
