MODEL 1
REMARK VINA RESULT:    -8.576      0.000      0.000
REMARK INTER + INTRA:         -12.959
REMARK INTER:                 -12.085
REMARK INTRA:                  -0.874
REMARK UNBOUND:                -0.874
REMARK  Name = 
REMARK  8 active torsions:
REMARK  status: ('A' for Active; 'I' for Inactive)
REMARK    1  A    between atoms: C_1  and  C_2
REMARK    2  A    between atoms: C_2  and  C_3
REMARK    3  A    between atoms: C_3  and  N_4
REMARK    4  A    between atoms: C_3  and  C_17
REMARK    5  A    between atoms: C_5  and  C_7
REMARK    6  A    between atoms: C_20  and  O_21
REMARK    7  A    between atoms: O_21  and  C_22
REMARK    8  A    between atoms: C_22  and  C_23
REMARK                            x       y       z     vdW  Elec       q    Type
REMARK                         _______ _______ _______ _____ _____    ______ ____
ROOT
ATOM      1  C   UNL     1      44.414   4.154  12.882  0.00  0.00    +0.000 C 
ENDROOT
BRANCH   1   2
ATOM      2  C   UNL     1      44.799   4.219  11.415  0.00  0.00    +0.000 A 
ATOM      3  C   UNL     1      44.574   3.122  10.569  0.00  0.00    +0.000 A 
ATOM      4  C   UNL     1      44.936   3.179   9.221  0.00  0.00    +0.000 A 
ATOM      5  C   UNL     1      45.529   4.333   8.707  0.00  0.00    +0.000 A 
ATOM      6  C   UNL     1      45.814   5.400   9.556  0.00  0.00    +0.000 A 
ATOM      7  C   UNL     1      45.450   5.345  10.893  0.00  0.00    +0.000 A 
BRANCH   5   8
ATOM      8  O   UNL     1      45.792   4.333   7.365  0.00  0.00    +0.000 OA
BRANCH   8   9
ATOM      9  C   UNL     1      47.127   3.930   7.032  0.00  0.00    +0.000 C 
BRANCH   9  10
ATOM     10  C   UNL     1      47.098   2.599   6.334  0.00  0.00    +0.000 A 
ATOM     11  C   UNL     1      47.003   2.548   4.945  0.00  0.00    +0.000 A 
ATOM     12  C   UNL     1      47.017   1.308   4.320  0.00  0.00    +0.000 A 
ATOM     13  C   UNL     1      47.133   0.161   5.095  0.00  0.00    +0.000 A 
ATOM     14  C   UNL     1      47.236   0.300   6.468  0.00  0.00    +0.000 A 
ATOM     15  N   UNL     1      47.230   1.489   7.102  0.00  0.00    +0.000 NA
ENDBRANCH   9  10
ENDBRANCH   8   9
ENDBRANCH   5   8
ENDBRANCH   1   2
BRANCH   1  16
ATOM     16  N   UNL     1      45.425   4.884  13.624  0.00  0.00    +0.000 N 
ATOM     17  C   UNL     1      46.599   4.303  14.033  0.00  0.00    +0.000 C 
ATOM     18  O   UNL     1      46.900   3.145  13.773  0.00  0.00    +0.000 OA
ATOM     19  H   UNL     1      45.187   5.808  13.956  0.00  0.00    +0.000 HD
BRANCH  17  20
ATOM     20  C   UNL     1      47.487   5.200  14.769  0.00  0.00    +0.000 A 
ATOM     21  C   UNL     1      48.089   6.318  14.213  0.00  0.00    +0.000 A 
ATOM     22  S   UNL     1      49.181   7.089  15.278  0.00  0.00    +0.000 S 
ATOM     23  C   UNL     1      48.882   5.945  16.504  0.00  0.00    +0.000 A 
ATOM     24  N   UNL     1      49.542   5.992  17.693  0.00  0.00    +0.000 NA
ATOM     25  C   UNL     1      49.224   5.044  18.511  0.00  0.00    +0.000 A 
ATOM     26  N   UNL     1      48.287   4.072  18.261  0.00  0.00    +0.000 N 
ATOM     27  C   UNL     1      47.511   4.055  17.122  0.00  0.00    +0.000 A 
ATOM     28  O   UNL     1      46.527   3.331  17.040  0.00  0.00    +0.000 OA
ATOM     29  C   UNL     1      47.919   5.028  16.127  0.00  0.00    +0.000 A 
ATOM     30  H   UNL     1      48.029   3.409  18.974  0.00  0.00    +0.000 HD
ENDBRANCH  17  20
ENDBRANCH   1  16
BRANCH   1  32
ATOM     31  C   UNL     1      42.363   5.431  12.015  0.00  0.00    +0.000 C 
ATOM     32  C   UNL     1      43.015   4.729  13.200  0.00  0.00    +0.000 C 
ENDBRANCH   1  32
TORSDOF 7
ENDMDL
MODEL 2
REMARK VINA RESULT:    -8.009      2.307      3.796
REMARK INTER + INTRA:         -12.160
REMARK INTER:                 -10.574
REMARK INTRA:                  -1.586
REMARK UNBOUND:                -0.874
REMARK  Name = 
REMARK  8 active torsions:
REMARK  status: ('A' for Active; 'I' for Inactive)
REMARK    1  A    between atoms: C_1  and  C_2
REMARK    2  A    between atoms: C_2  and  C_3
REMARK    3  A    between atoms: C_3  and  N_4
REMARK    4  A    between atoms: C_3  and  C_17
REMARK    5  A    between atoms: C_5  and  C_7
REMARK    6  A    between atoms: C_20  and  O_21
REMARK    7  A    between atoms: O_21  and  C_22
REMARK    8  A    between atoms: C_22  and  C_23
REMARK                            x       y       z     vdW  Elec       q    Type
REMARK                         _______ _______ _______ _____ _____    ______ ____
ROOT
ATOM      1  C   UNL     1      47.555   7.599  13.551  0.00  0.00    +0.000 C 
ENDROOT
BRANCH   1   2
ATOM      2  C   UNL     1      46.670   6.566  12.879  0.00  0.00    +0.000 A 
ATOM      3  C   UNL     1      45.802   6.937  11.841  0.00  0.00    +0.000 A 
ATOM      4  C   UNL     1      44.980   5.987  11.228  0.00  0.00    +0.000 A 
ATOM      5  C   UNL     1      45.018   4.657  11.650  0.00  0.00    +0.000 A 
ATOM      6  C   UNL     1      45.829   4.296  12.723  0.00  0.00    +0.000 A 
ATOM      7  C   UNL     1      46.648   5.238  13.328  0.00  0.00    +0.000 A 
BRANCH   5   8
ATOM      8  O   UNL     1      44.234   3.780  10.955  0.00  0.00    +0.000 OA
BRANCH   8   9
ATOM      9  C   UNL     1      44.067   4.115   9.572  0.00  0.00    +0.000 C 
BRANCH   9  10
ATOM     10  C   UNL     1      45.147   3.461   8.755  0.00  0.00    +0.000 A 
ATOM     11  C   UNL     1      45.353   2.086   8.856  0.00  0.00    +0.000 A 
ATOM     12  C   UNL     1      46.331   1.499   8.064  0.00  0.00    +0.000 A 
ATOM     13  C   UNL     1      47.065   2.295   7.192  0.00  0.00    +0.000 A 
ATOM     14  C   UNL     1      46.788   3.649   7.144  0.00  0.00    +0.000 A 
ATOM     15  N   UNL     1      45.843   4.247   7.898  0.00  0.00    +0.000 NA
ENDBRANCH   9  10
ENDBRANCH   8   9
ENDBRANCH   5   8
ENDBRANCH   1   2
BRANCH   1  16
ATOM     16  N   UNL     1      48.492   6.879  14.396  0.00  0.00    +0.000 N 
ATOM     17  C   UNL     1      48.855   7.329  15.640  0.00  0.00    +0.000 C 
ATOM     18  O   UNL     1      48.393   8.344  16.147  0.00  0.00    +0.000 OA
ATOM     19  H   UNL     1      48.982   6.096  13.989  0.00  0.00    +0.000 HD
BRANCH  17  20
ATOM     20  C   UNL     1      49.809   6.469  16.334  0.00  0.00    +0.000 A 
ATOM     21  C   UNL     1      51.118   6.834  16.613  0.00  0.00    +0.000 A 
ATOM     22  S   UNL     1      52.032   5.568  17.307  0.00  0.00    +0.000 S 
ATOM     23  C   UNL     1      50.707   4.500  17.245  0.00  0.00    +0.000 A 
ATOM     24  N   UNL     1      50.822   3.205  17.648  0.00  0.00    +0.000 NA
ATOM     25  C   UNL     1      49.737   2.515  17.518  0.00  0.00    +0.000 A 
ATOM     26  N   UNL     1      48.543   3.006  17.051  0.00  0.00    +0.000 N 
ATOM     27  C   UNL     1      48.350   4.336  16.744  0.00  0.00    +0.000 A 
ATOM     28  O   UNL     1      47.224   4.786  16.569  0.00  0.00    +0.000 OA
ATOM     29  C   UNL     1      49.571   5.119  16.760  0.00  0.00    +0.000 A 
ATOM     30  H   UNL     1      47.715   2.434  17.050  0.00  0.00    +0.000 HD
ENDBRANCH  17  20
ENDBRANCH   1  16
BRANCH   1  32
ATOM     31  C   UNL     1      49.435   7.785  11.813  0.00  0.00    +0.000 C 
ATOM     32  C   UNL     1      48.329   8.509  12.572  0.00  0.00    +0.000 C 
ENDBRANCH   1  32
TORSDOF 7
ENDMDL
MODEL 3
REMARK VINA RESULT:    -7.407      2.633      4.358
REMARK INTER + INTRA:         -11.311
REMARK INTER:                  -9.942
REMARK INTRA:                  -1.369
REMARK UNBOUND:                -0.874
REMARK  Name = 
REMARK  8 active torsions:
REMARK  status: ('A' for Active; 'I' for Inactive)
REMARK    1  A    between atoms: C_1  and  C_2
REMARK    2  A    between atoms: C_2  and  C_3
REMARK    3  A    between atoms: C_3  and  N_4
REMARK    4  A    between atoms: C_3  and  C_17
REMARK    5  A    between atoms: C_5  and  C_7
REMARK    6  A    between atoms: C_20  and  O_21
REMARK    7  A    between atoms: O_21  and  C_22
REMARK    8  A    between atoms: C_22  and  C_23
REMARK                            x       y       z     vdW  Elec       q    Type
REMARK                         _______ _______ _______ _____ _____    ______ ____
ROOT
ATOM      1  C   UNL     1      48.150   7.545  13.994  0.00  0.00    +0.000 C 
ENDROOT
BRANCH   1   2
ATOM      2  C   UNL     1      47.111   6.662  13.327  0.00  0.00    +0.000 A 
ATOM      3  C   UNL     1      47.063   5.286  13.599  0.00  0.00    +0.000 A 
ATOM      4  C   UNL     1      46.112   4.473  12.978  0.00  0.00    +0.000 A 
ATOM      5  C   UNL     1      45.201   5.028  12.078  0.00  0.00    +0.000 A 
ATOM      6  C   UNL     1      45.286   6.380  11.755  0.00  0.00    +0.000 A 
ATOM      7  C   UNL     1      46.227   7.188  12.375  0.00  0.00    +0.000 A 
BRANCH   5   8
ATOM      8  O   UNL     1      44.262   4.177  11.566  0.00  0.00    +0.000 OA
BRANCH   8   9
ATOM      9  C   UNL     1      43.909   4.449  10.204  0.00  0.00    +0.000 C 
BRANCH   9  10
ATOM     10  C   UNL     1      44.861   3.743   9.280  0.00  0.00    +0.000 A 
ATOM     11  C   UNL     1      44.979   2.356   9.336  0.00  0.00    +0.000 A 
ATOM     12  C   UNL     1      45.837   1.722   8.446  0.00  0.00    +0.000 A 
ATOM     13  C   UNL     1      46.543   2.487   7.525  0.00  0.00    +0.000 A 
ATOM     14  C   UNL     1      46.359   3.859   7.528  0.00  0.00    +0.000 A 
ATOM     15  N   UNL     1      45.531   4.501   8.376  0.00  0.00    +0.000 NA
ENDBRANCH   9  10
ENDBRANCH   8   9
ENDBRANCH   5   8
ENDBRANCH   1   2
BRANCH   1  16
ATOM     16  N   UNL     1      48.100   7.268  15.419  0.00  0.00    +0.000 N 
ATOM     17  C   UNL     1      48.623   8.126  16.353  0.00  0.00    +0.000 C 
ATOM     18  O   UNL     1      49.134   9.201  16.064  0.00  0.00    +0.000 OA
ATOM     19  H   UNL     1      47.786   6.353  15.707  0.00  0.00    +0.000 HD
BRANCH  17  20
ATOM     20  C   UNL     1      48.478   7.671  17.733  0.00  0.00    +0.000 A 
ATOM     21  C   UNL     1      47.666   8.293  18.670  0.00  0.00    +0.000 A 
ATOM     22  S   UNL     1      47.810   7.617  20.233  0.00  0.00    +0.000 S 
ATOM     23  C   UNL     1      48.963   6.483  19.699  0.00  0.00    +0.000 A 
ATOM     24  N   UNL     1      49.550   5.610  20.562  0.00  0.00    +0.000 NA
ATOM     25  C   UNL     1      50.421   4.829  20.011  0.00  0.00    +0.000 A 
ATOM     26  N   UNL     1      50.736   4.822  18.675  0.00  0.00    +0.000 N 
ATOM     27  C   UNL     1      50.084   5.605  17.748  0.00  0.00    +0.000 A 
ATOM     28  O   UNL     1      50.214   5.402  16.547  0.00  0.00    +0.000 OA
ATOM     29  C   UNL     1      49.188   6.580  18.339  0.00  0.00    +0.000 A 
ATOM     30  H   UNL     1      51.366   4.134  18.298  0.00  0.00    +0.000 HD
ENDBRANCH  17  20
ENDBRANCH   1  16
BRANCH   1  32
ATOM     31  C   UNL     1      49.751   7.657  11.991  0.00  0.00    +0.000 C 
ATOM     32  C   UNL     1      49.590   7.340  13.473  0.00  0.00    +0.000 C 
ENDBRANCH   1  32
TORSDOF 7
ENDMDL
MODEL 4
REMARK VINA RESULT:    -7.405      3.158      4.775
REMARK INTER + INTRA:         -11.309
REMARK INTER:                  -9.918
REMARK INTRA:                  -1.391
REMARK UNBOUND:                -0.874
REMARK  Name = 
REMARK  8 active torsions:
REMARK  status: ('A' for Active; 'I' for Inactive)
REMARK    1  A    between atoms: C_1  and  C_2
REMARK    2  A    between atoms: C_2  and  C_3
REMARK    3  A    between atoms: C_3  and  N_4
REMARK    4  A    between atoms: C_3  and  C_17
REMARK    5  A    between atoms: C_5  and  C_7
REMARK    6  A    between atoms: C_20  and  O_21
REMARK    7  A    between atoms: O_21  and  C_22
REMARK    8  A    between atoms: C_22  and  C_23
REMARK                            x       y       z     vdW  Elec       q    Type
REMARK                         _______ _______ _______ _____ _____    ______ ____
ROOT
ATOM      1  C   UNL     1      47.744   5.048  14.951  0.00  0.00    +0.000 C 
ENDROOT
BRANCH   1   2
ATOM      2  C   UNL     1      46.916   5.093  13.679  0.00  0.00    +0.000 A 
ATOM      3  C   UNL     1      46.984   6.202  12.822  0.00  0.00    +0.000 A 
ATOM      4  C   UNL     1      46.215   6.246  11.656  0.00  0.00    +0.000 A 
ATOM      5  C   UNL     1      45.370   5.182  11.338  0.00  0.00    +0.000 A 
ATOM      6  C   UNL     1      45.249   4.110  12.218  0.00  0.00    +0.000 A 
ATOM      7  C   UNL     1      46.015   4.064  13.373  0.00  0.00    +0.000 A 
BRANCH   5   8
ATOM      8  O   UNL     1      44.703   5.274  10.149  0.00  0.00    +0.000 OA
BRANCH   8   9
ATOM      9  C   UNL     1      44.208   4.021   9.659  0.00  0.00    +0.000 C 
BRANCH   9  10
ATOM     10  C   UNL     1      45.227   3.391   8.750  0.00  0.00    +0.000 A 
ATOM     11  C   UNL     1      45.490   2.026   8.847  0.00  0.00    +0.000 A 
ATOM     12  C   UNL     1      46.407   1.460   7.971  0.00  0.00    +0.000 A 
ATOM     13  C   UNL     1      47.026   2.267   7.024  0.00  0.00    +0.000 A 
ATOM     14  C   UNL     1      46.698   3.610   6.986  0.00  0.00    +0.000 A 
ATOM     15  N   UNL     1      45.810   4.188   7.820  0.00  0.00    +0.000 NA
ENDBRANCH   9  10
ENDBRANCH   8   9
ENDBRANCH   5   8
ENDBRANCH   1   2
BRANCH   1  16
ATOM     16  N   UNL     1      47.928   6.419  15.393  0.00  0.00    +0.000 N 
ATOM     17  C   UNL     1      49.123   6.877  15.888  0.00  0.00    +0.000 C 
ATOM     18  O   UNL     1      50.129   6.182  15.960  0.00  0.00    +0.000 OA
ATOM     19  H   UNL     1      47.108   7.005  15.454  0.00  0.00    +0.000 HD
BRANCH  17  20
ATOM     20  C   UNL     1      49.109   8.283  16.282  0.00  0.00    +0.000 A 
ATOM     21  C   UNL     1      48.871   8.720  17.577  0.00  0.00    +0.000 A 
ATOM     22  S   UNL     1      48.778  10.422  17.702  0.00  0.00    +0.000 S 
ATOM     23  C   UNL     1      49.047  10.617  16.031  0.00  0.00    +0.000 A 
ATOM     24  N   UNL     1      49.042  11.848  15.452  0.00  0.00    +0.000 NA
ATOM     25  C   UNL     1      49.236  11.830  14.175  0.00  0.00    +0.000 A 
ATOM     26  N   UNL     1      49.464  10.700  13.430  0.00  0.00    +0.000 N 
ATOM     27  C   UNL     1      49.595   9.448  13.990  0.00  0.00    +0.000 A 
ATOM     28  O   UNL     1      50.037   8.509  13.340  0.00  0.00    +0.000 OA
ATOM     29  C   UNL     1      49.264   9.406  15.402  0.00  0.00    +0.000 A 
ATOM     30  H   UNL     1      49.687  10.764  12.450  0.00  0.00    +0.000 HD
ENDBRANCH  17  20
ENDBRANCH   1  16
BRANCH   1  32
ATOM     31  C   UNL     1      48.046   3.133  16.633  0.00  0.00    +0.000 C 
ATOM     32  C   UNL     1      47.118   4.213  16.090  0.00  0.00    +0.000 C 
ENDBRANCH   1  32
TORSDOF 7
ENDMDL
MODEL 5
REMARK VINA RESULT:    -7.253      2.829      4.386
REMARK INTER + INTRA:         -11.095
REMARK INTER:                  -9.728
REMARK INTRA:                  -1.367
REMARK UNBOUND:                -0.874
REMARK  Name = 
REMARK  8 active torsions:
REMARK  status: ('A' for Active; 'I' for Inactive)
REMARK    1  A    between atoms: C_1  and  C_2
REMARK    2  A    between atoms: C_2  and  C_3
REMARK    3  A    between atoms: C_3  and  N_4
REMARK    4  A    between atoms: C_3  and  C_17
REMARK    5  A    between atoms: C_5  and  C_7
REMARK    6  A    between atoms: C_20  and  O_21
REMARK    7  A    between atoms: O_21  and  C_22
REMARK    8  A    between atoms: C_22  and  C_23
REMARK                            x       y       z     vdW  Elec       q    Type
REMARK                         _______ _______ _______ _____ _____    ______ ____
ROOT
ATOM      1  C   UNL     1      47.962   4.996  15.560  0.00  0.00    +0.000 C 
ENDROOT
BRANCH   1   2
ATOM      2  C   UNL     1      47.242   5.241  14.246  0.00  0.00    +0.000 A 
ATOM      3  C   UNL     1      46.188   4.407  13.843  0.00  0.00    +0.000 A 
ATOM      4  C   UNL     1      45.532   4.628  12.629  0.00  0.00    +0.000 A 
ATOM      5  C   UNL     1      45.925   5.684  11.807  0.00  0.00    +0.000 A 
ATOM      6  C   UNL     1      47.012   6.475  12.171  0.00  0.00    +0.000 A 
ATOM      7  C   UNL     1      47.661   6.258  13.378  0.00  0.00    +0.000 A 
BRANCH   5   8
ATOM      8  O   UNL     1      45.189   5.872  10.671  0.00  0.00    +0.000 OA
BRANCH   8   9
ATOM      9  C   UNL     1      44.406   4.735  10.288  0.00  0.00    +0.000 C 
BRANCH   9  10
ATOM     10  C   UNL     1      45.166   3.905   9.290  0.00  0.00    +0.000 A 
ATOM     11  C   UNL     1      45.123   2.515   9.371  0.00  0.00    +0.000 A 
ATOM     12  C   UNL     1      45.801   1.770   8.415  0.00  0.00    +0.000 A 
ATOM     13  C   UNL     1      46.493   2.431   7.407  0.00  0.00    +0.000 A 
ATOM     14  C   UNL     1      46.475   3.814   7.392  0.00  0.00    +0.000 A 
ATOM     15  N   UNL     1      45.823   4.564   8.303  0.00  0.00    +0.000 NA
ENDBRANCH   9  10
ENDBRANCH   8   9
ENDBRANCH   5   8
ENDBRANCH   1   2
BRANCH   1  16
ATOM     16  N   UNL     1      47.838   6.207  16.351  0.00  0.00    +0.000 N 
ATOM     17  C   UNL     1      48.926   6.952  16.729  0.00  0.00    +0.000 C 
ATOM     18  O   UNL     1      50.073   6.678  16.400  0.00  0.00    +0.000 OA
ATOM     19  H   UNL     1      46.930   6.423  16.738  0.00  0.00    +0.000 HD
BRANCH  17  20
ATOM     20  C   UNL     1      48.598   8.133  17.523  0.00  0.00    +0.000 A 
ATOM     21  C   UNL     1      48.787   9.435  17.085  0.00  0.00    +0.000 A 
ATOM     22  S   UNL     1      48.441  10.602  18.286  0.00  0.00    +0.000 S 
ATOM     23  C   UNL     1      48.038   9.397  19.421  0.00  0.00    +0.000 A 
ATOM     24  N   UNL     1      47.691   9.715  20.697  0.00  0.00    +0.000 NA
ATOM     25  C   UNL     1      47.437   8.692  21.445  0.00  0.00    +0.000 A 
ATOM     26  N   UNL     1      47.468   7.385  21.026  0.00  0.00    +0.000 N 
ATOM     27  C   UNL     1      47.698   7.024  19.716  0.00  0.00    +0.000 A 
ATOM     28  O   UNL     1      47.480   5.883  19.328  0.00  0.00    +0.000 OA
ATOM     29  C   UNL     1      48.107   8.131  18.872  0.00  0.00    +0.000 A 
ATOM     30  H   UNL     1      47.181   6.640  21.639  0.00  0.00    +0.000 HD
ENDBRANCH  17  20
ENDBRANCH   1  16
BRANCH   1  32
ATOM     31  C   UNL     1      48.426   2.646  16.482  0.00  0.00    +0.000 C 
ATOM     32  C   UNL     1      47.427   3.790  16.364  0.00  0.00    +0.000 C 
ENDBRANCH   1  32
TORSDOF 7
ENDMDL
MODEL 6
REMARK VINA RESULT:    -7.052      3.283      5.319
REMARK INTER + INTRA:         -10.811
REMARK INTER:                  -9.488
REMARK INTRA:                  -1.323
REMARK UNBOUND:                -0.874
REMARK  Name = 
REMARK  8 active torsions:
REMARK  status: ('A' for Active; 'I' for Inactive)
REMARK    1  A    between atoms: C_1  and  C_2
REMARK    2  A    between atoms: C_2  and  C_3
REMARK    3  A    between atoms: C_3  and  N_4
REMARK    4  A    between atoms: C_3  and  C_17
REMARK    5  A    between atoms: C_5  and  C_7
REMARK    6  A    between atoms: C_20  and  O_21
REMARK    7  A    between atoms: O_21  and  C_22
REMARK    8  A    between atoms: C_22  and  C_23
REMARK                            x       y       z     vdW  Elec       q    Type
REMARK                         _______ _______ _______ _____ _____    ______ ____
ROOT
ATOM      1  C   UNL     1      48.118   4.982  16.293  0.00  0.00    +0.000 C 
ENDROOT
BRANCH   1   2
ATOM      2  C   UNL     1      47.574   5.366  14.929  0.00  0.00    +0.000 A 
ATOM      3  C   UNL     1      46.581   4.589  14.312  0.00  0.00    +0.000 A 
ATOM      4  C   UNL     1      46.087   4.939  13.052  0.00  0.00    +0.000 A 
ATOM      5  C   UNL     1      46.582   6.067  12.398  0.00  0.00    +0.000 A 
ATOM      6  C   UNL     1      47.612   6.804  12.976  0.00  0.00    +0.000 A 
ATOM      7  C   UNL     1      48.100   6.460  14.229  0.00  0.00    +0.000 A 
BRANCH   5   8
ATOM      8  O   UNL     1      45.999   6.377  11.201  0.00  0.00    +0.000 OA
BRANCH   8   9
ATOM      9  C   UNL     1      44.841   5.589  10.895  0.00  0.00    +0.000 C 
BRANCH   9  10
ATOM     10  C   UNL     1      45.178   4.581   9.832  0.00  0.00    +0.000 A 
ATOM     11  C   UNL     1      44.736   3.266   9.960  0.00  0.00    +0.000 A 
ATOM     12  C   UNL     1      45.027   2.362   8.947  0.00  0.00    +0.000 A 
ATOM     13  C   UNL     1      45.741   2.796   7.837  0.00  0.00    +0.000 A 
ATOM     14  C   UNL     1      46.132   4.122   7.782  0.00  0.00    +0.000 A 
ATOM     15  N   UNL     1      45.861   5.024   8.747  0.00  0.00    +0.000 NA
ENDBRANCH   9  10
ENDBRANCH   8   9
ENDBRANCH   5   8
ENDBRANCH   1   2
BRANCH   1  16
ATOM     16  N   UNL     1      47.844   6.088  17.192  0.00  0.00    +0.000 N 
ATOM     17  C   UNL     1      48.699   6.438  18.208  0.00  0.00    +0.000 C 
ATOM     18  O   UNL     1      49.767   5.875  18.409  0.00  0.00    +0.000 OA
ATOM     19  H   UNL     1      46.933   6.519  17.140  0.00  0.00    +0.000 HD
BRANCH  17  20
ATOM     20  C   UNL     1      48.247   7.575  19.006  0.00  0.00    +0.000 A 
ATOM     21  C   UNL     1      47.825   7.475  20.323  0.00  0.00    +0.000 A 
ATOM     22  S   UNL     1      47.224   8.949  20.946  0.00  0.00    +0.000 S 
ATOM     23  C   UNL     1      47.507   9.754  19.473  0.00  0.00    +0.000 A 
ATOM     24  N   UNL     1      47.166  11.059  19.302  0.00  0.00    +0.000 NA
ATOM     25  C   UNL     1      47.421  11.522  18.123  0.00  0.00    +0.000 A 
ATOM     26  N   UNL     1      48.012  10.808  17.110  0.00  0.00    +0.000 N 
ATOM     27  C   UNL     1      48.481   9.523  17.274  0.00  0.00    +0.000 A 
ATOM     28  O   UNL     1      49.214   9.007  16.440  0.00  0.00    +0.000 OA
ATOM     29  C   UNL     1      48.106   8.926  18.542  0.00  0.00    +0.000 A 
ATOM     30  H   UNL     1      48.256  11.253  16.240  0.00  0.00    +0.000 HD
ENDBRANCH  17  20
ENDBRANCH   1  16
BRANCH   1  32
ATOM     31  C   UNL     1      48.581   2.673  17.314  0.00  0.00    +0.000 C 
ATOM     32  C   UNL     1      47.524   3.678  16.872  0.00  0.00    +0.000 C 
ENDBRANCH   1  32
TORSDOF 7
ENDMDL
MODEL 7
REMARK VINA RESULT:    -7.051      2.074      3.135
REMARK INTER + INTRA:         -10.810
REMARK INTER:                 -10.075
REMARK INTRA:                  -0.735
REMARK UNBOUND:                -0.874
REMARK  Name = 
REMARK  8 active torsions:
REMARK  status: ('A' for Active; 'I' for Inactive)
REMARK    1  A    between atoms: C_1  and  C_2
REMARK    2  A    between atoms: C_2  and  C_3
REMARK    3  A    between atoms: C_3  and  N_4
REMARK    4  A    between atoms: C_3  and  C_17
REMARK    5  A    between atoms: C_5  and  C_7
REMARK    6  A    between atoms: C_20  and  O_21
REMARK    7  A    between atoms: O_21  and  C_22
REMARK    8  A    between atoms: C_22  and  C_23
REMARK                            x       y       z     vdW  Elec       q    Type
REMARK                         _______ _______ _______ _____ _____    ______ ____
ROOT
ATOM      1  C   UNL     1      44.049   4.059  11.489  0.00  0.00    +0.000 C 
ENDROOT
BRANCH   1   2
ATOM      2  C   UNL     1      44.745   3.707  10.186  0.00  0.00    +0.000 A 
ATOM      3  C   UNL     1      45.197   4.717   9.323  0.00  0.00    +0.000 A 
ATOM      4  C   UNL     1      45.829   4.392   8.120  0.00  0.00    +0.000 A 
ATOM      5  C   UNL     1      46.014   3.054   7.769  0.00  0.00    +0.000 A 
ATOM      6  C   UNL     1      45.510   2.049   8.590  0.00  0.00    +0.000 A 
ATOM      7  C   UNL     1      44.886   2.371   9.787  0.00  0.00    +0.000 A 
BRANCH   5   8
ATOM      8  O   UNL     1      46.700   2.822   6.610  0.00  0.00    +0.000 OA
BRANCH   8   9
ATOM      9  C   UNL     1      47.427   1.587   6.599  0.00  0.00    +0.000 C 
BRANCH   9  10
ATOM     10  C   UNL     1      47.059   0.790   5.379  0.00  0.00    +0.000 A 
ATOM     11  C   UNL     1      46.796   1.445   4.178  0.00  0.00    +0.000 A 
ATOM     12  C   UNL     1      46.495   0.685   3.055  0.00  0.00    +0.000 A 
ATOM     13  C   UNL     1      46.474  -0.700   3.161  0.00  0.00    +0.000 A 
ATOM     14  C   UNL     1      46.760  -1.272   4.388  0.00  0.00    +0.000 A 
ATOM     15  N   UNL     1      47.059  -0.562   5.494  0.00  0.00    +0.000 NA
ENDBRANCH   9  10
ENDBRANCH   8   9
ENDBRANCH   5   8
ENDBRANCH   1   2
BRANCH   1  16
ATOM     16  N   UNL     1      45.023   4.733  12.329  0.00  0.00    +0.000 N 
ATOM     17  C   UNL     1      45.962   4.048  13.059  0.00  0.00    +0.000 C 
ATOM     18  O   UNL     1      46.076   2.829  13.030  0.00  0.00    +0.000 OA
ATOM     19  H   UNL     1      44.910   5.726  12.472  0.00  0.00    +0.000 HD
BRANCH  17  20
ATOM     20  C   UNL     1      46.850   4.902  13.843  0.00  0.00    +0.000 A 
ATOM     21  C   UNL     1      47.294   4.590  15.119  0.00  0.00    +0.000 A 
ATOM     22  S   UNL     1      48.206   5.845  15.836  0.00  0.00    +0.000 S 
ATOM     23  C   UNL     1      48.025   6.838  14.465  0.00  0.00    +0.000 A 
ATOM     24  N   UNL     1      48.532   8.100  14.432  0.00  0.00    +0.000 NA
ATOM     25  C   UNL     1      48.293   8.737  13.333  0.00  0.00    +0.000 A 
ATOM     26  N   UNL     1      47.619   8.218  12.255  0.00  0.00    +0.000 N 
ATOM     27  C   UNL     1      47.192   6.909  12.199  0.00  0.00    +0.000 A 
ATOM     28  O   UNL     1      46.818   6.412  11.143  0.00  0.00    +0.000 OA
ATOM     29  C   UNL     1      47.332   6.198  13.455  0.00  0.00    +0.000 A 
ATOM     30  H   UNL     1      47.536   8.740  11.399  0.00  0.00    +0.000 HD
ENDBRANCH  17  20
ENDBRANCH   1  16
BRANCH   1  32
ATOM     31  C   UNL     1      43.074   6.433  11.541  0.00  0.00    +0.000 C 
ATOM     32  C   UNL     1      42.798   4.950  11.322  0.00  0.00    +0.000 C 
ENDBRANCH   1  32
TORSDOF 7
ENDMDL
MODEL 8
REMARK VINA RESULT:    -7.007      2.943      4.447
REMARK INTER + INTRA:         -10.748
REMARK INTER:                  -9.445
REMARK INTRA:                  -1.303
REMARK UNBOUND:                -0.874
REMARK  Name = 
REMARK  8 active torsions:
REMARK  status: ('A' for Active; 'I' for Inactive)
REMARK    1  A    between atoms: C_1  and  C_2
REMARK    2  A    between atoms: C_2  and  C_3
REMARK    3  A    between atoms: C_3  and  N_4
REMARK    4  A    between atoms: C_3  and  C_17
REMARK    5  A    between atoms: C_5  and  C_7
REMARK    6  A    between atoms: C_20  and  O_21
REMARK    7  A    between atoms: O_21  and  C_22
REMARK    8  A    between atoms: C_22  and  C_23
REMARK                            x       y       z     vdW  Elec       q    Type
REMARK                         _______ _______ _______ _____ _____    ______ ____
ROOT
ATOM      1  C   UNL     1      47.553   7.993  13.385  0.00  0.00    +0.000 C 
ENDROOT
BRANCH   1   2
ATOM      2  C   UNL     1      46.537   7.092  12.708  0.00  0.00    +0.000 A 
ATOM      3  C   UNL     1      45.601   7.622  11.808  0.00  0.00    +0.000 A 
ATOM      4  C   UNL     1      44.659   6.793  11.192  0.00  0.00    +0.000 A 
ATOM      5  C   UNL     1      44.645   5.427  11.472  0.00  0.00    +0.000 A 
ATOM      6  C   UNL     1      45.529   4.906  12.415  0.00  0.00    +0.000 A 
ATOM      7  C   UNL     1      46.466   5.728  13.023  0.00  0.00    +0.000 A 
BRANCH   5   8
ATOM      8  O   UNL     1      43.738   4.676  10.779  0.00  0.00    +0.000 OA
BRANCH   8   9
ATOM      9  C   UNL     1      44.079   3.287  10.684  0.00  0.00    +0.000 C 
BRANCH   9  10
ATOM     10  C   UNL     1      44.913   3.050   9.455  0.00  0.00    +0.000 A 
ATOM     11  C   UNL     1      45.205   4.113   8.602  0.00  0.00    +0.000 A 
ATOM     12  C   UNL     1      46.008   3.877   7.494  0.00  0.00    +0.000 A 
ATOM     13  C   UNL     1      46.501   2.596   7.275  0.00  0.00    +0.000 A 
ATOM     14  C   UNL     1      46.173   1.600   8.178  0.00  0.00    +0.000 A 
ATOM     15  N   UNL     1      45.400   1.799   9.264  0.00  0.00    +0.000 NA
ENDBRANCH   9  10
ENDBRANCH   8   9
ENDBRANCH   5   8
ENDBRANCH   1   2
BRANCH   1  16
ATOM     16  N   UNL     1      48.355   7.156  14.260  0.00  0.00    +0.000 N 
ATOM     17  C   UNL     1      48.663   7.521  15.547  0.00  0.00    +0.000 C 
ATOM     18  O   UNL     1      48.257   8.553  16.066  0.00  0.00    +0.000 OA
ATOM     19  H   UNL     1      48.803   6.348  13.853  0.00  0.00    +0.000 HD
BRANCH  17  20
ATOM     20  C   UNL     1      49.481   6.548  16.266  0.00  0.00    +0.000 A 
ATOM     21  C   UNL     1      48.962   5.564  17.094  0.00  0.00    +0.000 A 
ATOM     22  S   UNL     1      50.170   4.667  17.905  0.00  0.00    +0.000 S 
ATOM     23  C   UNL     1      51.414   5.575  17.178  0.00  0.00    +0.000 A 
ATOM     24  N   UNL     1      52.721   5.354  17.480  0.00  0.00    +0.000 NA
ATOM     25  C   UNL     1      53.545   6.138  16.865  0.00  0.00    +0.000 A 
ATOM     26  N   UNL     1      53.183   7.101  15.956  0.00  0.00    +0.000 N 
ATOM     27  C   UNL     1      51.884   7.279  15.532  0.00  0.00    +0.000 A 
ATOM     28  O   UNL     1      51.629   7.968  14.552  0.00  0.00    +0.000 OA
ATOM     29  C   UNL     1      50.916   6.505  16.284  0.00  0.00    +0.000 A 
ATOM     30  H   UNL     1      53.881   7.623  15.453  0.00  0.00    +0.000 HD
ENDBRANCH  17  20
ENDBRANCH   1  16
BRANCH   1  32
ATOM     31  C   UNL     1      49.372   7.854  11.580  0.00  0.00    +0.000 C 
ATOM     32  C   UNL     1      48.473   8.761  12.410  0.00  0.00    +0.000 C 
ENDBRANCH   1  32
TORSDOF 7
ENDMDL
MODEL 9
REMARK VINA RESULT:    -6.527      2.915      5.245
REMARK INTER + INTRA:         -10.072
REMARK INTER:                  -8.517
REMARK INTRA:                  -1.555
REMARK UNBOUND:                -0.874
REMARK  Name = 
REMARK  8 active torsions:
REMARK  status: ('A' for Active; 'I' for Inactive)
REMARK    1  A    between atoms: C_1  and  C_2
REMARK    2  A    between atoms: C_2  and  C_3
REMARK    3  A    between atoms: C_3  and  N_4
REMARK    4  A    between atoms: C_3  and  C_17
REMARK    5  A    between atoms: C_5  and  C_7
REMARK    6  A    between atoms: C_20  and  O_21
REMARK    7  A    between atoms: O_21  and  C_22
REMARK    8  A    between atoms: C_22  and  C_23
REMARK                            x       y       z     vdW  Elec       q    Type
REMARK                         _______ _______ _______ _____ _____    ______ ____
ROOT
ATOM      1  C   UNL     1      49.247   8.340  15.015  0.00  0.00    +0.000 C 
ENDROOT
BRANCH   1   2
ATOM      2  C   UNL     1      48.139   7.696  14.200  0.00  0.00    +0.000 A 
ATOM      3  C   UNL     1      47.108   8.477  13.656  0.00  0.00    +0.000 A 
ATOM      4  C   UNL     1      46.084   7.882  12.914  0.00  0.00    +0.000 A 
ATOM      5  C   UNL     1      46.081   6.501  12.712  0.00  0.00    +0.000 A 
ATOM      6  C   UNL     1      47.065   5.715  13.305  0.00  0.00    +0.000 A 
ATOM      7  C   UNL     1      48.085   6.306  14.037  0.00  0.00    +0.000 A 
BRANCH   5   8
ATOM      8  O   UNL     1      45.082   6.008  11.920  0.00  0.00    +0.000 OA
BRANCH   8   9
ATOM      9  C   UNL     1      45.335   6.134  10.515  0.00  0.00    +0.000 C 
BRANCH   9  10
ATOM     10  C   UNL     1      45.196   4.793   9.850  0.00  0.00    +0.000 A 
ATOM     11  C   UNL     1      44.634   3.728  10.551  0.00  0.00    +0.000 A 
ATOM     12  C   UNL     1      44.481   2.510   9.903  0.00  0.00    +0.000 A 
ATOM     13  C   UNL     1      44.884   2.392   8.578  0.00  0.00    +0.000 A 
ATOM     14  C   UNL     1      45.422   3.501   7.951  0.00  0.00    +0.000 A 
ATOM     15  N   UNL     1      45.579   4.698   8.552  0.00  0.00    +0.000 NA
ENDBRANCH   9  10
ENDBRANCH   8   9
ENDBRANCH   5   8
ENDBRANCH   1   2
BRANCH   1  16
ATOM     16  N   UNL     1      50.023   7.267  15.610  0.00  0.00    +0.000 N 
ATOM     17  C   UNL     1      50.320   7.231  16.949  0.00  0.00    +0.000 C 
ATOM     18  O   UNL     1      49.925   8.072  17.746  0.00  0.00    +0.000 OA
ATOM     19  H   UNL     1      50.461   6.605  14.986  0.00  0.00    +0.000 HD
BRANCH  17  20
ATOM     20  C   UNL     1      51.112   6.073  17.356  0.00  0.00    +0.000 A 
ATOM     21  C   UNL     1      52.450   6.141  17.716  0.00  0.00    +0.000 A 
ATOM     22  S   UNL     1      53.143   4.606  18.006  0.00  0.00    +0.000 S 
ATOM     23  C   UNL     1      51.678   3.814  17.652  0.00  0.00    +0.000 A 
ATOM     24  N   UNL     1      51.586   2.457  17.663  0.00  0.00    +0.000 NA
ATOM     25  C   UNL     1      50.416   2.004  17.350  0.00  0.00    +0.000 A 
ATOM     26  N   UNL     1      49.325   2.784  17.057  0.00  0.00    +0.000 N 
ATOM     27  C   UNL     1      49.341   4.159  17.148  0.00  0.00    +0.000 A 
ATOM     28  O   UNL     1      48.301   4.805  17.121  0.00  0.00    +0.000 OA
ATOM     29  C   UNL     1      50.662   4.710  17.377  0.00  0.00    +0.000 A 
ATOM     30  H   UNL     1      48.422   2.368  16.899  0.00  0.00    +0.000 HD
ENDBRANCH  17  20
ENDBRANCH   1  16
BRANCH   1  32
ATOM     31  C   UNL     1      51.118   8.520  13.267  0.00  0.00    +0.000 C 
ATOM     32  C   UNL     1      50.177   9.269  14.203  0.00  0.00    +0.000 C 
ENDBRANCH   1  32
TORSDOF 7
ENDMDL
