MODEL 1
REMARK VINA RESULT:    -8.633      0.000      0.000
REMARK INTER + INTRA:         -13.004
REMARK INTER:                 -12.166
REMARK INTRA:                  -0.838
REMARK UNBOUND:                -0.838
REMARK  Name = 
REMARK  7 active torsions:
REMARK  status: ('A' for Active; 'I' for Inactive)
REMARK    1  A    between atoms: C_2  and  C_4
REMARK    2  A    between atoms: C_7  and  O_8
REMARK    3  A    between atoms: O_8  and  C_9
REMARK    4  A    between atoms: C_9  and  C_10
REMARK    5  A    between atoms: C_10  and  C_11
REMARK    6  A    between atoms: C_15  and  O_16
REMARK    7  A    between atoms: O_16  and  C_17
REMARK                            x       y       z     vdW  Elec       q    Type
REMARK                         _______ _______ _______ _____ _____    ______ ____
ROOT
ATOM      1  C   UNL     1      43.447   5.022  12.404  0.00  0.00    +0.000 C 
ENDROOT
BRANCH   1   2
ATOM      2  C   UNL     1      44.857   5.425  12.763  0.00  0.00    +0.000 A 
ATOM      3  C   UNL     1      45.382   6.642  12.312  0.00  0.00    +0.000 A 
ATOM      4  C   UNL     1      46.677   7.026  12.668  0.00  0.00    +0.000 A 
ATOM      5  C   UNL     1      47.466   6.197  13.470  0.00  0.00    +0.000 A 
ATOM      6  C   UNL     1      46.964   4.971  13.900  0.00  0.00    +0.000 A 
ATOM      7  C   UNL     1      45.666   4.588  13.546  0.00  0.00    +0.000 A 
BRANCH   6   8
ATOM      8  O   UNL     1      47.632   4.107  14.732  0.00  0.00    +0.000 OA
BRANCH   8   9
ATOM      9  C   UNL     1      47.346   4.153  16.154  0.00  0.00    +0.000 C 
ATOM     10  C   UNL     1      48.318   5.001  16.982  0.00  0.00    +0.000 C 
ATOM     11  O   UNL     1      48.562   3.930  17.914  0.00  0.00    +0.000 OA
ATOM     12  C   UNL     1      47.828   3.011  17.070  0.00  0.00    +0.000 C 
ATOM     13  F   UNL     1      46.863   2.357  17.752  0.00  0.00    +0.000 F 
ATOM     14  F   UNL     1      48.630   2.076  16.518  0.00  0.00    +0.000 F 
ENDBRANCH   8   9
ENDBRANCH   6   8
ENDBRANCH   1   2
BRANCH   1  15
ATOM     15  C   UNL     1      43.413   3.988  11.282  0.00  0.00    +0.000 C 
BRANCH  15  16
ATOM     16  O   UNL     1      43.680   4.632  10.028  0.00  0.00    +0.000 OA
BRANCH  16  20
ATOM     17  C   UNL     1      46.355   2.450   7.772  0.00  0.00    +0.000 A 
ATOM     18  C   UNL     1      45.576   1.803   8.735  0.00  0.00    +0.000 A 
ATOM     19  C   UNL     1      44.672   2.547   9.498  0.00  0.00    +0.000 A 
ATOM     20  C   UNL     1      44.578   3.913   9.264  0.00  0.00    +0.000 A 
ATOM     21  N   UNL     1      45.322   4.561   8.342  0.00  0.00    +0.000 NA
ATOM     22  C   UNL     1      46.198   3.821   7.625  0.00  0.00    +0.000 A 
BRANCH  17  24
ATOM     23  N   UNL     1      48.443   2.483   6.536  0.00  0.00    +0.000 N 
ATOM     24  C   UNL     1      47.343   1.768   6.917  0.00  0.00    +0.000 C 
ATOM     25  O   UNL     1      47.208   0.595   6.596  0.00  0.00    +0.000 OA
ATOM     26  H   UNL     1      49.165   1.959   6.054  0.00  0.00    +0.000 HD
ATOM     27  H   UNL     1      48.714   3.345   6.985  0.00  0.00    +0.000 HD
ENDBRANCH  17  24
ENDBRANCH  16  20
ENDBRANCH  15  16
ENDBRANCH   1  15
TORSDOF 7
ENDMDL
MODEL 2
REMARK VINA RESULT:    -7.259      3.201      4.055
REMARK INTER + INTRA:         -11.067
REMARK INTER:                 -10.296
REMARK INTRA:                  -0.771
REMARK UNBOUND:                -0.838
REMARK  Name = 
REMARK  7 active torsions:
REMARK  status: ('A' for Active; 'I' for Inactive)
REMARK    1  A    between atoms: C_2  and  C_4
REMARK    2  A    between atoms: C_7  and  O_8
REMARK    3  A    between atoms: O_8  and  C_9
REMARK    4  A    between atoms: C_9  and  C_10
REMARK    5  A    between atoms: C_10  and  C_11
REMARK    6  A    between atoms: C_15  and  O_16
REMARK    7  A    between atoms: O_16  and  C_17
REMARK                            x       y       z     vdW  Elec       q    Type
REMARK                         _______ _______ _______ _____ _____    ______ ____
ROOT
ATOM      1  C   UNL     1      45.335   5.767  10.992  0.00  0.00    +0.000 C 
ENDROOT
BRANCH   1   2
ATOM      2  C   UNL     1      46.181   5.769  12.243  0.00  0.00    +0.000 A 
ATOM      3  C   UNL     1      46.106   4.706  13.151  0.00  0.00    +0.000 A 
ATOM      4  C   UNL     1      46.909   4.696  14.293  0.00  0.00    +0.000 A 
ATOM      5  C   UNL     1      47.791   5.751  14.548  0.00  0.00    +0.000 A 
ATOM      6  C   UNL     1      47.853   6.827  13.666  0.00  0.00    +0.000 A 
ATOM      7  C   UNL     1      47.051   6.835  12.520  0.00  0.00    +0.000 A 
BRANCH   6   8
ATOM      8  O   UNL     1      48.719   7.885  13.791  0.00  0.00    +0.000 OA
BRANCH   8   9
ATOM      9  C   UNL     1      50.036   7.779  13.190  0.00  0.00    +0.000 C 
ATOM     10  C   UNL     1      51.008   8.904  13.561  0.00  0.00    +0.000 C 
ATOM     11  O   UNL     1      51.317   9.181  12.181  0.00  0.00    +0.000 OA
ATOM     12  C   UNL     1      50.264   8.285  11.753  0.00  0.00    +0.000 C 
ATOM     13  F   UNL     1      50.711   7.365  10.869  0.00  0.00    +0.000 F 
ATOM     14  F   UNL     1      49.244   8.943  11.162  0.00  0.00    +0.000 F 
ENDBRANCH   8   9
ENDBRANCH   6   8
ENDBRANCH   1   2
BRANCH   1  15
ATOM     15  C   UNL     1      44.248   4.697  11.036  0.00  0.00    +0.000 C 
BRANCH  15  16
ATOM     16  O   UNL     1      43.771   4.444   9.706  0.00  0.00    +0.000 OA
BRANCH  16  20
ATOM     17  C   UNL     1      46.548   2.367   7.474  0.00  0.00    +0.000 A 
ATOM     18  C   UNL     1      45.804   1.695   8.448  0.00  0.00    +0.000 A 
ATOM     19  C   UNL     1      44.866   2.404   9.202  0.00  0.00    +0.000 A 
ATOM     20  C   UNL     1      44.702   3.760   8.950  0.00  0.00    +0.000 A 
ATOM     21  N   UNL     1      45.412   4.431   8.016  0.00  0.00    +0.000 NA
ATOM     22  C   UNL     1      46.322   3.726   7.308  0.00  0.00    +0.000 A 
BRANCH  17  24
ATOM     23  N   UNL     1      48.706   2.432   6.365  0.00  0.00    +0.000 N 
ATOM     24  C   UNL     1      47.567   1.723   6.626  0.00  0.00    +0.000 C 
ATOM     25  O   UNL     1      47.422   0.582   6.208  0.00  0.00    +0.000 OA
ATOM     26  H   UNL     1      49.441   1.925   5.886  0.00  0.00    +0.000 HD
ATOM     27  H   UNL     1      48.971   3.249   6.895  0.00  0.00    +0.000 HD
ENDBRANCH  17  24
ENDBRANCH  16  20
ENDBRANCH  15  16
ENDBRANCH   1  15
TORSDOF 7
ENDMDL
MODEL 3
REMARK VINA RESULT:    -7.254      2.178      2.562
REMARK INTER + INTRA:         -11.060
REMARK INTER:                 -10.301
REMARK INTRA:                  -0.759
REMARK UNBOUND:                -0.838
REMARK  Name = 
REMARK  7 active torsions:
REMARK  status: ('A' for Active; 'I' for Inactive)
REMARK    1  A    between atoms: C_2  and  C_4
REMARK    2  A    between atoms: C_7  and  O_8
REMARK    3  A    between atoms: O_8  and  C_9
REMARK    4  A    between atoms: C_9  and  C_10
REMARK    5  A    between atoms: C_10  and  C_11
REMARK    6  A    between atoms: C_15  and  O_16
REMARK    7  A    between atoms: O_16  and  C_17
REMARK                            x       y       z     vdW  Elec       q    Type
REMARK                         _______ _______ _______ _____ _____    ______ ____
ROOT
ATOM      1  C   UNL     1      44.693   4.138  12.000  0.00  0.00    +0.000 C 
ENDROOT
BRANCH   1   2
ATOM      2  C   UNL     1      45.558   5.334  12.321  0.00  0.00    +0.000 A 
ATOM      3  C   UNL     1      45.215   6.605  11.845  0.00  0.00    +0.000 A 
ATOM      4  C   UNL     1      46.000   7.714  12.165  0.00  0.00    +0.000 A 
ATOM      5  C   UNL     1      47.143   7.567  12.957  0.00  0.00    +0.000 A 
ATOM      6  C   UNL     1      47.509   6.303  13.413  0.00  0.00    +0.000 A 
ATOM      7  C   UNL     1      46.720   5.193  13.094  0.00  0.00    +0.000 A 
BRANCH   6   8
ATOM      8  O   UNL     1      48.578   6.054  14.238  0.00  0.00    +0.000 OA
BRANCH   8   9
ATOM      9  C   UNL     1      49.096   7.142  15.048  0.00  0.00    +0.000 C 
ATOM     10  C   UNL     1      50.478   7.657  14.630  0.00  0.00    +0.000 C 
ATOM     11  O   UNL     1      51.005   7.522  15.965  0.00  0.00    +0.000 OA
ATOM     12  C   UNL     1      49.802   6.833  16.383  0.00  0.00    +0.000 C 
ATOM     13  F   UNL     1      49.253   7.395  17.482  0.00  0.00    +0.000 F 
ATOM     14  F   UNL     1      50.033   5.535  16.672  0.00  0.00    +0.000 F 
ENDBRANCH   8   9
ENDBRANCH   6   8
ENDBRANCH   1   2
BRANCH   1  15
ATOM     15  C   UNL     1      43.883   4.342  10.723  0.00  0.00    +0.000 C 
BRANCH  15  16
ATOM     16  O   UNL     1      43.686   3.077  10.074  0.00  0.00    +0.000 OA
BRANCH  16  20
ATOM     17  C   UNL     1      46.641   2.337   7.294  0.00  0.00    +0.000 A 
ATOM     18  C   UNL     1      46.047   3.601   7.350  0.00  0.00    +0.000 A 
ATOM     19  C   UNL     1      45.045   3.846   8.292  0.00  0.00    +0.000 A 
ATOM     20  C   UNL     1      44.678   2.816   9.150  0.00  0.00    +0.000 A 
ATOM     21  N   UNL     1      45.236   1.586   9.113  0.00  0.00    +0.000 NA
ATOM     22  C   UNL     1      46.194   1.371   8.184  0.00  0.00    +0.000 A 
BRANCH  17  24
ATOM     23  N   UNL     1      48.849   2.703   6.355  0.00  0.00    +0.000 N 
ATOM     24  C   UNL     1      47.700   1.964   6.339  0.00  0.00    +0.000 C 
ATOM     25  O   UNL     1      47.575   1.004   5.591  0.00  0.00    +0.000 OA
ATOM     26  H   UNL     1      49.607   2.354   5.780  0.00  0.00    +0.000 HD
ATOM     27  H   UNL     1      49.088   3.319   7.118  0.00  0.00    +0.000 HD
ENDBRANCH  17  24
ENDBRANCH  16  20
ENDBRANCH  15  16
ENDBRANCH   1  15
TORSDOF 7
ENDMDL
MODEL 4
REMARK VINA RESULT:    -7.031      3.758      7.536
REMARK INTER + INTRA:         -10.747
REMARK INTER:                  -9.609
REMARK INTRA:                  -1.138
REMARK UNBOUND:                -0.838
REMARK  Name = 
REMARK  7 active torsions:
REMARK  status: ('A' for Active; 'I' for Inactive)
REMARK    1  A    between atoms: C_2  and  C_4
REMARK    2  A    between atoms: C_7  and  O_8
REMARK    3  A    between atoms: O_8  and  C_9
REMARK    4  A    between atoms: C_9  and  C_10
REMARK    5  A    between atoms: C_10  and  C_11
REMARK    6  A    between atoms: C_15  and  O_16
REMARK    7  A    between atoms: O_16  and  C_17
REMARK                            x       y       z     vdW  Elec       q    Type
REMARK                         _______ _______ _______ _____ _____    ______ ____
ROOT
ATOM      1  C   UNL     1      48.900   8.137  12.131  0.00  0.00    +0.000 C 
ENDROOT
BRANCH   1   2
ATOM      2  C   UNL     1      47.411   7.907  12.020  0.00  0.00    +0.000 A 
ATOM      3  C   UNL     1      46.509   8.850  12.525  0.00  0.00    +0.000 A 
ATOM      4  C   UNL     1      45.133   8.649  12.397  0.00  0.00    +0.000 A 
ATOM      5  C   UNL     1      44.641   7.499  11.772  0.00  0.00    +0.000 A 
ATOM      6  C   UNL     1      45.530   6.541  11.291  0.00  0.00    +0.000 A 
ATOM      7  C   UNL     1      46.908   6.744  11.417  0.00  0.00    +0.000 A 
BRANCH   6   8
ATOM      8  O   UNL     1      45.157   5.404  10.616  0.00  0.00    +0.000 OA
BRANCH   8   9
ATOM      9  C   UNL     1      44.761   4.239  11.387  0.00  0.00    +0.000 C 
ATOM     10  C   UNL     1      44.428   2.997  10.554  0.00  0.00    +0.000 C 
ATOM     11  O   UNL     1      43.152   2.823  11.202  0.00  0.00    +0.000 OA
ATOM     12  C   UNL     1      43.304   4.100  11.868  0.00  0.00    +0.000 C 
ATOM     13  F   UNL     1      43.133   3.997  13.204  0.00  0.00    +0.000 F 
ATOM     14  F   UNL     1      42.417   5.015  11.422  0.00  0.00    +0.000 F 
ENDBRANCH   8   9
ENDBRANCH   6   8
ENDBRANCH   1   2
BRANCH   1  15
ATOM     15  C   UNL     1      49.538   7.265  13.208  0.00  0.00    +0.000 C 
BRANCH  15  16
ATOM     16  O   UNL     1      49.136   7.733  14.504  0.00  0.00    +0.000 OA
BRANCH  16  20
ATOM     17  C   UNL     1      47.978   4.648  16.983  0.00  0.00    +0.000 A 
ATOM     18  C   UNL     1      48.712   5.715  17.507  0.00  0.00    +0.000 A 
ATOM     19  C   UNL     1      49.103   6.757  16.662  0.00  0.00    +0.000 A 
ATOM     20  C   UNL     1      48.739   6.694  15.323  0.00  0.00    +0.000 A 
ATOM     21  N   UNL     1      48.033   5.672  14.793  0.00  0.00    +0.000 NA
ATOM     22  C   UNL     1      47.677   4.670  15.629  0.00  0.00    +0.000 A 
BRANCH  17  24
ATOM     23  N   UNL     1      48.228   3.183  18.902  0.00  0.00    +0.000 N 
ATOM     24  C   UNL     1      47.518   3.493  17.777  0.00  0.00    +0.000 C 
ATOM     25  O   UNL     1      46.515   2.865  17.468  0.00  0.00    +0.000 OA
ATOM     26  H   UNL     1      47.824   2.468  19.496  0.00  0.00    +0.000 HD
ATOM     27  H   UNL     1      48.886   3.822  19.323  0.00  0.00    +0.000 HD
ENDBRANCH  17  24
ENDBRANCH  16  20
ENDBRANCH  15  16
ENDBRANCH   1  15
TORSDOF 7
ENDMDL
MODEL 5
REMARK VINA RESULT:    -6.917      4.470      8.499
REMARK INTER + INTRA:         -10.586
REMARK INTER:                  -9.839
REMARK INTRA:                  -0.747
REMARK UNBOUND:                -0.838
REMARK  Name = 
REMARK  7 active torsions:
REMARK  status: ('A' for Active; 'I' for Inactive)
REMARK    1  A    between atoms: C_2  and  C_4
REMARK    2  A    between atoms: C_7  and  O_8
REMARK    3  A    between atoms: O_8  and  C_9
REMARK    4  A    between atoms: C_9  and  C_10
REMARK    5  A    between atoms: C_10  and  C_11
REMARK    6  A    between atoms: C_15  and  O_16
REMARK    7  A    between atoms: O_16  and  C_17
REMARK                            x       y       z     vdW  Elec       q    Type
REMARK                         _______ _______ _______ _____ _____    ______ ____
ROOT
ATOM      1  C   UNL     1      45.297   6.647  11.034  0.00  0.00    +0.000 C 
ENDROOT
BRANCH   1   2
ATOM      2  C   UNL     1      45.177   5.306  10.351  0.00  0.00    +0.000 A 
ATOM      3  C   UNL     1      44.418   4.281  10.929  0.00  0.00    +0.000 A 
ATOM      4  C   UNL     1      44.286   3.051  10.281  0.00  0.00    +0.000 A 
ATOM      5  C   UNL     1      44.916   2.825   9.054  0.00  0.00    +0.000 A 
ATOM      6  C   UNL     1      45.696   3.828   8.484  0.00  0.00    +0.000 A 
ATOM      7  C   UNL     1      45.826   5.061   9.131  0.00  0.00    +0.000 A 
BRANCH   6   8
ATOM      8  O   UNL     1      46.314   3.732   7.261  0.00  0.00    +0.000 OA
BRANCH   8   9
ATOM      9  C   UNL     1      46.484   2.416   6.673  0.00  0.00    +0.000 C 
ATOM     10  C   UNL     1      47.756   1.676   7.102  0.00  0.00    +0.000 C 
ATOM     11  O   UNL     1      48.145   1.419   5.738  0.00  0.00    +0.000 OA
ATOM     12  C   UNL     1      47.085   2.281   5.260  0.00  0.00    +0.000 C 
ATOM     13  F   UNL     1      46.304   1.664   4.345  0.00  0.00    +0.000 F 
ATOM     14  F   UNL     1      47.563   3.404   4.684  0.00  0.00    +0.000 F 
ENDBRANCH   8   9
ENDBRANCH   6   8
ENDBRANCH   1   2
BRANCH   1  15
ATOM     15  C   UNL     1      45.716   6.511  12.495  0.00  0.00    +0.000 C 
BRANCH  15  16
ATOM     16  O   UNL     1      47.036   5.954  12.565  0.00  0.00    +0.000 OA
BRANCH  16  20
ATOM     17  C   UNL     1      47.963   4.740  16.396  0.00  0.00    +0.000 A 
ATOM     18  C   UNL     1      47.045   4.004  15.642  0.00  0.00    +0.000 A 
ATOM     19  C   UNL     1      46.734   4.420  14.346  0.00  0.00    +0.000 A 
ATOM     20  C   UNL     1      47.358   5.557  13.848  0.00  0.00    +0.000 A 
ATOM     21  N   UNL     1      48.245   6.287  14.559  0.00  0.00    +0.000 NA
ATOM     22  C   UNL     1      48.521   5.870  15.816  0.00  0.00    +0.000 A 
BRANCH  17  24
ATOM     23  N   UNL     1      47.831   3.264  18.318  0.00  0.00    +0.000 N 
ATOM     24  C   UNL     1      48.361   4.399  17.774  0.00  0.00    +0.000 C 
ATOM     25  O   UNL     1      49.169   5.080  18.392  0.00  0.00    +0.000 OA
ATOM     26  H   UNL     1      48.212   2.984  19.215  0.00  0.00    +0.000 HD
ATOM     27  H   UNL     1      47.380   2.553  17.761  0.00  0.00    +0.000 HD
ENDBRANCH  17  24
ENDBRANCH  16  20
ENDBRANCH  15  16
ENDBRANCH   1  15
TORSDOF 7
ENDMDL
MODEL 6
REMARK VINA RESULT:    -6.889      4.411      8.643
REMARK INTER + INTRA:         -10.547
REMARK INTER:                 -10.054
REMARK INTRA:                  -0.493
REMARK UNBOUND:                -0.838
REMARK  Name = 
REMARK  7 active torsions:
REMARK  status: ('A' for Active; 'I' for Inactive)
REMARK    1  A    between atoms: C_2  and  C_4
REMARK    2  A    between atoms: C_7  and  O_8
REMARK    3  A    between atoms: O_8  and  C_9
REMARK    4  A    between atoms: C_9  and  C_10
REMARK    5  A    between atoms: C_10  and  C_11
REMARK    6  A    between atoms: C_15  and  O_16
REMARK    7  A    between atoms: O_16  and  C_17
REMARK                            x       y       z     vdW  Elec       q    Type
REMARK                         _______ _______ _______ _____ _____    ______ ____
ROOT
ATOM      1  C   UNL     1      46.077   5.708  13.545  0.00  0.00    +0.000 C 
ENDROOT
BRANCH   1   2
ATOM      2  C   UNL     1      45.171   5.334  12.397  0.00  0.00    +0.000 A 
ATOM      3  C   UNL     1      43.794   5.179  12.602  0.00  0.00    +0.000 A 
ATOM      4  C   UNL     1      42.954   4.860  11.533  0.00  0.00    +0.000 A 
ATOM      5  C   UNL     1      43.477   4.684  10.249  0.00  0.00    +0.000 A 
ATOM      6  C   UNL     1      44.849   4.809  10.039  0.00  0.00    +0.000 A 
ATOM      7  C   UNL     1      45.690   5.131  11.109  0.00  0.00    +0.000 A 
BRANCH   6   8
ATOM      8  O   UNL     1      45.459   4.709   8.813  0.00  0.00    +0.000 OA
BRANCH   8   9
ATOM      9  C   UNL     1      45.274   3.492   8.044  0.00  0.00    +0.000 C 
ATOM     10  C   UNL     1      45.492   2.193   8.827  0.00  0.00    +0.000 C 
ATOM     11  O   UNL     1      46.416   1.680   7.847  0.00  0.00    +0.000 OA
ATOM     12  C   UNL     1      46.424   2.958   7.168  0.00  0.00    +0.000 C 
ATOM     13  F   UNL     1      46.150   2.832   5.850  0.00  0.00    +0.000 F 
ATOM     14  F   UNL     1      47.617   3.581   7.269  0.00  0.00    +0.000 F 
ENDBRANCH   8   9
ENDBRANCH   6   8
ENDBRANCH   1   2
BRANCH   1  15
ATOM     15  C   UNL     1      47.108   4.623  13.840  0.00  0.00    +0.000 C 
BRANCH  15  16
ATOM     16  O   UNL     1      46.720   3.900  15.017  0.00  0.00    +0.000 OA
BRANCH  16  20
ATOM     17  C   UNL     1      49.152   4.727  18.244  0.00  0.00    +0.000 A 
ATOM     18  C   UNL     1      48.184   3.723  18.348  0.00  0.00    +0.000 A 
ATOM     19  C   UNL     1      47.362   3.448  17.252  0.00  0.00    +0.000 A 
ATOM     20  C   UNL     1      47.542   4.186  16.089  0.00  0.00    +0.000 A 
ATOM     21  N   UNL     1      48.468   5.162  15.966  0.00  0.00    +0.000 NA
ATOM     22  C   UNL     1      49.243   5.417  17.044  0.00  0.00    +0.000 A 
BRANCH  17  24
ATOM     23  N   UNL     1      50.969   4.169  19.752  0.00  0.00    +0.000 N 
ATOM     24  C   UNL     1      50.067   5.106  19.335  0.00  0.00    +0.000 C 
ATOM     25  O   UNL     1      50.052   6.230  19.818  0.00  0.00    +0.000 OA
ATOM     26  H   UNL     1      51.666   4.491  20.414  0.00  0.00    +0.000 HD
ATOM     27  H   UNL     1      51.184   3.343  19.213  0.00  0.00    +0.000 HD
ENDBRANCH  17  24
ENDBRANCH  16  20
ENDBRANCH  15  16
ENDBRANCH   1  15
TORSDOF 7
ENDMDL
MODEL 7
REMARK VINA RESULT:    -6.775      4.699      6.212
REMARK INTER + INTRA:         -10.385
REMARK INTER:                  -9.982
REMARK INTRA:                  -0.403
REMARK UNBOUND:                -0.838
REMARK  Name = 
REMARK  7 active torsions:
REMARK  status: ('A' for Active; 'I' for Inactive)
REMARK    1  A    between atoms: C_2  and  C_4
REMARK    2  A    between atoms: C_7  and  O_8
REMARK    3  A    between atoms: O_8  and  C_9
REMARK    4  A    between atoms: C_9  and  C_10
REMARK    5  A    between atoms: C_10  and  C_11
REMARK    6  A    between atoms: C_15  and  O_16
REMARK    7  A    between atoms: O_16  and  C_17
REMARK                            x       y       z     vdW  Elec       q    Type
REMARK                         _______ _______ _______ _____ _____    ______ ____
ROOT
ATOM      1  C   UNL     1      45.694   4.766  11.296  0.00  0.00    +0.000 C 
ENDROOT
BRANCH   1   2
ATOM      2  C   UNL     1      45.797   6.223  11.682  0.00  0.00    +0.000 A 
ATOM      3  C   UNL     1      46.926   6.699  12.358  0.00  0.00    +0.000 A 
ATOM      4  C   UNL     1      47.032   8.051  12.689  0.00  0.00    +0.000 A 
ATOM      5  C   UNL     1      46.008   8.943  12.357  0.00  0.00    +0.000 A 
ATOM      6  C   UNL     1      44.867   8.475  11.709  0.00  0.00    +0.000 A 
ATOM      7  C   UNL     1      44.763   7.121  11.375  0.00  0.00    +0.000 A 
BRANCH   6   8
ATOM      8  O   UNL     1      43.829   9.271  11.291  0.00  0.00    +0.000 OA
BRANCH   8   9
ATOM      9  C   UNL     1      44.083  10.253  10.253  0.00  0.00    +0.000 C 
ATOM     10  C   UNL     1      44.179  11.702  10.743  0.00  0.00    +0.000 C 
ATOM     11  O   UNL     1      43.211  12.161   9.779  0.00  0.00    +0.000 OA
ATOM     12  C   UNL     1      42.913  10.794   9.408  0.00  0.00    +0.000 C 
ATOM     13  F   UNL     1      43.011  10.598   8.075  0.00  0.00    +0.000 F 
ATOM     14  F   UNL     1      41.667  10.427   9.775  0.00  0.00    +0.000 F 
ENDBRANCH   8   9
ENDBRANCH   6   8
ENDBRANCH   1   2
BRANCH   1  15
ATOM     15  C   UNL     1      44.271   4.234  11.435  0.00  0.00    +0.000 C 
BRANCH  15  16
ATOM     16  O   UNL     1      43.719   3.996  10.132  0.00  0.00    +0.000 OA
BRANCH  16  20
ATOM     17  C   UNL     1      46.507   2.415   7.537  0.00  0.00    +0.000 A 
ATOM     18  C   UNL     1      46.171   3.768   7.447  0.00  0.00    +0.000 A 
ATOM     19  C   UNL     1      45.225   4.298   8.328  0.00  0.00    +0.000 A 
ATOM     20  C   UNL     1      44.653   3.454   9.271  0.00  0.00    +0.000 A 
ATOM     21  N   UNL     1      44.960   2.143   9.375  0.00  0.00    +0.000 NA
ATOM     22  C   UNL     1      45.869   1.650   8.504  0.00  0.00    +0.000 A 
BRANCH  17  24
ATOM     23  N   UNL     1      48.641   2.419   6.380  0.00  0.00    +0.000 N 
ATOM     24  C   UNL     1      47.485   1.747   6.658  0.00  0.00    +0.000 C 
ATOM     25  O   UNL     1      47.290   0.617   6.230  0.00  0.00    +0.000 OA
ATOM     26  H   UNL     1      49.348   1.894   5.879  0.00  0.00    +0.000 HD
ATOM     27  H   UNL     1      48.946   3.220   6.915  0.00  0.00    +0.000 HD
ENDBRANCH  17  24
ENDBRANCH  16  20
ENDBRANCH  15  16
ENDBRANCH   1  15
TORSDOF 7
ENDMDL
MODEL 8
REMARK VINA RESULT:    -6.680      2.806      4.667
REMARK INTER + INTRA:         -10.252
REMARK INTER:                  -8.987
REMARK INTRA:                  -1.265
REMARK UNBOUND:                -0.838
REMARK  Name = 
REMARK  7 active torsions:
REMARK  status: ('A' for Active; 'I' for Inactive)
REMARK    1  A    between atoms: C_2  and  C_4
REMARK    2  A    between atoms: C_7  and  O_8
REMARK    3  A    between atoms: O_8  and  C_9
REMARK    4  A    between atoms: C_9  and  C_10
REMARK    5  A    between atoms: C_10  and  C_11
REMARK    6  A    between atoms: C_15  and  O_16
REMARK    7  A    between atoms: O_16  and  C_17
REMARK                            x       y       z     vdW  Elec       q    Type
REMARK                         _______ _______ _______ _____ _____    ______ ____
ROOT
ATOM      1  C   UNL     1      49.052   8.461  13.592  0.00  0.00    +0.000 C 
ENDROOT
BRANCH   1   2
ATOM      2  C   UNL     1      49.866   7.745  14.643  0.00  0.00    +0.000 A 
ATOM      3  C   UNL     1      51.219   8.058  14.826  0.00  0.00    +0.000 A 
ATOM      4  C   UNL     1      51.963   7.415  15.817  0.00  0.00    +0.000 A 
ATOM      5  C   UNL     1      51.370   6.446  16.631  0.00  0.00    +0.000 A 
ATOM      6  C   UNL     1      50.033   6.107  16.439  0.00  0.00    +0.000 A 
ATOM      7  C   UNL     1      49.287   6.753  15.448  0.00  0.00    +0.000 A 
BRANCH   6   8
ATOM      8  O   UNL     1      49.340   5.210  17.214  0.00  0.00    +0.000 OA
BRANCH   8   9
ATOM      9  C   UNL     1      48.071   4.705  16.721  0.00  0.00    +0.000 C 
ATOM     10  C   UNL     1      47.033   4.398  17.807  0.00  0.00    +0.000 C 
ATOM     11  O   UNL     1      46.807   3.065  17.305  0.00  0.00    +0.000 OA
ATOM     12  C   UNL     1      47.920   3.208  16.390  0.00  0.00    +0.000 C 
ATOM     13  F   UNL     1      47.569   2.919  15.118  0.00  0.00    +0.000 F 
ATOM     14  F   UNL     1      48.950   2.398  16.713  0.00  0.00    +0.000 F 
ENDBRANCH   8   9
ENDBRANCH   6   8
ENDBRANCH   1   2
BRANCH   1  15
ATOM     15  C   UNL     1      47.651   7.872  13.451  0.00  0.00    +0.000 C 
BRANCH  15  16
ATOM     16  O   UNL     1      47.391   7.579  12.071  0.00  0.00    +0.000 OA
BRANCH  16  20
ATOM     17  C   UNL     1      44.985   4.253  11.676  0.00  0.00    +0.000 A 
ATOM     18  C   UNL     1      45.763   4.409  12.826  0.00  0.00    +0.000 A 
ATOM     19  C   UNL     1      46.577   5.537  12.954  0.00  0.00    +0.000 A 
ATOM     20  C   UNL     1      46.579   6.472  11.926  0.00  0.00    +0.000 A 
ATOM     21  N   UNL     1      45.838   6.340  10.804  0.00  0.00    +0.000 NA
ATOM     22  C   UNL     1      45.068   5.234  10.698  0.00  0.00    +0.000 A 
BRANCH  17  24
ATOM     23  N   UNL     1      43.716   2.360  12.512  0.00  0.00    +0.000 N 
ATOM     24  C   UNL     1      44.097   3.102  11.430  0.00  0.00    +0.000 C 
ATOM     25  O   UNL     1      43.678   2.847  10.309  0.00  0.00    +0.000 OA
ATOM     26  H   UNL     1      43.011   1.654  12.338  0.00  0.00    +0.000 HD
ATOM     27  H   UNL     1      43.824   2.689  13.461  0.00  0.00    +0.000 HD
ENDBRANCH  17  24
ENDBRANCH  16  20
ENDBRANCH  15  16
ENDBRANCH   1  15
TORSDOF 7
ENDMDL
MODEL 9
REMARK VINA RESULT:    -6.674      2.978      3.428
REMARK INTER + INTRA:         -10.244
REMARK INTER:                  -9.516
REMARK INTRA:                  -0.728
REMARK UNBOUND:                -0.838
REMARK  Name = 
REMARK  7 active torsions:
REMARK  status: ('A' for Active; 'I' for Inactive)
REMARK    1  A    between atoms: C_2  and  C_4
REMARK    2  A    between atoms: C_7  and  O_8
REMARK    3  A    between atoms: O_8  and  C_9
REMARK    4  A    between atoms: C_9  and  C_10
REMARK    5  A    between atoms: C_10  and  C_11
REMARK    6  A    between atoms: C_15  and  O_16
REMARK    7  A    between atoms: O_16  and  C_17
REMARK                            x       y       z     vdW  Elec       q    Type
REMARK                         _______ _______ _______ _____ _____    ______ ____
ROOT
ATOM      1  C   UNL     1      45.028   3.576  12.249  0.00  0.00    +0.000 C 
ENDROOT
BRANCH   1   2
ATOM      2  C   UNL     1      45.323   5.056  12.281  0.00  0.00    +0.000 A 
ATOM      3  C   UNL     1      44.370   5.958  12.772  0.00  0.00    +0.000 A 
ATOM      4  C   UNL     1      44.655   7.324  12.826  0.00  0.00    +0.000 A 
ATOM      5  C   UNL     1      45.889   7.808  12.384  0.00  0.00    +0.000 A 
ATOM      6  C   UNL     1      46.833   6.924  11.868  0.00  0.00    +0.000 A 
ATOM      7  C   UNL     1      46.549   5.555  11.816  0.00  0.00    +0.000 A 
BRANCH   6   8
ATOM      8  O   UNL     1      48.093   7.284  11.456  0.00  0.00    +0.000 OA
BRANCH   8   9
ATOM      9  C   UNL     1      48.834   8.244  12.254  0.00  0.00    +0.000 C 
ATOM     10  C   UNL     1      50.334   8.318  11.947  0.00  0.00    +0.000 C 
ATOM     11  O   UNL     1      50.693   8.147  13.332  0.00  0.00    +0.000 OA
ATOM     12  C   UNL     1      49.314   7.858  13.666  0.00  0.00    +0.000 C 
ATOM     13  F   UNL     1      48.863   8.636  14.674  0.00  0.00    +0.000 F 
ATOM     14  F   UNL     1      49.141   6.574  14.046  0.00  0.00    +0.000 F 
ENDBRANCH   8   9
ENDBRANCH   6   8
ENDBRANCH   1   2
BRANCH   1  15
ATOM     15  C   UNL     1      43.781   3.256  11.430  0.00  0.00    +0.000 C 
BRANCH  15  16
ATOM     16  O   UNL     1      43.770   4.057  10.239  0.00  0.00    +0.000 OA
BRANCH  16  20
ATOM     17  C   UNL     1      46.552   2.709   7.509  0.00  0.00    +0.000 A 
ATOM     18  C   UNL     1      45.877   1.790   8.318  0.00  0.00    +0.000 A 
ATOM     19  C   UNL     1      44.937   2.253   9.242  0.00  0.00    +0.000 A 
ATOM     20  C   UNL     1      44.702   3.620   9.319  0.00  0.00    +0.000 A 
ATOM     21  N   UNL     1      45.344   4.527   8.551  0.00  0.00    +0.000 NA
ATOM     22  C   UNL     1      46.258   4.056   7.672  0.00  0.00    +0.000 A 
BRANCH  17  24
ATOM     23  N   UNL     1      47.455   2.892   5.263  0.00  0.00    +0.000 N 
ATOM     24  C   UNL     1      47.566   2.337   6.506  0.00  0.00    +0.000 C 
ATOM     25  O   UNL     1      48.499   1.596   6.787  0.00  0.00    +0.000 OA
ATOM     26  H   UNL     1      48.228   2.720   4.632  0.00  0.00    +0.000 HD
ATOM     27  H   UNL     1      46.868   3.692   5.076  0.00  0.00    +0.000 HD
ENDBRANCH  17  24
ENDBRANCH  16  20
ENDBRANCH  15  16
ENDBRANCH   1  15
TORSDOF 7
ENDMDL
