MODEL 1
REMARK VINA RESULT:    -8.573      0.000      0.000
REMARK INTER + INTRA:         -12.799
REMARK INTER:                 -11.830
REMARK INTRA:                  -0.969
REMARK UNBOUND:                -0.969
REMARK  Name = 
REMARK  8 active torsions:
REMARK  status: ('A' for Active; 'I' for Inactive)
REMARK    1  A    between atoms: C_1  and  C_2
REMARK    2  A    between atoms: C_2  and  O_3
REMARK    3  A    between atoms: C_2  and  C_4
REMARK    4  A    between atoms: C_2  and  C_15
REMARK    5  A    between atoms: C_4  and  O_5
REMARK    6  A    between atoms: O_5  and  C_6
REMARK    7  A    between atoms: C_9  and  C_10
REMARK    8  A    between atoms: C_19  and  C_20
REMARK                            x       y       z     vdW  Elec       q    Type
REMARK                         _______ _______ _______ _____ _____    ______ ____
ROOT
ATOM      1  C   UNL     1      42.620   5.373  11.790  0.00  0.00    +0.000 C 
ATOM      2  C   UNL     1      43.718   4.396  12.232  0.00  0.00    +0.000 C 
ENDROOT
BRANCH   2   3
ATOM      3  C   UNL     1      45.065   5.107  12.399  0.00  0.00    +0.000 A 
ATOM      4  C   UNL     1      45.563   5.960  11.403  0.00  0.00    +0.000 A 
ATOM      5  C   UNL     1      46.777   6.623  11.569  0.00  0.00    +0.000 A 
ATOM      6  C   UNL     1      47.515   6.455  12.741  0.00  0.00    +0.000 A 
ATOM      7  C   UNL     1      47.055   5.633  13.782  0.00  0.00    +0.000 A 
ATOM      8  C   UNL     1      45.832   4.957  13.578  0.00  0.00    +0.000 A 
BRANCH   7   9
ATOM      9  C   UNL     1      47.813   5.514  15.055  0.00  0.00    +0.000 A 
ATOM     10  C   UNL     1      48.767   6.474  15.445  0.00  0.00    +0.000 A 
ATOM     11  C   UNL     1      49.493   6.344  16.636  0.00  0.00    +0.000 A 
ATOM     12  C   UNL     1      49.269   5.259  17.477  0.00  0.00    +0.000 A 
ATOM     13  C   UNL     1      48.325   4.303  17.118  0.00  0.00    +0.000 A 
ATOM     14 CL   UNL     1      48.030   2.963  18.157  0.00  0.00    +0.000 Cl
ATOM     15  C   UNL     1      47.614   4.421  15.921  0.00  0.00    +0.000 A 
ENDBRANCH   7   9
ENDBRANCH   2   3
BRANCH   2  16
ATOM     16  O   UNL     1      43.290   3.864  13.499  0.00  0.00    +0.000 OA
ATOM     17  H   UNL     1      43.574   4.505  14.175  0.00  0.00    +0.000 HD
ENDBRANCH   2  16
BRANCH   2  18
ATOM     18  C   UNL     1      43.847   3.210  11.241  0.00  0.00    +0.000 C 
BRANCH  18  19
ATOM     19  O   UNL     1      43.645   3.676   9.890  0.00  0.00    +0.000 OA
BRANCH  19  20
ATOM     20  C   UNL     1      44.643   3.256   9.034  0.00  0.00    +0.000 A 
ATOM     21  C   UNL     1      45.123   1.953   9.168  0.00  0.00    +0.000 A 
ATOM     22  N   UNL     1      46.084   1.429   8.361  0.00  0.00    +0.000 NA
ATOM     23  C   UNL     1      46.549   2.287   7.408  0.00  0.00    +0.000 A 
ATOM     24  C   UNL     1      46.076   3.584   7.276  0.00  0.00    +0.000 A 
ATOM     25  N   UNL     1      45.112   4.095   8.086  0.00  0.00    +0.000 NA
BRANCH  23  26
ATOM     26  C   UNL     1      47.594   1.795   6.466  0.00  0.00    +0.000 C 
ATOM     27  N   UNL     1      48.739   2.534   6.393  0.00  0.00    +0.000 N 
ATOM     28  O   UNL     1      47.438   0.781   5.796  0.00  0.00    +0.000 OA
ATOM     29  H   UNL     1      48.851   3.368   6.960  0.00  0.00    +0.000 HD
ATOM     30  H   UNL     1      49.481   2.237   5.777  0.00  0.00    +0.000 HD
ENDBRANCH  23  26
ENDBRANCH  19  20
ENDBRANCH  18  19
ENDBRANCH   2  18
TORSDOF 7
ENDMDL
MODEL 2
REMARK VINA RESULT:    -8.475      2.944      4.141
REMARK INTER + INTRA:         -12.664
REMARK INTER:                 -11.619
REMARK INTRA:                  -1.045
REMARK UNBOUND:                -0.969
REMARK  Name = 
REMARK  8 active torsions:
REMARK  status: ('A' for Active; 'I' for Inactive)
REMARK    1  A    between atoms: C_1  and  C_2
REMARK    2  A    between atoms: C_2  and  O_3
REMARK    3  A    between atoms: C_2  and  C_4
REMARK    4  A    between atoms: C_2  and  C_15
REMARK    5  A    between atoms: C_4  and  O_5
REMARK    6  A    between atoms: O_5  and  C_6
REMARK    7  A    between atoms: C_9  and  C_10
REMARK    8  A    between atoms: C_19  and  C_20
REMARK                            x       y       z     vdW  Elec       q    Type
REMARK                         _______ _______ _______ _____ _____    ______ ____
ROOT
ATOM      1  C   UNL     1      42.540   5.325  12.007  0.00  0.00    +0.000 C 
ATOM      2  C   UNL     1      43.703   4.397  12.386  0.00  0.00    +0.000 C 
ENDROOT
BRANCH   2   3
ATOM      3  C   UNL     1      44.972   5.194  12.705  0.00  0.00    +0.000 A 
ATOM      4  C   UNL     1      46.094   4.573  13.275  0.00  0.00    +0.000 A 
ATOM      5  C   UNL     1      47.254   5.296  13.543  0.00  0.00    +0.000 A 
ATOM      6  C   UNL     1      47.322   6.655  13.235  0.00  0.00    +0.000 A 
ATOM      7  C   UNL     1      46.240   7.324  12.642  0.00  0.00    +0.000 A 
ATOM      8  C   UNL     1      45.069   6.572  12.402  0.00  0.00    +0.000 A 
BRANCH   7   9
ATOM      9  C   UNL     1      46.345   8.756  12.255  0.00  0.00    +0.000 A 
ATOM     10  C   UNL     1      47.590   9.401  12.126  0.00  0.00    +0.000 A 
ATOM     11  C   UNL     1      47.680  10.756  11.781  0.00  0.00    +0.000 A 
ATOM     12  C   UNL     1      46.526  11.495  11.538  0.00  0.00    +0.000 A 
ATOM     13  C   UNL     1      45.286  10.876  11.649  0.00  0.00    +0.000 A 
ATOM     14 CL   UNL     1      43.853  11.776  11.338  0.00  0.00    +0.000 Cl
ATOM     15  C   UNL     1      45.194   9.530  12.012  0.00  0.00    +0.000 A 
ENDBRANCH   7   9
ENDBRANCH   2   3
BRANCH   2  16
ATOM     16  O   UNL     1      43.273   3.679  13.557  0.00  0.00    +0.000 OA
ATOM     17  H   UNL     1      43.363   2.732  13.345  0.00  0.00    +0.000 HD
ENDBRANCH   2  16
BRANCH   2  18
ATOM     18  C   UNL     1      43.978   3.357  11.269  0.00  0.00    +0.000 C 
BRANCH  18  19
ATOM     19  O   UNL     1      43.887   3.991   9.976  0.00  0.00    +0.000 OA
BRANCH  19  20
ATOM     20  C   UNL     1      44.836   3.520   9.091  0.00  0.00    +0.000 A 
ATOM     21  C   UNL     1      45.177   2.169   9.145  0.00  0.00    +0.000 A 
ATOM     22  N   UNL     1      46.078   1.595   8.303  0.00  0.00    +0.000 NA
ATOM     23  C   UNL     1      46.631   2.454   7.399  0.00  0.00    +0.000 A 
ATOM     24  C   UNL     1      46.296   3.799   7.347  0.00  0.00    +0.000 A 
ATOM     25  N   UNL     1      45.391   4.359   8.190  0.00  0.00    +0.000 NA
BRANCH  23  26
ATOM     26  C   UNL     1      47.618   1.912   6.424  0.00  0.00    +0.000 C 
ATOM     27  N   UNL     1      48.812   2.570   6.344  0.00  0.00    +0.000 N 
ATOM     28  O   UNL     1      47.377   0.928   5.735  0.00  0.00    +0.000 OA
ATOM     29  H   UNL     1      48.995   3.379   6.927  0.00  0.00    +0.000 HD
ATOM     30  H   UNL     1      49.518   2.235   5.704  0.00  0.00    +0.000 HD
ENDBRANCH  23  26
ENDBRANCH  19  20
ENDBRANCH  18  19
ENDBRANCH   2  18
TORSDOF 7
ENDMDL
MODEL 3
REMARK VINA RESULT:    -8.466      2.573      3.617
REMARK INTER + INTRA:         -12.652
REMARK INTER:                 -11.543
REMARK INTRA:                  -1.109
REMARK UNBOUND:                -0.969
REMARK  Name = 
REMARK  8 active torsions:
REMARK  status: ('A' for Active; 'I' for Inactive)
REMARK    1  A    between atoms: C_1  and  C_2
REMARK    2  A    between atoms: C_2  and  O_3
REMARK    3  A    between atoms: C_2  and  C_4
REMARK    4  A    between atoms: C_2  and  C_15
REMARK    5  A    between atoms: C_4  and  O_5
REMARK    6  A    between atoms: O_5  and  C_6
REMARK    7  A    between atoms: C_9  and  C_10
REMARK    8  A    between atoms: C_19  and  C_20
REMARK                            x       y       z     vdW  Elec       q    Type
REMARK                         _______ _______ _______ _____ _____    ______ ____
ROOT
ATOM      1  C   UNL     1      43.267   6.788  11.358  0.00  0.00    +0.000 C 
ATOM      2  C   UNL     1      43.674   5.531  12.140  0.00  0.00    +0.000 C 
ENDROOT
BRANCH   2   3
ATOM      3  C   UNL     1      45.102   5.647  12.682  0.00  0.00    +0.000 A 
ATOM      4  C   UNL     1      45.621   4.692  13.568  0.00  0.00    +0.000 A 
ATOM      5  C   UNL     1      46.928   4.788  14.041  0.00  0.00    +0.000 A 
ATOM      6  C   UNL     1      47.749   5.838  13.628  0.00  0.00    +0.000 A 
ATOM      7  C   UNL     1      47.292   6.810  12.724  0.00  0.00    +0.000 A 
ATOM      8  C   UNL     1      45.956   6.700  12.278  0.00  0.00    +0.000 A 
BRANCH   7   9
ATOM      9  C   UNL     1      48.194   7.886  12.236  0.00  0.00    +0.000 A 
ATOM     10  C   UNL     1      47.758   9.219  12.106  0.00  0.00    +0.000 A 
ATOM     11  C   UNL     1      48.608  10.224  11.626  0.00  0.00    +0.000 A 
ATOM     12  C   UNL     1      49.922   9.924  11.282  0.00  0.00    +0.000 A 
ATOM     13  C   UNL     1      50.378   8.617  11.411  0.00  0.00    +0.000 A 
ATOM     14 CL   UNL     1      52.006   8.237  11.001  0.00  0.00    +0.000 Cl
ATOM     15  C   UNL     1      49.526   7.610  11.872  0.00  0.00    +0.000 A 
ENDBRANCH   7   9
ENDBRANCH   2   3
BRANCH   2  16
ATOM     16  O   UNL     1      42.746   5.426  13.236  0.00  0.00    +0.000 OA
ATOM     17  H   UNL     1      42.525   6.339  13.495  0.00  0.00    +0.000 HD
ENDBRANCH   2  16
BRANCH   2  18
ATOM     18  C   UNL     1      43.523   4.256  11.270  0.00  0.00    +0.000 C 
BRANCH  18  19
ATOM     19  O   UNL     1      43.544   4.612   9.871  0.00  0.00    +0.000 OA
BRANCH  19  20
ATOM     20  C   UNL     1      44.527   3.940   9.173  0.00  0.00    +0.000 A 
ATOM     21  C   UNL     1      44.655   2.565   9.367  0.00  0.00    +0.000 A 
ATOM     22  N   UNL     1      45.570   1.803   8.711  0.00  0.00    +0.000 NA
ATOM     23  C   UNL     1      46.364   2.497   7.846  0.00  0.00    +0.000 A 
ATOM     24  C   UNL     1      46.241   3.865   7.654  0.00  0.00    +0.000 A 
ATOM     25  N   UNL     1      45.320   4.615   8.313  0.00  0.00    +0.000 NA
BRANCH  23  26
ATOM     26  C   UNL     1      47.388   1.743   7.069  0.00  0.00    +0.000 C 
ATOM     27  N   UNL     1      48.419   2.476   6.556  0.00  0.00    +0.000 N 
ATOM     28  O   UNL     1      47.313   0.532   6.902  0.00  0.00    +0.000 OA
ATOM     29  H   UNL     1      48.466   3.477   6.711  0.00  0.00    +0.000 HD
ATOM     30  H   UNL     1      49.144   2.009   6.030  0.00  0.00    +0.000 HD
ENDBRANCH  23  26
ENDBRANCH  19  20
ENDBRANCH  18  19
ENDBRANCH   2  18
TORSDOF 7
ENDMDL
MODEL 4
REMARK VINA RESULT:    -7.712      2.077      2.637
REMARK INTER + INTRA:         -11.611
REMARK INTER:                 -11.020
REMARK INTRA:                  -0.591
REMARK UNBOUND:                -0.969
REMARK  Name = 
REMARK  8 active torsions:
REMARK  status: ('A' for Active; 'I' for Inactive)
REMARK    1  A    between atoms: C_1  and  C_2
REMARK    2  A    between atoms: C_2  and  O_3
REMARK    3  A    between atoms: C_2  and  C_4
REMARK    4  A    between atoms: C_2  and  C_15
REMARK    5  A    between atoms: C_4  and  O_5
REMARK    6  A    between atoms: O_5  and  C_6
REMARK    7  A    between atoms: C_9  and  C_10
REMARK    8  A    between atoms: C_19  and  C_20
REMARK                            x       y       z     vdW  Elec       q    Type
REMARK                         _______ _______ _______ _____ _____    ______ ____
ROOT
ATOM      1  C   UNL     1      43.241   3.900  13.417  0.00  0.00    +0.000 C 
ATOM      2  C   UNL     1      44.255   3.955  12.265  0.00  0.00    +0.000 C 
ENDROOT
BRANCH   2   3
ATOM      3  C   UNL     1      44.778   5.378  12.048  0.00  0.00    +0.000 A 
ATOM      4  C   UNL     1      43.920   6.413  11.649  0.00  0.00    +0.000 A 
ATOM      5  C   UNL     1      44.394   7.711  11.475  0.00  0.00    +0.000 A 
ATOM      6  C   UNL     1      45.739   8.004  11.706  0.00  0.00    +0.000 A 
ATOM      7  C   UNL     1      46.640   7.015  12.129  0.00  0.00    +0.000 A 
ATOM      8  C   UNL     1      46.135   5.703  12.277  0.00  0.00    +0.000 A 
BRANCH   7   9
ATOM      9  C   UNL     1      48.054   7.349  12.440  0.00  0.00    +0.000 A 
ATOM     10  C   UNL     1      48.928   7.863  11.462  0.00  0.00    +0.000 A 
ATOM     11  C   UNL     1      50.266   8.157  11.756  0.00  0.00    +0.000 A 
ATOM     12  C   UNL     1      50.758   7.961  13.043  0.00  0.00    +0.000 A 
ATOM     13  C   UNL     1      49.912   7.464  14.027  0.00  0.00    +0.000 A 
ATOM     14 CL   UNL     1      50.507   7.229  15.625  0.00  0.00    +0.000 Cl
ATOM     15  C   UNL     1      48.583   7.152  13.731  0.00  0.00    +0.000 A 
ENDBRANCH   7   9
ENDBRANCH   2   3
BRANCH   2  16
ATOM     16  O   UNL     1      45.341   3.092  12.651  0.00  0.00    +0.000 OA
ATOM     17  H   UNL     1      45.510   3.270  13.594  0.00  0.00    +0.000 HD
ENDBRANCH   2  16
BRANCH   2  18
ATOM     18  C   UNL     1      43.647   3.391  10.955  0.00  0.00    +0.000 C 
BRANCH  18  19
ATOM     19  O   UNL     1      43.998   4.244   9.845  0.00  0.00    +0.000 OA
BRANCH  19  20
ATOM     20  C   UNL     1      44.924   3.659   9.005  0.00  0.00    +0.000 A 
ATOM     21  C   UNL     1      45.120   2.281   9.093  0.00  0.00    +0.000 A 
ATOM     22  N   UNL     1      45.987   1.601   8.296  0.00  0.00    +0.000 NA
ATOM     23  C   UNL     1      46.659   2.381   7.401  0.00  0.00    +0.000 A 
ATOM     24  C   UNL     1      46.468   3.752   7.315  0.00  0.00    +0.000 A 
ATOM     25  N   UNL     1      45.596   4.419   8.114  0.00  0.00    +0.000 NA
BRANCH  23  26
ATOM     26  C   UNL     1      47.619   1.720   6.473  0.00  0.00    +0.000 C 
ATOM     27  N   UNL     1      48.782   2.394   6.226  0.00  0.00    +0.000 N 
ATOM     28  O   UNL     1      47.385   0.632   5.962  0.00  0.00    +0.000 OA
ATOM     29  H   UNL     1      48.959   3.292   6.663  0.00  0.00    +0.000 HD
ATOM     30  H   UNL     1      49.469   1.983   5.611  0.00  0.00    +0.000 HD
ENDBRANCH  23  26
ENDBRANCH  19  20
ENDBRANCH  18  19
ENDBRANCH   2  18
TORSDOF 7
ENDMDL
MODEL 5
REMARK VINA RESULT:    -7.384      4.734      8.165
REMARK INTER + INTRA:         -11.159
REMARK INTER:                 -10.078
REMARK INTRA:                  -1.081
REMARK UNBOUND:                -0.969
REMARK  Name = 
REMARK  8 active torsions:
REMARK  status: ('A' for Active; 'I' for Inactive)
REMARK    1  A    between atoms: C_1  and  C_2
REMARK    2  A    between atoms: C_2  and  O_3
REMARK    3  A    between atoms: C_2  and  C_4
REMARK    4  A    between atoms: C_2  and  C_15
REMARK    5  A    between atoms: C_4  and  O_5
REMARK    6  A    between atoms: O_5  and  C_6
REMARK    7  A    between atoms: C_9  and  C_10
REMARK    8  A    between atoms: C_19  and  C_20
REMARK                            x       y       z     vdW  Elec       q    Type
REMARK                         _______ _______ _______ _____ _____    ______ ____
ROOT
ATOM      1  C   UNL     1      49.040   9.460  11.771  0.00  0.00    +0.000 C 
ATOM      2  C   UNL     1      48.546   8.215  12.523  0.00  0.00    +0.000 C 
ENDROOT
BRANCH   2   3
ATOM      3  C   UNL     1      47.107   7.861  12.134  0.00  0.00    +0.000 A 
ATOM      4  C   UNL     1      46.054   8.760  12.355  0.00  0.00    +0.000 A 
ATOM      5  C   UNL     1      44.750   8.445  11.979  0.00  0.00    +0.000 A 
ATOM      6  C   UNL     1      44.474   7.224  11.362  0.00  0.00    +0.000 A 
ATOM      7  C   UNL     1      45.491   6.295  11.092  0.00  0.00    +0.000 A 
ATOM      8  C   UNL     1      46.799   6.632  11.505  0.00  0.00    +0.000 A 
BRANCH   7   9
ATOM      9  C   UNL     1      45.199   5.027  10.373  0.00  0.00    +0.000 A 
ATOM     10  C   UNL     1      44.454   3.990  10.968  0.00  0.00    +0.000 A 
ATOM     11  C   UNL     1      44.201   2.790  10.291  0.00  0.00    +0.000 A 
ATOM     12  C   UNL     1      44.670   2.605   8.995  0.00  0.00    +0.000 A 
ATOM     13  C   UNL     1      45.399   3.619   8.384  0.00  0.00    +0.000 A 
ATOM     14 CL   UNL     1      45.973   3.406   6.775  0.00  0.00    +0.000 Cl
ATOM     15  C   UNL     1      45.669   4.809   9.063  0.00  0.00    +0.000 A 
ENDBRANCH   7   9
ENDBRANCH   2   3
BRANCH   2  16
ATOM     16  O   UNL     1      49.430   7.144  12.141  0.00  0.00    +0.000 OA
ATOM     17  H   UNL     1      50.327   7.523  12.124  0.00  0.00    +0.000 HD
ENDBRANCH   2  16
BRANCH   2  18
ATOM     18  C   UNL     1      48.666   8.402  14.058  0.00  0.00    +0.000 C 
BRANCH  18  19
ATOM     19  O   UNL     1      49.682   7.520  14.581  0.00  0.00    +0.000 OA
BRANCH  19  20
ATOM     20  C   UNL     1      49.151   6.501  15.345  0.00  0.00    +0.000 A 
ATOM     21  C   UNL     1      49.672   6.290  16.621  0.00  0.00    +0.000 A 
ATOM     22  N   UNL     1      49.205   5.333  17.466  0.00  0.00    +0.000 NA
ATOM     23  C   UNL     1      48.183   4.584  16.960  0.00  0.00    +0.000 A 
ATOM     24  C   UNL     1      47.666   4.790  15.689  0.00  0.00    +0.000 A 
ATOM     25  N   UNL     1      48.139   5.753  14.856  0.00  0.00    +0.000 NA
BRANCH  23  26
ATOM     26  C   UNL     1      47.595   3.520  17.821  0.00  0.00    +0.000 C 
ATOM     27  N   UNL     1      48.181   3.336  19.041  0.00  0.00    +0.000 N 
ATOM     28  O   UNL     1      46.637   2.848  17.459  0.00  0.00    +0.000 OA
ATOM     29  H   UNL     1      48.971   3.907  19.323  0.00  0.00    +0.000 HD
ATOM     30  H   UNL     1      47.813   2.633  19.664  0.00  0.00    +0.000 HD
ENDBRANCH  23  26
ENDBRANCH  19  20
ENDBRANCH  18  19
ENDBRANCH   2  18
TORSDOF 7
ENDMDL
MODEL 6
REMARK VINA RESULT:    -7.314      4.200      6.041
REMARK INTER + INTRA:         -11.062
REMARK INTER:                 -10.169
REMARK INTRA:                  -0.892
REMARK UNBOUND:                -0.969
REMARK  Name = 
REMARK  8 active torsions:
REMARK  status: ('A' for Active; 'I' for Inactive)
REMARK    1  A    between atoms: C_1  and  C_2
REMARK    2  A    between atoms: C_2  and  O_3
REMARK    3  A    between atoms: C_2  and  C_4
REMARK    4  A    between atoms: C_2  and  C_15
REMARK    5  A    between atoms: C_4  and  O_5
REMARK    6  A    between atoms: O_5  and  C_6
REMARK    7  A    between atoms: C_9  and  C_10
REMARK    8  A    between atoms: C_19  and  C_20
REMARK                            x       y       z     vdW  Elec       q    Type
REMARK                         _______ _______ _______ _____ _____    ______ ____
ROOT
ATOM      1  C   UNL     1      42.715   5.251  11.703  0.00  0.00    +0.000 C 
ATOM      2  C   UNL     1      44.165   5.395  12.184  0.00  0.00    +0.000 C 
ENDROOT
BRANCH   2   3
ATOM      3  C   UNL     1      44.637   6.851  12.112  0.00  0.00    +0.000 A 
ATOM      4  C   UNL     1      45.832   7.258  12.722  0.00  0.00    +0.000 A 
ATOM      5  C   UNL     1      46.269   8.577  12.635  0.00  0.00    +0.000 A 
ATOM      6  C   UNL     1      45.524   9.518  11.924  0.00  0.00    +0.000 A 
ATOM      7  C   UNL     1      44.332   9.165  11.272  0.00  0.00    +0.000 A 
ATOM      8  C   UNL     1      43.902   7.825  11.396  0.00  0.00    +0.000 A 
BRANCH   7   9
ATOM      9  C   UNL     1      43.581  10.157  10.460  0.00  0.00    +0.000 A 
ATOM     10  C   UNL     1      44.226  11.003   9.537  0.00  0.00    +0.000 A 
ATOM     11  C   UNL     1      43.513  11.951   8.790  0.00  0.00    +0.000 A 
ATOM     12  C   UNL     1      42.134  12.062   8.934  0.00  0.00    +0.000 A 
ATOM     13  C   UNL     1      41.474  11.230   9.832  0.00  0.00    +0.000 A 
ATOM     14 CL   UNL     1      39.766  11.350  10.009  0.00  0.00    +0.000 Cl
ATOM     15  C   UNL     1      42.185  10.298  10.591  0.00  0.00    +0.000 A 
ENDBRANCH   7   9
ENDBRANCH   2   3
BRANCH   2  16
ATOM     16  O   UNL     1      44.176   4.949  13.553  0.00  0.00    +0.000 OA
ATOM     17  H   UNL     1      44.435   5.720  14.090  0.00  0.00    +0.000 HD
ENDBRANCH   2  16
BRANCH   2  18
ATOM     18  C   UNL     1      45.118   4.473  11.379  0.00  0.00    +0.000 C 
BRANCH  18  19
ATOM     19  O   UNL     1      44.354   3.661  10.463  0.00  0.00    +0.000 OA
BRANCH  19  20
ATOM     20  C   UNL     1      45.082   3.304   9.346  0.00  0.00    +0.000 A 
ATOM     21  C   UNL     1      45.427   4.301   8.434  0.00  0.00    +0.000 A 
ATOM     22  N   UNL     1      46.163   4.064   7.316  0.00  0.00    +0.000 NA
ATOM     23  C   UNL     1      46.536   2.762   7.152  0.00  0.00    +0.000 A 
ATOM     24  C   UNL     1      46.190   1.768   8.055  0.00  0.00    +0.000 A 
ATOM     25  N   UNL     1      45.458   2.018   9.171  0.00  0.00    +0.000 NA
BRANCH  23  26
ATOM     26  C   UNL     1      47.360   2.409   5.962  0.00  0.00    +0.000 C 
ATOM     27  N   UNL     1      48.712   2.370   6.153  0.00  0.00    +0.000 N 
ATOM     28  O   UNL     1      46.856   2.163   4.873  0.00  0.00    +0.000 OA
ATOM     29  H   UNL     1      49.109   2.571   7.064  0.00  0.00    +0.000 HD
ATOM     30  H   UNL     1      49.313   2.126   5.379  0.00  0.00    +0.000 HD
ENDBRANCH  23  26
ENDBRANCH  19  20
ENDBRANCH  18  19
ENDBRANCH   2  18
TORSDOF 7
ENDMDL
MODEL 7
REMARK VINA RESULT:    -6.979      5.269      9.010
REMARK INTER + INTRA:         -10.600
REMARK INTER:                  -9.764
REMARK INTRA:                  -0.836
REMARK UNBOUND:                -0.969
REMARK  Name = 
REMARK  8 active torsions:
REMARK  status: ('A' for Active; 'I' for Inactive)
REMARK    1  A    between atoms: C_1  and  C_2
REMARK    2  A    between atoms: C_2  and  O_3
REMARK    3  A    between atoms: C_2  and  C_4
REMARK    4  A    between atoms: C_2  and  C_15
REMARK    5  A    between atoms: C_4  and  O_5
REMARK    6  A    between atoms: O_5  and  C_6
REMARK    7  A    between atoms: C_9  and  C_10
REMARK    8  A    between atoms: C_19  and  C_20
REMARK                            x       y       z     vdW  Elec       q    Type
REMARK                         _______ _______ _______ _____ _____    ______ ____
ROOT
ATOM      1  C   UNL     1      49.514   8.942  12.511  0.00  0.00    +0.000 C 
ATOM      2  C   UNL     1      48.828   7.687  13.067  0.00  0.00    +0.000 C 
ENDROOT
BRANCH   2   3
ATOM      3  C   UNL     1      47.395   7.554  12.543  0.00  0.00    +0.000 A 
ATOM      4  C   UNL     1      46.468   8.596  12.693  0.00  0.00    +0.000 A 
ATOM      5  C   UNL     1      45.172   8.480  12.195  0.00  0.00    +0.000 A 
ATOM      6  C   UNL     1      44.779   7.322  11.525  0.00  0.00    +0.000 A 
ATOM      7  C   UNL     1      45.669   6.256  11.323  0.00  0.00    +0.000 A 
ATOM      8  C   UNL     1      46.970   6.392  11.858  0.00  0.00    +0.000 A 
BRANCH   7   9
ATOM      9  C   UNL     1      45.263   5.054  10.548  0.00  0.00    +0.000 A 
ATOM     10  C   UNL     1      44.403   4.078  11.088  0.00  0.00    +0.000 A 
ATOM     11  C   UNL     1      44.040   2.938  10.359  0.00  0.00    +0.000 A 
ATOM     12  C   UNL     1      44.515   2.754   9.065  0.00  0.00    +0.000 A 
ATOM     13  C   UNL     1      45.358   3.710   8.507  0.00  0.00    +0.000 A 
ATOM     14 CL   UNL     1      45.941   3.499   6.901  0.00  0.00    +0.000 Cl
ATOM     15  C   UNL     1      45.735   4.838   9.239  0.00  0.00    +0.000 A 
ENDBRANCH   7   9
ENDBRANCH   2   3
BRANCH   2  16
ATOM     16  O   UNL     1      49.616   6.570  12.615  0.00  0.00    +0.000 OA
ATOM     17  H   UNL     1      49.472   6.504  11.654  0.00  0.00    +0.000 HD
ENDBRANCH   2  16
BRANCH   2  18
ATOM     18  C   UNL     1      48.845   7.679  14.618  0.00  0.00    +0.000 C 
BRANCH  18  19
ATOM     19  O   UNL     1      49.915   6.836  15.092  0.00  0.00    +0.000 OA
BRANCH  19  20
ATOM     20  C   UNL     1      49.656   6.311  16.342  0.00  0.00    +0.000 A 
ATOM     21  C   UNL     1      48.788   7.004  17.185  0.00  0.00    +0.000 A 
ATOM     22  N   UNL     1      48.444   6.564  18.424  0.00  0.00    +0.000 NA
ATOM     23  C   UNL     1      49.025   5.383  18.784  0.00  0.00    +0.000 A 
ATOM     24  C   UNL     1      49.892   4.694  17.949  0.00  0.00    +0.000 A 
ATOM     25  N   UNL     1      50.225   5.142  16.711  0.00  0.00    +0.000 NA
BRANCH  23  26
ATOM     26  C   UNL     1      48.694   4.813  20.120  0.00  0.00    +0.000 C 
ATOM     27  N   UNL     1      48.448   3.470  20.160  0.00  0.00    +0.000 N 
ATOM     28  O   UNL     1      48.650   5.506  21.129  0.00  0.00    +0.000 OA
ATOM     29  H   UNL     1      48.495   2.912  19.314  0.00  0.00    +0.000 HD
ATOM     30  H   UNL     1      48.229   3.035  21.044  0.00  0.00    +0.000 HD
ENDBRANCH  23  26
ENDBRANCH  19  20
ENDBRANCH  18  19
ENDBRANCH   2  18
TORSDOF 7
ENDMDL
MODEL 8
REMARK VINA RESULT:    -6.830      4.138      6.903
REMARK INTER + INTRA:         -10.395
REMARK INTER:                  -9.514
REMARK INTRA:                  -0.880
REMARK UNBOUND:                -0.969
REMARK  Name = 
REMARK  8 active torsions:
REMARK  status: ('A' for Active; 'I' for Inactive)
REMARK    1  A    between atoms: C_1  and  C_2
REMARK    2  A    between atoms: C_2  and  O_3
REMARK    3  A    between atoms: C_2  and  C_4
REMARK    4  A    between atoms: C_2  and  C_15
REMARK    5  A    between atoms: C_4  and  O_5
REMARK    6  A    between atoms: O_5  and  C_6
REMARK    7  A    between atoms: C_9  and  C_10
REMARK    8  A    between atoms: C_19  and  C_20
REMARK                            x       y       z     vdW  Elec       q    Type
REMARK                         _______ _______ _______ _____ _____    ______ ____
ROOT
ATOM      1  C   UNL     1      49.047   2.798  17.167  0.00  0.00    +0.000 C 
ATOM      2  C   UNL     1      48.674   4.287  17.135  0.00  0.00    +0.000 C 
ENDROOT
BRANCH   2   3
ATOM      3  C   UNL     1      48.477   4.845  18.548  0.00  0.00    +0.000 A 
ATOM      4  C   UNL     1      48.749   4.063  19.681  0.00  0.00    +0.000 A 
ATOM      5  C   UNL     1      48.591   4.581  20.964  0.00  0.00    +0.000 A 
ATOM      6  C   UNL     1      48.167   5.898  21.142  0.00  0.00    +0.000 A 
ATOM      7  C   UNL     1      47.903   6.736  20.047  0.00  0.00    +0.000 A 
ATOM      8  C   UNL     1      48.051   6.177  18.758  0.00  0.00    +0.000 A 
BRANCH   7   9
ATOM      9  C   UNL     1      47.519   8.158  20.245  0.00  0.00    +0.000 A 
ATOM     10  C   UNL     1      47.035   8.631  21.480  0.00  0.00    +0.000 A 
ATOM     11  C   UNL     1      46.655   9.968  21.654  0.00  0.00    +0.000 A 
ATOM     12  C   UNL     1      46.767  10.870  20.600  0.00  0.00    +0.000 A 
ATOM     13  C   UNL     1      47.251  10.428  19.375  0.00  0.00    +0.000 A 
ATOM     14 CL   UNL     1      47.407  11.537  18.068  0.00  0.00    +0.000 Cl
ATOM     15  C   UNL     1      47.613   9.090  19.194  0.00  0.00    +0.000 A 
ENDBRANCH   7   9
ENDBRANCH   2   3
BRANCH   2  16
ATOM     16  O   UNL     1      49.776   4.960  16.497  0.00  0.00    +0.000 OA
ATOM     17  H   UNL     1      49.867   5.820  16.945  0.00  0.00    +0.000 HD
ENDBRANCH   2  16
BRANCH   2  18
ATOM     18  C   UNL     1      47.408   4.530  16.271  0.00  0.00    +0.000 C 
BRANCH  18  19
ATOM     19  O   UNL     1      47.794   4.945  14.944  0.00  0.00    +0.000 OA
BRANCH  19  20
ATOM     20  C   UNL     1      46.816   4.682  14.006  0.00  0.00    +0.000 A 
ATOM     21  C   UNL     1      46.104   5.756  13.472  0.00  0.00    +0.000 A 
ATOM     22  N   UNL     1      45.140   5.611  12.525  0.00  0.00    +0.000 NA
ATOM     23  C   UNL     1      44.918   4.322  12.139  0.00  0.00    +0.000 A 
ATOM     24  C   UNL     1      45.621   3.252  12.672  0.00  0.00    +0.000 A 
ATOM     25  N   UNL     1      46.585   3.410  13.615  0.00  0.00    +0.000 NA
BRANCH  23  26
ATOM     26  C   UNL     1      43.889   4.066  11.092  0.00  0.00    +0.000 C 
ATOM     27  N   UNL     1      43.697   5.062  10.177  0.00  0.00    +0.000 N 
ATOM     28  O   UNL     1      43.253   3.021  11.048  0.00  0.00    +0.000 OA
ATOM     29  H   UNL     1      44.238   5.919  10.228  0.00  0.00    +0.000 HD
ATOM     30  H   UNL     1      43.018   4.933   9.442  0.00  0.00    +0.000 HD
ENDBRANCH  23  26
ENDBRANCH  19  20
ENDBRANCH  18  19
ENDBRANCH   2  18
TORSDOF 7
ENDMDL
MODEL 9
REMARK VINA RESULT:    -6.721      4.085      6.887
REMARK INTER + INTRA:         -10.243
REMARK INTER:                  -9.407
REMARK INTRA:                  -0.836
REMARK UNBOUND:                -0.969
REMARK  Name = 
REMARK  8 active torsions:
REMARK  status: ('A' for Active; 'I' for Inactive)
REMARK    1  A    between atoms: C_1  and  C_2
REMARK    2  A    between atoms: C_2  and  O_3
REMARK    3  A    between atoms: C_2  and  C_4
REMARK    4  A    between atoms: C_2  and  C_15
REMARK    5  A    between atoms: C_4  and  O_5
REMARK    6  A    between atoms: O_5  and  C_6
REMARK    7  A    between atoms: C_9  and  C_10
REMARK    8  A    between atoms: C_19  and  C_20
REMARK                            x       y       z     vdW  Elec       q    Type
REMARK                         _______ _______ _______ _____ _____    ______ ____
ROOT
ATOM      1  C   UNL     1      47.334   2.785  17.712  0.00  0.00    +0.000 C 
ATOM      2  C   UNL     1      48.200   3.422  16.616  0.00  0.00    +0.000 C 
ENDROOT
BRANCH   2   3
ATOM      3  C   UNL     1      49.484   4.023  17.196  0.00  0.00    +0.000 A 
ATOM      4  C   UNL     1      49.594   5.400  17.440  0.00  0.00    +0.000 A 
ATOM      5  C   UNL     1      50.755   5.940  17.989  0.00  0.00    +0.000 A 
ATOM      6  C   UNL     1      51.828   5.111  18.317  0.00  0.00    +0.000 A 
ATOM      7  C   UNL     1      51.767   3.723  18.117  0.00  0.00    +0.000 A 
ATOM      8  C   UNL     1      50.587   3.206  17.539  0.00  0.00    +0.000 A 
BRANCH   7   9
ATOM      9  C   UNL     1      52.888   2.840  18.532  0.00  0.00    +0.000 A 
ATOM     10  C   UNL     1      53.685   3.129  19.656  0.00  0.00    +0.000 A 
ATOM     11  C   UNL     1      54.753   2.303  20.029  0.00  0.00    +0.000 A 
ATOM     12  C   UNL     1      55.039   1.155  19.297  0.00  0.00    +0.000 A 
ATOM     13  C   UNL     1      54.260   0.844  18.188  0.00  0.00    +0.000 A 
ATOM     14 CL   UNL     1      54.596  -0.581  17.282  0.00  0.00    +0.000 Cl
ATOM     15  C   UNL     1      53.206   1.677  17.804  0.00  0.00    +0.000 A 
ENDBRANCH   7   9
ENDBRANCH   2   3
BRANCH   2  16
ATOM     16  O   UNL     1      48.531   2.358  15.703  0.00  0.00    +0.000 OA
ATOM     17  H   UNL     1      47.715   1.841  15.579  0.00  0.00    +0.000 HD
ENDBRANCH   2  16
BRANCH   2  18
ATOM     18  C   UNL     1      47.405   4.493  15.824  0.00  0.00    +0.000 C 
BRANCH  18  19
ATOM     19  O   UNL     1      47.515   4.237  14.408  0.00  0.00    +0.000 OA
BRANCH  19  20
ATOM     20  C   UNL     1      46.396   4.647  13.712  0.00  0.00    +0.000 A 
ATOM     21  C   UNL     1      46.313   5.983  13.319  0.00  0.00    +0.000 A 
ATOM     22  N   UNL     1      45.269   6.485  12.607  0.00  0.00    +0.000 NA
ATOM     23  C   UNL     1      44.299   5.574  12.311  0.00  0.00    +0.000 A 
ATOM     24  C   UNL     1      44.377   4.246  12.704  0.00  0.00    +0.000 A 
ATOM     25  N   UNL     1      45.427   3.755  13.412  0.00  0.00    +0.000 NA
BRANCH  23  26
ATOM     26  C   UNL     1      43.122   6.029  11.518  0.00  0.00    +0.000 C 
ATOM     27  N   UNL     1      43.139   7.331  11.105  0.00  0.00    +0.000 N 
ATOM     28  O   UNL     1      42.193   5.279  11.247  0.00  0.00    +0.000 OA
ATOM     29  H   UNL     1      43.921   7.934  11.336  0.00  0.00    +0.000 HD
ATOM     30  H   UNL     1      42.369   7.685  10.557  0.00  0.00    +0.000 HD
ENDBRANCH  23  26
ENDBRANCH  19  20
ENDBRANCH  18  19
ENDBRANCH   2  18
TORSDOF 7
ENDMDL
