MODEL 1
REMARK VINA RESULT:    -7.235      0.000      0.000
REMARK INTER + INTRA:         -10.314
REMARK INTER:                  -9.350
REMARK INTRA:                  -0.964
REMARK UNBOUND:                -0.964
REMARK  Name = 
REMARK  5 active torsions:
REMARK  status: ('A' for Active; 'I' for Inactive)
REMARK    1  A    between atoms: C_4  and  O_5
REMARK    2  A    between atoms: O_5  and  C_6
REMARK    3  A    between atoms: C_6  and  C_7
REMARK    4  A    between atoms: C_12  and  C_13
REMARK    5  A    between atoms: C_19  and  C_20
REMARK                            x       y       z     vdW  Elec       q    Type
REMARK                         _______ _______ _______ _____ _____    ______ ____
ROOT
ATOM      1  F   UNL     1      46.001   9.282  12.082  0.00  0.00    +0.000 F 
ATOM      2  C   UNL     1      46.330   8.073  12.556  0.00  0.00    +0.000 A 
ATOM      3  C   UNL     1      47.608   7.869  13.064  0.00  0.00    +0.000 A 
ATOM      4  C   UNL     1      47.949   6.627  13.592  0.00  0.00    +0.000 A 
ATOM      5  C   UNL     1      47.008   5.591  13.557  0.00  0.00    +0.000 A 
ATOM      6  C   UNL     1      45.701   5.795  13.059  0.00  0.00    +0.000 A 
ATOM      7  C   UNL     1      45.371   7.059  12.560  0.00  0.00    +0.000 A 
ENDROOT
BRANCH   6   8
ATOM      8  C   UNL     1      44.699   4.651  13.148  0.00  0.00    +0.000 C 
ATOM      9  C   UNL     1      45.049   3.408  12.307  0.00  0.00    +0.000 C 
ATOM     10  C   UNL     1      44.252   3.241  11.013  0.00  0.00    +0.000 C 
ATOM     11  N   UNL     1      42.833   3.522  11.189  0.00  0.00    +0.000 NA
ATOM     12  C   UNL     1      42.657   4.911  11.602  0.00  0.00    +0.000 C 
ATOM     13  C   UNL     1      43.251   5.151  12.985  0.00  0.00    +0.000 C 
ATOM     14  H   UNL     1      42.443   2.899  11.897  0.00  0.00    +0.000 HD
ENDBRANCH   6   8
BRANCH   4  15
ATOM     15  O   UNL     1      49.210   6.532  14.118  0.00  0.00    +0.000 OA
BRANCH  15  16
ATOM     16  C   UNL     1      49.475   7.355  15.260  0.00  0.00    +0.000 C 
BRANCH  16  17
ATOM     17  C   UNL     1      48.937   6.716  16.523  0.00  0.00    +0.000 A 
ATOM     18  C   UNL     1      48.535   7.534  17.591  0.00  0.00    +0.000 A 
ATOM     19  C   UNL     1      48.018   6.973  18.758  0.00  0.00    +0.000 A 
ATOM     20 CL   UNL     1      47.547   7.997  20.057  0.00  0.00    +0.000 Cl
ATOM     21  C   UNL     1      47.878   5.594  18.876  0.00  0.00    +0.000 A 
ATOM     22  C   UNL     1      48.255   4.754  17.819  0.00  0.00    +0.000 A 
ATOM     23  C   UNL     1      48.775   5.326  16.643  0.00  0.00    +0.000 A 
BRANCH  22  24
ATOM     24  C   UNL     1      48.107   3.255  17.929  0.00  0.00    +0.000 C 
ATOM     25  F   UNL     1      48.956   2.565  17.118  0.00  0.00    +0.000 F 
ATOM     26  F   UNL     1      48.347   2.801  19.191  0.00  0.00    +0.000 F 
ATOM     27  F   UNL     1      46.855   2.829  17.608  0.00  0.00    +0.000 F 
ENDBRANCH  22  24
ENDBRANCH  16  17
ENDBRANCH  15  16
ENDBRANCH   4  15
TORSDOF 5
ENDMDL
MODEL 2
REMARK VINA RESULT:    -7.223      4.321      6.816
REMARK INTER + INTRA:         -10.298
REMARK INTER:                  -9.312
REMARK INTRA:                  -0.986
REMARK UNBOUND:                -0.964
REMARK  Name = 
REMARK  5 active torsions:
REMARK  status: ('A' for Active; 'I' for Inactive)
REMARK    1  A    between atoms: C_4  and  O_5
REMARK    2  A    between atoms: O_5  and  C_6
REMARK    3  A    between atoms: C_6  and  C_7
REMARK    4  A    between atoms: C_12  and  C_13
REMARK    5  A    between atoms: C_19  and  C_20
REMARK                            x       y       z     vdW  Elec       q    Type
REMARK                         _______ _______ _______ _____ _____    ______ ____
ROOT
ATOM      1  F   UNL     1      43.704   1.277  10.138  0.00  0.00    +0.000 F 
ATOM      2  C   UNL     1      44.405   2.281   9.596  0.00  0.00    +0.000 A 
ATOM      3  C   UNL     1      44.164   3.583  10.021  0.00  0.00    +0.000 A 
ATOM      4  C   UNL     1      44.911   4.630   9.490  0.00  0.00    +0.000 A 
ATOM      5  C   UNL     1      45.861   4.354   8.500  0.00  0.00    +0.000 A 
ATOM      6  C   UNL     1      46.125   3.032   8.074  0.00  0.00    +0.000 A 
ATOM      7  C   UNL     1      45.382   1.992   8.642  0.00  0.00    +0.000 A 
ENDROOT
BRANCH   6   8
ATOM      8  C   UNL     1      47.245   2.798   7.068  0.00  0.00    +0.000 C 
ATOM      9  C   UNL     1      46.959   3.306   5.642  0.00  0.00    +0.000 C 
ATOM     10  C   UNL     1      46.597   2.231   4.619  0.00  0.00    +0.000 C 
ATOM     11  N   UNL     1      47.442   1.049   4.725  0.00  0.00    +0.000 NA
ATOM     12  C   UNL     1      47.268   0.439   6.039  0.00  0.00    +0.000 C 
ATOM     13  C   UNL     1      47.782   1.357   7.143  0.00  0.00    +0.000 C 
ATOM     14  H   UNL     1      48.420   1.310   4.594  0.00  0.00    +0.000 HD
ENDBRANCH   6   8
BRANCH   4  15
ATOM     15  O   UNL     1      44.643   5.870  10.006  0.00  0.00    +0.000 OA
BRANCH  15  16
ATOM     16  C   UNL     1      44.382   5.920  11.413  0.00  0.00    +0.000 C 
BRANCH  16  17
ATOM     17  C   UNL     1      45.673   6.029  12.198  0.00  0.00    +0.000 A 
ATOM     18  C   UNL     1      45.862   5.216  13.327  0.00  0.00    +0.000 A 
ATOM     19  C   UNL     1      47.048   5.281  14.057  0.00  0.00    +0.000 A 
ATOM     20 CL   UNL     1      47.249   4.285  15.444  0.00  0.00    +0.000 Cl
ATOM     21  C   UNL     1      48.070   6.143  13.669  0.00  0.00    +0.000 A 
ATOM     22  C   UNL     1      47.914   6.954  12.536  0.00  0.00    +0.000 A 
ATOM     23  C   UNL     1      46.715   6.883  11.803  0.00  0.00    +0.000 A 
BRANCH  22  24
ATOM     24  C   UNL     1      49.013   7.893  12.099  0.00  0.00    +0.000 C 
ATOM     25  F   UNL     1      49.995   8.051  13.029  0.00  0.00    +0.000 F 
ATOM     26  F   UNL     1      49.640   7.467  10.966  0.00  0.00    +0.000 F 
ATOM     27  F   UNL     1      48.553   9.144  11.826  0.00  0.00    +0.000 F 
ENDBRANCH  22  24
ENDBRANCH  16  17
ENDBRANCH  15  16
ENDBRANCH   4  15
TORSDOF 5
ENDMDL
MODEL 3
REMARK VINA RESULT:    -7.017      0.993      1.407
REMARK INTER + INTRA:         -10.031
REMARK INTER:                  -9.049
REMARK INTRA:                  -0.982
REMARK UNBOUND:                -0.964
REMARK  Name = 
REMARK  5 active torsions:
REMARK  status: ('A' for Active; 'I' for Inactive)
REMARK    1  A    between atoms: C_4  and  O_5
REMARK    2  A    between atoms: O_5  and  C_6
REMARK    3  A    between atoms: C_6  and  C_7
REMARK    4  A    between atoms: C_12  and  C_13
REMARK    5  A    between atoms: C_19  and  C_20
REMARK                            x       y       z     vdW  Elec       q    Type
REMARK                         _______ _______ _______ _____ _____    ______ ____
ROOT
ATOM      1  F   UNL     1      45.802   9.756  11.955  0.00  0.00    +0.000 F 
ATOM      2  C   UNL     1      45.890   8.423  12.050  0.00  0.00    +0.000 A 
ATOM      3  C   UNL     1      47.022   7.858  12.626  0.00  0.00    +0.000 A 
ATOM      4  C   UNL     1      47.109   6.476  12.763  0.00  0.00    +0.000 A 
ATOM      5  C   UNL     1      46.070   5.677  12.271  0.00  0.00    +0.000 A 
ATOM      6  C   UNL     1      44.907   6.244  11.700  0.00  0.00    +0.000 A 
ATOM      7  C   UNL     1      44.829   7.636  11.599  0.00  0.00    +0.000 A 
ENDROOT
BRANCH   6   8
ATOM      8  C   UNL     1      43.773   5.317  11.282  0.00  0.00    +0.000 C 
ATOM      9  C   UNL     1      43.181   4.455  12.414  0.00  0.00    +0.000 C 
ATOM     10  C   UNL     1      43.607   2.988  12.419  0.00  0.00    +0.000 C 
ATOM     11  N   UNL     1      43.597   2.397  11.087  0.00  0.00    +0.000 NA
ATOM     12  C   UNL     1      44.551   3.099  10.233  0.00  0.00    +0.000 C 
ATOM     13  C   UNL     1      44.119   4.541   9.997  0.00  0.00    +0.000 C 
ATOM     14  H   UNL     1      42.661   2.466  10.685  0.00  0.00    +0.000 HD
ENDBRANCH   6   8
BRANCH   4  15
ATOM     15  O   UNL     1      48.235   6.011  13.390  0.00  0.00    +0.000 OA
BRANCH  15  16
ATOM     16  C   UNL     1      48.853   6.913  14.315  0.00  0.00    +0.000 C 
BRANCH  16  17
ATOM     17  C   UNL     1      48.696   6.417  15.738  0.00  0.00    +0.000 A 
ATOM     18  C   UNL     1      48.808   7.328  16.800  0.00  0.00    +0.000 A 
ATOM     19  C   UNL     1      48.650   6.903  18.119  0.00  0.00    +0.000 A 
ATOM     20 CL   UNL     1      48.806   8.037  19.403  0.00  0.00    +0.000 Cl
ATOM     21  C   UNL     1      48.363   5.571  18.401  0.00  0.00    +0.000 A 
ATOM     22  C   UNL     1      48.229   4.643  17.359  0.00  0.00    +0.000 A 
ATOM     23  C   UNL     1      48.390   5.078  16.030  0.00  0.00    +0.000 A 
BRANCH  22  24
ATOM     24  C   UNL     1      47.916   3.194  17.647  0.00  0.00    +0.000 C 
ATOM     25  F   UNL     1      48.549   2.325  16.811  0.00  0.00    +0.000 F 
ATOM     26  F   UNL     1      48.277   2.826  18.908  0.00  0.00    +0.000 F 
ATOM     27  F   UNL     1      46.589   2.916  17.539  0.00  0.00    +0.000 F 
ENDBRANCH  22  24
ENDBRANCH  16  17
ENDBRANCH  15  16
ENDBRANCH   4  15
TORSDOF 5
ENDMDL
MODEL 4
REMARK VINA RESULT:    -6.708      2.135      2.526
REMARK INTER + INTRA:          -9.633
REMARK INTER:                  -8.892
REMARK INTRA:                  -0.741
REMARK UNBOUND:                -0.964
REMARK  Name = 
REMARK  5 active torsions:
REMARK  status: ('A' for Active; 'I' for Inactive)
REMARK    1  A    between atoms: C_4  and  O_5
REMARK    2  A    between atoms: O_5  and  C_6
REMARK    3  A    between atoms: C_6  and  C_7
REMARK    4  A    between atoms: C_12  and  C_13
REMARK    5  A    between atoms: C_19  and  C_20
REMARK                            x       y       z     vdW  Elec       q    Type
REMARK                         _______ _______ _______ _____ _____    ______ ____
ROOT
ATOM      1  F   UNL     1      46.314   9.178  11.734  0.00  0.00    +0.000 F 
ATOM      2  C   UNL     1      46.567   8.029  12.375  0.00  0.00    +0.000 A 
ATOM      3  C   UNL     1      47.774   7.881  13.049  0.00  0.00    +0.000 A 
ATOM      4  C   UNL     1      48.034   6.707  13.748  0.00  0.00    +0.000 A 
ATOM      5  C   UNL     1      47.088   5.675  13.718  0.00  0.00    +0.000 A 
ATOM      6  C   UNL     1      45.851   5.822  13.050  0.00  0.00    +0.000 A 
ATOM      7  C   UNL     1      45.600   7.023  12.378  0.00  0.00    +0.000 A 
ENDROOT
BRANCH   6   8
ATOM      8  C   UNL     1      44.829   4.697  13.146  0.00  0.00    +0.000 C 
ATOM      9  C   UNL     1      45.122   3.470  12.260  0.00  0.00    +0.000 C 
ATOM     10  C   UNL     1      44.274   3.354  10.994  0.00  0.00    +0.000 C 
ATOM     11  N   UNL     1      42.869   3.658  11.231  0.00  0.00    +0.000 NA
ATOM     12  C   UNL     1      42.737   5.039  11.687  0.00  0.00    +0.000 C 
ATOM     13  C   UNL     1      43.387   5.230  13.052  0.00  0.00    +0.000 C 
ATOM     14  H   UNL     1      42.492   3.025  11.937  0.00  0.00    +0.000 HD
ENDBRANCH   6   8
BRANCH   4  15
ATOM     15  O   UNL     1      49.223   6.670  14.427  0.00  0.00    +0.000 OA
BRANCH  15  16
ATOM     16  C   UNL     1      49.145   6.896  15.839  0.00  0.00    +0.000 C 
BRANCH  16  17
ATOM     17  C   UNL     1      49.349   5.604  16.604  0.00  0.00    +0.000 A 
ATOM     18  C   UNL     1      48.253   4.755  16.826  0.00  0.00    +0.000 A 
ATOM     19  C   UNL     1      48.416   3.552  17.510  0.00  0.00    +0.000 A 
ATOM     20 CL   UNL     1      47.055   2.536  17.780  0.00  0.00    +0.000 Cl
ATOM     21  C   UNL     1      49.672   3.165  17.971  0.00  0.00    +0.000 A 
ATOM     22  C   UNL     1      50.786   3.986  17.748  0.00  0.00    +0.000 A 
ATOM     23  C   UNL     1      50.615   5.200  17.056  0.00  0.00    +0.000 A 
BRANCH  22  24
ATOM     24  C   UNL     1      52.156   3.582  18.239  0.00  0.00    +0.000 C 
ATOM     25  F   UNL     1      53.174   4.119  17.511  0.00  0.00    +0.000 F 
ATOM     26  F   UNL     1      52.380   3.965  19.527  0.00  0.00    +0.000 F 
ATOM     27  F   UNL     1      52.345   2.235  18.208  0.00  0.00    +0.000 F 
ENDBRANCH  22  24
ENDBRANCH  16  17
ENDBRANCH  15  16
ENDBRANCH   4  15
TORSDOF 5
ENDMDL
MODEL 5
REMARK VINA RESULT:    -6.644      2.229      2.748
REMARK INTER + INTRA:          -9.550
REMARK INTER:                  -8.689
REMARK INTRA:                  -0.861
REMARK UNBOUND:                -0.964
REMARK  Name = 
REMARK  5 active torsions:
REMARK  status: ('A' for Active; 'I' for Inactive)
REMARK    1  A    between atoms: C_4  and  O_5
REMARK    2  A    between atoms: O_5  and  C_6
REMARK    3  A    between atoms: C_6  and  C_7
REMARK    4  A    between atoms: C_12  and  C_13
REMARK    5  A    between atoms: C_19  and  C_20
REMARK                            x       y       z     vdW  Elec       q    Type
REMARK                         _______ _______ _______ _____ _____    ______ ____
ROOT
ATOM      1  F   UNL     1      46.251   9.145  11.793  0.00  0.00    +0.000 F 
ATOM      2  C   UNL     1      46.511   7.977  12.395  0.00  0.00    +0.000 A 
ATOM      3  C   UNL     1      47.738   7.795  13.022  0.00  0.00    +0.000 A 
ATOM      4  C   UNL     1      48.005   6.599  13.680  0.00  0.00    +0.000 A 
ATOM      5  C   UNL     1      47.045   5.581  13.658  0.00  0.00    +0.000 A 
ATOM      6  C   UNL     1      45.787   5.763  13.039  0.00  0.00    +0.000 A 
ATOM      7  C   UNL     1      45.529   6.984  12.407  0.00  0.00    +0.000 A 
ENDROOT
BRANCH   6   8
ATOM      8  C   UNL     1      44.753   4.649  13.143  0.00  0.00    +0.000 C 
ATOM      9  C   UNL     1      45.058   3.393  12.304  0.00  0.00    +0.000 C 
ATOM     10  C   UNL     1      44.243   3.244  11.020  0.00  0.00    +0.000 C 
ATOM     11  N   UNL     1      42.835   3.566  11.209  0.00  0.00    +0.000 NA
ATOM     12  C   UNL     1      42.703   4.962  11.618  0.00  0.00    +0.000 C 
ATOM     13  C   UNL     1      43.319   5.191  12.993  0.00  0.00    +0.000 C 
ATOM     14  H   UNL     1      42.434   2.959  11.925  0.00  0.00    +0.000 HD
ENDBRANCH   6   8
BRANCH   4  15
ATOM     15  O   UNL     1      49.217   6.529  14.315  0.00  0.00    +0.000 OA
BRANCH  15  16
ATOM     16  C   UNL     1      49.398   7.422  15.419  0.00  0.00    +0.000 C 
BRANCH  16  17
ATOM     17  C   UNL     1      48.919   6.789  16.709  0.00  0.00    +0.000 A 
ATOM     18  C   UNL     1      48.872   5.390  16.813  0.00  0.00    +0.000 A 
ATOM     19  C   UNL     1      48.453   4.780  17.994  0.00  0.00    +0.000 A 
ATOM     20 CL   UNL     1      48.390   3.064  18.090  0.00  0.00    +0.000 Cl
ATOM     21  C   UNL     1      48.090   5.549  19.096  0.00  0.00    +0.000 A 
ATOM     22  C   UNL     1      48.145   6.948  19.026  0.00  0.00    +0.000 A 
ATOM     23  C   UNL     1      48.569   7.558  17.831  0.00  0.00    +0.000 A 
BRANCH  22  24
ATOM     24  C   UNL     1      47.758   7.799  20.212  0.00  0.00    +0.000 C 
ATOM     25  F   UNL     1      48.824   8.341  20.863  0.00  0.00    +0.000 F 
ATOM     26  F   UNL     1      46.964   8.849  19.861  0.00  0.00    +0.000 F 
ATOM     27  F   UNL     1      47.064   7.100  21.151  0.00  0.00    +0.000 F 
ENDBRANCH  22  24
ENDBRANCH  16  17
ENDBRANCH  15  16
ENDBRANCH   4  15
TORSDOF 5
ENDMDL
MODEL 6
REMARK VINA RESULT:    -6.502      3.341      4.972
REMARK INTER + INTRA:          -9.367
REMARK INTER:                  -8.502
REMARK INTRA:                  -0.864
REMARK UNBOUND:                -0.964
REMARK  Name = 
REMARK  5 active torsions:
REMARK  status: ('A' for Active; 'I' for Inactive)
REMARK    1  A    between atoms: C_4  and  O_5
REMARK    2  A    between atoms: O_5  and  C_6
REMARK    3  A    between atoms: C_6  and  C_7
REMARK    4  A    between atoms: C_12  and  C_13
REMARK    5  A    between atoms: C_19  and  C_20
REMARK                            x       y       z     vdW  Elec       q    Type
REMARK                         _______ _______ _______ _____ _____    ______ ____
ROOT
ATOM      1  F   UNL     1      43.223   3.090  13.611  0.00  0.00    +0.000 F 
ATOM      2  C   UNL     1      43.797   3.713  12.573  0.00  0.00    +0.000 A 
ATOM      3  C   UNL     1      44.448   4.923  12.784  0.00  0.00    +0.000 A 
ATOM      4  C   UNL     1      45.078   5.561  11.720  0.00  0.00    +0.000 A 
ATOM      5  C   UNL     1      45.003   4.990  10.444  0.00  0.00    +0.000 A 
ATOM      6  C   UNL     1      44.359   3.751  10.224  0.00  0.00    +0.000 A 
ATOM      7  C   UNL     1      43.757   3.114  11.313  0.00  0.00    +0.000 A 
ENDROOT
BRANCH   6   8
ATOM      8  C   UNL     1      44.407   3.141   8.828  0.00  0.00    +0.000 C 
ATOM      9  C   UNL     1      44.807   1.654   8.778  0.00  0.00    +0.000 C 
ATOM     10  C   UNL     1      46.238   1.370   8.325  0.00  0.00    +0.000 C 
ATOM     11  N   UNL     1      46.635   2.183   7.183  0.00  0.00    +0.000 NA
ATOM     12  C   UNL     1      46.594   3.595   7.549  0.00  0.00    +0.000 C 
ATOM     13  C   UNL     1      45.167   4.045   7.840  0.00  0.00    +0.000 C 
ATOM     14  H   UNL     1      46.003   2.012   6.400  0.00  0.00    +0.000 HD
ENDBRANCH   6   8
BRANCH   4  15
ATOM     15  O   UNL     1      45.739   6.720  12.031  0.00  0.00    +0.000 OA
BRANCH  15  16
ATOM     16  C   UNL     1      46.980   6.934  11.350  0.00  0.00    +0.000 C 
BRANCH  16  17
ATOM     17  C   UNL     1      48.105   7.164  12.338  0.00  0.00    +0.000 A 
ATOM     18  C   UNL     1      49.254   7.856  11.923  0.00  0.00    +0.000 A 
ATOM     19  C   UNL     1      50.297   8.099  12.815  0.00  0.00    +0.000 A 
ATOM     20 CL   UNL     1      51.699   8.937  12.279  0.00  0.00    +0.000 Cl
ATOM     21  C   UNL     1      50.208   7.673  14.138  0.00  0.00    +0.000 A 
ATOM     22  C   UNL     1      49.065   6.994  14.583  0.00  0.00    +0.000 A 
ATOM     23  C   UNL     1      48.016   6.752  13.677  0.00  0.00    +0.000 A 
BRANCH  22  24
ATOM     24  C   UNL     1      48.950   6.526  16.014  0.00  0.00    +0.000 C 
ATOM     25  F   UNL     1      48.118   5.460  16.172  0.00  0.00    +0.000 F 
ATOM     26  F   UNL     1      50.150   6.141  16.532  0.00  0.00    +0.000 F 
ATOM     27  F   UNL     1      48.477   7.495  16.844  0.00  0.00    +0.000 F 
ENDBRANCH  22  24
ENDBRANCH  16  17
ENDBRANCH  15  16
ENDBRANCH   4  15
TORSDOF 5
ENDMDL
MODEL 7
REMARK VINA RESULT:    -6.484      3.906      7.969
REMARK INTER + INTRA:          -9.343
REMARK INTER:                  -8.578
REMARK INTRA:                  -0.765
REMARK UNBOUND:                -0.964
REMARK  Name = 
REMARK  5 active torsions:
REMARK  status: ('A' for Active; 'I' for Inactive)
REMARK    1  A    between atoms: C_4  and  O_5
REMARK    2  A    between atoms: O_5  and  C_6
REMARK    3  A    between atoms: C_6  and  C_7
REMARK    4  A    between atoms: C_12  and  C_13
REMARK    5  A    between atoms: C_19  and  C_20
REMARK                            x       y       z     vdW  Elec       q    Type
REMARK                         _______ _______ _______ _____ _____    ______ ____
ROOT
ATOM      1  F   UNL     1      50.438   1.772  17.411  0.00  0.00    +0.000 F 
ATOM      2  C   UNL     1      49.500   2.721  17.535  0.00  0.00    +0.000 A 
ATOM      3  C   UNL     1      48.544   2.864  16.536  0.00  0.00    +0.000 A 
ATOM      4  C   UNL     1      47.545   3.822  16.672  0.00  0.00    +0.000 A 
ATOM      5  C   UNL     1      47.551   4.658  17.795  0.00  0.00    +0.000 A 
ATOM      6  C   UNL     1      48.509   4.507  18.825  0.00  0.00    +0.000 A 
ATOM      7  C   UNL     1      49.487   3.518  18.680  0.00  0.00    +0.000 A 
ENDROOT
BRANCH   6   8
ATOM      8  C   UNL     1      48.391   5.383  20.066  0.00  0.00    +0.000 C 
ATOM      9  C   UNL     1      47.316   6.484  19.989  0.00  0.00    +0.000 C 
ATOM     10  C   UNL     1      47.837   7.899  19.744  0.00  0.00    +0.000 C 
ATOM     11  N   UNL     1      49.019   8.207  20.539  0.00  0.00    +0.000 NA
ATOM     12  C   UNL     1      50.104   7.302  20.172  0.00  0.00    +0.000 C 
ATOM     13  C   UNL     1      49.771   5.863  20.553  0.00  0.00    +0.000 C 
ATOM     14  H   UNL     1      48.805   8.103  21.531  0.00  0.00    +0.000 HD
ENDBRANCH   6   8
BRANCH   4  15
ATOM     15  O   UNL     1      46.615   3.857  15.666  0.00  0.00    +0.000 OA
BRANCH  15  16
ATOM     16  C   UNL     1      47.099   3.544  14.355  0.00  0.00    +0.000 C 
BRANCH  16  17
ATOM     17  C   UNL     1      46.434   4.418  13.312  0.00  0.00    +0.000 A 
ATOM     18  C   UNL     1      46.929   5.712  13.081  0.00  0.00    +0.000 A 
ATOM     19  C   UNL     1      46.348   6.531  12.114  0.00  0.00    +0.000 A 
ATOM     20 CL   UNL     1      46.964   8.116  11.861  0.00  0.00    +0.000 Cl
ATOM     21  C   UNL     1      45.279   6.072  11.350  0.00  0.00    +0.000 A 
ATOM     22  C   UNL     1      44.776   4.779  11.547  0.00  0.00    +0.000 A 
ATOM     23  C   UNL     1      45.366   3.957  12.525  0.00  0.00    +0.000 A 
BRANCH  22  24
ATOM     24  C   UNL     1      43.618   4.264  10.726  0.00  0.00    +0.000 C 
ATOM     25  F   UNL     1      43.616   4.721   9.443  0.00  0.00    +0.000 F 
ATOM     26  F   UNL     1      43.609   2.905  10.636  0.00  0.00    +0.000 F 
ATOM     27  F   UNL     1      42.411   4.614  11.249  0.00  0.00    +0.000 F 
ENDBRANCH  22  24
ENDBRANCH  16  17
ENDBRANCH  15  16
ENDBRANCH   4  15
TORSDOF 5
ENDMDL
MODEL 8
REMARK VINA RESULT:    -6.455      2.393      2.957
REMARK INTER + INTRA:          -9.305
REMARK INTER:                  -8.644
REMARK INTRA:                  -0.661
REMARK UNBOUND:                -0.964
REMARK  Name = 
REMARK  5 active torsions:
REMARK  status: ('A' for Active; 'I' for Inactive)
REMARK    1  A    between atoms: C_4  and  O_5
REMARK    2  A    between atoms: O_5  and  C_6
REMARK    3  A    between atoms: C_6  and  C_7
REMARK    4  A    between atoms: C_12  and  C_13
REMARK    5  A    between atoms: C_19  and  C_20
REMARK                            x       y       z     vdW  Elec       q    Type
REMARK                         _______ _______ _______ _____ _____    ______ ____
ROOT
ATOM      1  F   UNL     1      48.372   8.119  11.413  0.00  0.00    +0.000 F 
ATOM      2  C   UNL     1      47.683   7.143  12.019  0.00  0.00    +0.000 A 
ATOM      3  C   UNL     1      48.151   6.629  13.223  0.00  0.00    +0.000 A 
ATOM      4  C   UNL     1      47.425   5.640  13.878  0.00  0.00    +0.000 A 
ATOM      5  C   UNL     1      46.256   5.149  13.285  0.00  0.00    +0.000 A 
ATOM      6  C   UNL     1      45.762   5.678  12.071  0.00  0.00    +0.000 A 
ATOM      7  C   UNL     1      46.494   6.692  11.444  0.00  0.00    +0.000 A 
ENDROOT
BRANCH   6   8
ATOM      8  C   UNL     1      44.430   5.166  11.538  0.00  0.00    +0.000 C 
ATOM      9  C   UNL     1      43.580   4.378  12.553  0.00  0.00    +0.000 C 
ATOM     10  C   UNL     1      43.578   2.860  12.375  0.00  0.00    +0.000 C 
ATOM     11  N   UNL     1      43.451   2.460  10.980  0.00  0.00    +0.000 NA
ATOM     12  C   UNL     1      44.594   2.960  10.222  0.00  0.00    +0.000 C 
ATOM     13  C   UNL     1      44.592   4.484  10.167  0.00  0.00    +0.000 C 
ATOM     14  H   UNL     1      42.587   2.837  10.588  0.00  0.00    +0.000 HD
ENDBRANCH   6   8
BRANCH   4  15
ATOM     15  O   UNL     1      47.932   5.231  15.083  0.00  0.00    +0.000 OA
BRANCH  15  16
ATOM     16  C   UNL     1      48.559   6.246  15.875  0.00  0.00    +0.000 C 
BRANCH  16  17
ATOM     17  C   UNL     1      49.043   5.679  17.194  0.00  0.00    +0.000 A 
ATOM     18  C   UNL     1      50.211   4.899  17.220  0.00  0.00    +0.000 A 
ATOM     19  C   UNL     1      50.690   4.381  18.422  0.00  0.00    +0.000 A 
ATOM     20 CL   UNL     1      52.115   3.418  18.426  0.00  0.00    +0.000 Cl
ATOM     21  C   UNL     1      50.027   4.641  19.618  0.00  0.00    +0.000 A 
ATOM     22  C   UNL     1      48.868   5.430  19.623  0.00  0.00    +0.000 A 
ATOM     23  C   UNL     1      48.389   5.951  18.406  0.00  0.00    +0.000 A 
BRANCH  22  24
ATOM     24  C   UNL     1      48.137   5.725  20.911  0.00  0.00    +0.000 C 
ATOM     25  F   UNL     1      46.795   5.893  20.748  0.00  0.00    +0.000 F 
ATOM     26  F   UNL     1      48.277   4.727  21.827  0.00  0.00    +0.000 F 
ATOM     27  F   UNL     1      48.583   6.858  21.517  0.00  0.00    +0.000 F 
ENDBRANCH  22  24
ENDBRANCH  16  17
ENDBRANCH  15  16
ENDBRANCH   4  15
TORSDOF 5
ENDMDL
MODEL 9
REMARK VINA RESULT:    -6.454      3.941      7.028
REMARK INTER + INTRA:          -9.305
REMARK INTER:                  -8.341
REMARK INTRA:                  -0.964
REMARK UNBOUND:                -0.964
REMARK  Name = 
REMARK  5 active torsions:
REMARK  status: ('A' for Active; 'I' for Inactive)
REMARK    1  A    between atoms: C_4  and  O_5
REMARK    2  A    between atoms: O_5  and  C_6
REMARK    3  A    between atoms: C_6  and  C_7
REMARK    4  A    between atoms: C_12  and  C_13
REMARK    5  A    between atoms: C_19  and  C_20
REMARK                            x       y       z     vdW  Elec       q    Type
REMARK                         _______ _______ _______ _____ _____    ______ ____
ROOT
ATOM      1  F   UNL     1      51.906   8.337  15.044  0.00  0.00    +0.000 F 
ATOM      2  C   UNL     1      50.715   7.743  14.887  0.00  0.00    +0.000 A 
ATOM      3  C   UNL     1      50.076   7.820  13.655  0.00  0.00    +0.000 A 
ATOM      4  C   UNL     1      48.856   7.178  13.471  0.00  0.00    +0.000 A 
ATOM      5  C   UNL     1      48.273   6.503  14.550  0.00  0.00    +0.000 A 
ATOM      6  C   UNL     1      48.923   6.404  15.801  0.00  0.00    +0.000 A 
ATOM      7  C   UNL     1      50.163   7.034  15.955  0.00  0.00    +0.000 A 
ENDROOT
BRANCH   6   8
ATOM      8  C   UNL     1      48.277   5.567  16.897  0.00  0.00    +0.000 C 
ATOM      9  C   UNL     1      49.221   5.142  18.039  0.00  0.00    +0.000 C 
ATOM     10  C   UNL     1      49.688   3.688  18.001  0.00  0.00    +0.000 C 
ATOM     11  N   UNL     1      48.611   2.761  17.677  0.00  0.00    +0.000 NA
ATOM     12  C   UNL     1      48.094   3.060  16.345  0.00  0.00    +0.000 C 
ATOM     13  C   UNL     1      47.422   4.428  16.310  0.00  0.00    +0.000 C 
ATOM     14  H   UNL     1      47.862   2.848  18.364  0.00  0.00    +0.000 HD
ENDBRANCH   6   8
BRANCH   4  15
ATOM     15  O   UNL     1      48.326   7.262  12.211  0.00  0.00    +0.000 OA
BRANCH  15  16
ATOM     16  C   UNL     1      46.979   7.743  12.129  0.00  0.00    +0.000 C 
BRANCH  16  17
ATOM     17  C   UNL     1      46.034   6.634  11.714  0.00  0.00    +0.000 A 
ATOM     18  C   UNL     1      44.966   6.289  12.557  0.00  0.00    +0.000 A 
ATOM     19  C   UNL     1      44.069   5.286  12.191  0.00  0.00    +0.000 A 
ATOM     20 CL   UNL     1      42.777   4.872  13.248  0.00  0.00    +0.000 Cl
ATOM     21  C   UNL     1      44.210   4.622  10.976  0.00  0.00    +0.000 A 
ATOM     22  C   UNL     1      45.258   4.958  10.107  0.00  0.00    +0.000 A 
ATOM     23  C   UNL     1      46.159   5.972  10.482  0.00  0.00    +0.000 A 
BRANCH  22  24
ATOM     24  C   UNL     1      45.425   4.249   8.785  0.00  0.00    +0.000 C 
ATOM     25  F   UNL     1      44.325   4.326   7.984  0.00  0.00    +0.000 F 
ATOM     26  F   UNL     1      46.454   4.756   8.050  0.00  0.00    +0.000 F 
ATOM     27  F   UNL     1      45.686   2.922   8.933  0.00  0.00    +0.000 F 
ENDBRANCH  22  24
ENDBRANCH  16  17
ENDBRANCH  15  16
ENDBRANCH   4  15
TORSDOF 5
ENDMDL
