MODEL 1
REMARK VINA RESULT:    -7.541      0.000      0.000
REMARK INTER + INTRA:         -12.084
REMARK INTER:                 -11.068
REMARK INTRA:                  -1.016
REMARK UNBOUND:                -1.016
REMARK  Name = 
REMARK  8 active torsions:
REMARK  status: ('A' for Active; 'I' for Inactive)
REMARK    1  A    between atoms: C_2  and  C_12
REMARK    2  A    between atoms: N_3  and  C_4
REMARK    3  A    between atoms: C_4  and  C_5
REMARK    4  A    between atoms: C_5  and  C_6
REMARK    5  A    between atoms: C_15  and  C_16
REMARK    6  A    between atoms: C_16  and  N_17
REMARK    7  A    between atoms: N_17  and  C_18
REMARK    8  A    between atoms: C_18  and  C_19
REMARK                            x       y       z     vdW  Elec       q    Type
REMARK                         _______ _______ _______ _____ _____    ______ ____
ROOT
ATOM      1  C   UNL     1      47.316   5.964  13.318  0.00  0.00    +0.000 A 
ATOM      2  C   UNL     1      46.748   4.787  13.813  0.00  0.00    +0.000 A 
ATOM      3  C   UNL     1      45.762   4.119  13.082  0.00  0.00    +0.000 A 
ATOM      4  C   UNL     1      45.336   4.611  11.839  0.00  0.00    +0.000 A 
ATOM      5  C   UNL     1      45.913   5.792  11.348  0.00  0.00    +0.000 A 
ATOM      6  C   UNL     1      46.896   6.468  12.082  0.00  0.00    +0.000 A 
ENDROOT
BRANCH   1   8
ATOM      7  O   UNL     1      49.470   6.886  13.574  0.00  0.00    +0.000 OA
ATOM      8  C   UNL     1      48.399   6.617  14.106  0.00  0.00    +0.000 C 
ATOM      9  N   UNL     1      48.126   6.864  15.437  0.00  0.00    +0.000 N 
ATOM     10  H   UNL     1      47.341   6.388  15.858  0.00  0.00    +0.000 HD
BRANCH   9  11
ATOM     11  C   UNL     1      49.157   7.418  16.305  0.00  0.00    +0.000 C 
BRANCH  11  12
ATOM     12  C   UNL     1      49.207   6.703  17.656  0.00  0.00    +0.000 C 
BRANCH  12  13
ATOM     13  C   UNL     1      48.885   5.232  17.564  0.00  0.00    +0.000 A 
ATOM     14  C   UNL     1      47.554   4.793  17.588  0.00  0.00    +0.000 A 
ATOM     15  C   UNL     1      47.254   3.435  17.465  0.00  0.00    +0.000 A 
ATOM     16  C   UNL     1      48.279   2.502  17.323  0.00  0.00    +0.000 A 
ATOM     17  C   UNL     1      49.607   2.926  17.318  0.00  0.00    +0.000 A 
ATOM     18  C   UNL     1      49.910   4.285  17.442  0.00  0.00    +0.000 A 
ENDBRANCH  12  13
ENDBRANCH  11  12
ENDBRANCH   9  11
ENDBRANCH   1   8
BRANCH   4  19
ATOM     19  C   UNL     1      44.331   3.839  11.012  0.00  0.00    +0.000 C 
BRANCH  19  20
ATOM     20  N   UNL     1      44.855   2.544  10.578  0.00  0.00    +0.000 NA
ATOM     21  H   UNL     1      44.414   1.808  11.131  0.00  0.00    +0.000 HD
BRANCH  20  22
ATOM     22  C   UNL     1      44.527   2.311   9.164  0.00  0.00    +0.000 C 
BRANCH  22  23
ATOM     23  C   UNL     1      45.762   2.064   8.324  0.00  0.00    +0.000 A 
ATOM     24  N   UNL     1      46.097   0.754   8.140  0.00  0.00    +0.000 NA
ATOM     25  C   UNL     1      47.189   0.507   7.399  0.00  0.00    +0.000 A 
ATOM     26  N   UNL     1      47.976   1.429   6.829  0.00  0.00    +0.000 NA
ATOM     27  C   UNL     1      47.617   2.713   7.047  0.00  0.00    +0.000 A 
ATOM     28  C   UNL     1      46.519   3.096   7.792  0.00  0.00    +0.000 A 
ATOM     29 CL   UNL     1      46.165   4.764   7.992  0.00  0.00    +0.000 Cl
ENDBRANCH  22  23
ENDBRANCH  20  22
ENDBRANCH  19  20
ENDBRANCH   4  19
TORSDOF 8
ENDMDL
MODEL 2
REMARK VINA RESULT:    -7.500      3.024      8.753
REMARK INTER + INTRA:         -12.024
REMARK INTER:                 -11.076
REMARK INTRA:                  -0.948
REMARK UNBOUND:                -1.016
REMARK  Name = 
REMARK  8 active torsions:
REMARK  status: ('A' for Active; 'I' for Inactive)
REMARK    1  A    between atoms: C_2  and  C_12
REMARK    2  A    between atoms: N_3  and  C_4
REMARK    3  A    between atoms: C_4  and  C_5
REMARK    4  A    between atoms: C_5  and  C_6
REMARK    5  A    between atoms: C_15  and  C_16
REMARK    6  A    between atoms: C_16  and  N_17
REMARK    7  A    between atoms: N_17  and  C_18
REMARK    8  A    between atoms: C_18  and  C_19
REMARK                            x       y       z     vdW  Elec       q    Type
REMARK                         _______ _______ _______ _____ _____    ______ ____
ROOT
ATOM      1  C   UNL     1      46.559   5.343  12.637  0.00  0.00    +0.000 A 
ATOM      2  C   UNL     1      46.340   4.492  13.724  0.00  0.00    +0.000 A 
ATOM      3  C   UNL     1      47.013   4.703  14.930  0.00  0.00    +0.000 A 
ATOM      4  C   UNL     1      47.907   5.775  15.073  0.00  0.00    +0.000 A 
ATOM      5  C   UNL     1      48.119   6.626  13.977  0.00  0.00    +0.000 A 
ATOM      6  C   UNL     1      47.452   6.413  12.765  0.00  0.00    +0.000 A 
ENDROOT
BRANCH   1   8
ATOM      7  O   UNL     1      45.854   5.913  10.462  0.00  0.00    +0.000 OA
ATOM      8  C   UNL     1      45.784   5.112  11.386  0.00  0.00    +0.000 C 
ATOM      9  N   UNL     1      44.989   3.982  11.356  0.00  0.00    +0.000 N 
ATOM     10  H   UNL     1      44.784   3.521  12.232  0.00  0.00    +0.000 HD
BRANCH   9  11
ATOM     11  C   UNL     1      44.129   3.722  10.210  0.00  0.00    +0.000 C 
BRANCH  11  12
ATOM     12  C   UNL     1      44.424   2.364   9.573  0.00  0.00    +0.000 C 
BRANCH  12  13
ATOM     13  C   UNL     1      45.462   2.431   8.480  0.00  0.00    +0.000 A 
ATOM     14  C   UNL     1      45.651   3.613   7.751  0.00  0.00    +0.000 A 
ATOM     15  C   UNL     1      46.637   3.687   6.765  0.00  0.00    +0.000 A 
ATOM     16  C   UNL     1      47.438   2.581   6.493  0.00  0.00    +0.000 A 
ATOM     17  C   UNL     1      47.244   1.394   7.197  0.00  0.00    +0.000 A 
ATOM     18  C   UNL     1      46.258   1.317   8.184  0.00  0.00    +0.000 A 
ENDBRANCH  12  13
ENDBRANCH  11  12
ENDBRANCH   9  11
ENDBRANCH   1   8
BRANCH   4  19
ATOM     19  C   UNL     1      48.567   6.051  16.406  0.00  0.00    +0.000 C 
BRANCH  19  20
ATOM     20  N   UNL     1      49.877   5.409  16.514  0.00  0.00    +0.000 NA
ATOM     21  H   UNL     1      50.603   6.117  16.395  0.00  0.00    +0.000 HD
BRANCH  20  22
ATOM     22  C   UNL     1      50.041   4.808  17.845  0.00  0.00    +0.000 C 
BRANCH  22  23
ATOM     23  C   UNL     1      50.914   3.570  17.810  0.00  0.00    +0.000 A 
ATOM     24  N   UNL     1      52.173   3.724  18.312  0.00  0.00    +0.000 NA
ATOM     25  C   UNL     1      52.967   2.641  18.292  0.00  0.00    +0.000 A 
ATOM     26  N   UNL     1      52.635   1.431  17.823  0.00  0.00    +0.000 NA
ATOM     27  C   UNL     1      51.384   1.327  17.323  0.00  0.00    +0.000 A 
ATOM     28  C   UNL     1      50.475   2.365  17.284  0.00  0.00    +0.000 A 
ATOM     29 CL   UNL     1      48.911   2.104  16.626  0.00  0.00    +0.000 Cl
ENDBRANCH  22  23
ENDBRANCH  20  22
ENDBRANCH  19  20
ENDBRANCH   4  19
TORSDOF 8
ENDMDL
MODEL 3
REMARK VINA RESULT:    -7.443      3.111      8.650
REMARK INTER + INTRA:         -11.940
REMARK INTER:                 -11.061
REMARK INTRA:                  -0.879
REMARK UNBOUND:                -1.016
REMARK  Name = 
REMARK  8 active torsions:
REMARK  status: ('A' for Active; 'I' for Inactive)
REMARK    1  A    between atoms: C_2  and  C_12
REMARK    2  A    between atoms: N_3  and  C_4
REMARK    3  A    between atoms: C_4  and  C_5
REMARK    4  A    between atoms: C_5  and  C_6
REMARK    5  A    between atoms: C_15  and  C_16
REMARK    6  A    between atoms: C_16  and  N_17
REMARK    7  A    between atoms: N_17  and  C_18
REMARK    8  A    between atoms: C_18  and  C_19
REMARK                            x       y       z     vdW  Elec       q    Type
REMARK                         _______ _______ _______ _____ _____    ______ ____
ROOT
ATOM      1  C   UNL     1      46.469   5.707  12.194  0.00  0.00    +0.000 A 
ATOM      2  C   UNL     1      47.175   6.913  12.217  0.00  0.00    +0.000 A 
ATOM      3  C   UNL     1      47.916   7.275  13.345  0.00  0.00    +0.000 A 
ATOM      4  C   UNL     1      47.972   6.431  14.465  0.00  0.00    +0.000 A 
ATOM      5  C   UNL     1      47.262   5.221  14.433  0.00  0.00    +0.000 A 
ATOM      6  C   UNL     1      46.513   4.859  13.307  0.00  0.00    +0.000 A 
ENDROOT
BRANCH   1   8
ATOM      7  O   UNL     1      45.861   6.010   9.938  0.00  0.00    +0.000 OA
ATOM      8  C   UNL     1      45.734   5.336  10.953  0.00  0.00    +0.000 C 
ATOM      9  N   UNL     1      44.907   4.233  11.036  0.00  0.00    +0.000 N 
ATOM     10  H   UNL     1      44.657   3.893  11.954  0.00  0.00    +0.000 HD
BRANCH   9  11
ATOM     11  C   UNL     1      44.082   3.849   9.898  0.00  0.00    +0.000 C 
BRANCH  11  12
ATOM     12  C   UNL     1      44.419   2.444   9.399  0.00  0.00    +0.000 C 
BRANCH  12  13
ATOM     13  C   UNL     1      45.510   2.428   8.357  0.00  0.00    +0.000 A 
ATOM     14  C   UNL     1      46.299   1.285   8.170  0.00  0.00    +0.000 A 
ATOM     15  C   UNL     1      47.283   1.257   7.180  0.00  0.00    +0.000 A 
ATOM     16  C   UNL     1      47.495   2.373   6.373  0.00  0.00    +0.000 A 
ATOM     17  C   UNL     1      46.731   3.523   6.564  0.00  0.00    +0.000 A 
ATOM     18  C   UNL     1      45.745   3.553   7.554  0.00  0.00    +0.000 A 
ENDBRANCH  12  13
ENDBRANCH  11  12
ENDBRANCH   9  11
ENDBRANCH   1   8
BRANCH   4  19
ATOM     19  C   UNL     1      48.843   6.786  15.649  0.00  0.00    +0.000 C 
BRANCH  19  20
ATOM     20  N   UNL     1      48.384   6.146  16.882  0.00  0.00    +0.000 NA
ATOM     21  H   UNL     1      47.842   5.316  16.640  0.00  0.00    +0.000 HD
BRANCH  20  22
ATOM     22  C   UNL     1      49.533   5.722  17.694  0.00  0.00    +0.000 C 
BRANCH  22  23
ATOM     23  C   UNL     1      49.908   4.277  17.442  0.00  0.00    +0.000 A 
ATOM     24  N   UNL     1      48.909   3.484  16.958  0.00  0.00    +0.000 NA
ATOM     25  C   UNL     1      49.216   2.197  16.727  0.00  0.00    +0.000 A 
ATOM     26  N   UNL     1      50.410   1.626  16.931  0.00  0.00    +0.000 NA
ATOM     27  C   UNL     1      51.367   2.443  17.424  0.00  0.00    +0.000 A 
ATOM     28  C   UNL     1      51.176   3.781  17.705  0.00  0.00    +0.000 A 
ATOM     29 CL   UNL     1      52.476   4.715  18.324  0.00  0.00    +0.000 Cl
ENDBRANCH  22  23
ENDBRANCH  20  22
ENDBRANCH  19  20
ENDBRANCH   4  19
TORSDOF 8
ENDMDL
MODEL 4
REMARK VINA RESULT:    -7.427      2.975      8.909
REMARK INTER + INTRA:         -11.916
REMARK INTER:                 -11.065
REMARK INTRA:                  -0.852
REMARK UNBOUND:                -1.016
REMARK  Name = 
REMARK  8 active torsions:
REMARK  status: ('A' for Active; 'I' for Inactive)
REMARK    1  A    between atoms: C_2  and  C_12
REMARK    2  A    between atoms: N_3  and  C_4
REMARK    3  A    between atoms: C_4  and  C_5
REMARK    4  A    between atoms: C_5  and  C_6
REMARK    5  A    between atoms: C_15  and  C_16
REMARK    6  A    between atoms: C_16  and  N_17
REMARK    7  A    between atoms: N_17  and  C_18
REMARK    8  A    between atoms: C_18  and  C_19
REMARK                            x       y       z     vdW  Elec       q    Type
REMARK                         _______ _______ _______ _____ _____    ______ ____
ROOT
ATOM      1  C   UNL     1      45.999   4.904  12.648  0.00  0.00    +0.000 A 
ATOM      2  C   UNL     1      46.383   6.120  12.077  0.00  0.00    +0.000 A 
ATOM      3  C   UNL     1      47.284   6.957  12.741  0.00  0.00    +0.000 A 
ATOM      4  C   UNL     1      47.823   6.587  13.982  0.00  0.00    +0.000 A 
ATOM      5  C   UNL     1      47.433   5.363  14.549  0.00  0.00    +0.000 A 
ATOM      6  C   UNL     1      46.526   4.525  13.889  0.00  0.00    +0.000 A 
ENDROOT
BRANCH   1   8
ATOM      7  O   UNL     1      44.425   3.159  12.464  0.00  0.00    +0.000 OA
ATOM      8  C   UNL     1      45.077   4.019  11.883  0.00  0.00    +0.000 C 
ATOM      9  N   UNL     1      45.031   4.214  10.517  0.00  0.00    +0.000 N 
ATOM     10  H   UNL     1      45.773   4.750  10.088  0.00  0.00    +0.000 HD
BRANCH   9  11
ATOM     11  C   UNL     1      44.225   3.338   9.678  0.00  0.00    +0.000 C 
BRANCH  11  12
ATOM     12  C   UNL     1      44.959   2.040   9.340  0.00  0.00    +0.000 C 
BRANCH  12  13
ATOM     13  C   UNL     1      45.839   2.154   8.120  0.00  0.00    +0.000 A 
ATOM     14  C   UNL     1      45.820   3.315   7.335  0.00  0.00    +0.000 A 
ATOM     15  C   UNL     1      46.662   3.435   6.228  0.00  0.00    +0.000 A 
ATOM     16  C   UNL     1      47.525   2.395   5.889  0.00  0.00    +0.000 A 
ATOM     17  C   UNL     1      47.536   1.227   6.650  0.00  0.00    +0.000 A 
ATOM     18  C   UNL     1      46.695   1.104   7.759  0.00  0.00    +0.000 A 
ENDBRANCH  12  13
ENDBRANCH  11  12
ENDBRANCH   9  11
ENDBRANCH   1   8
BRANCH   4  19
ATOM     19  C   UNL     1      48.861   7.455  14.657  0.00  0.00    +0.000 C 
BRANCH  19  20
ATOM     20  N   UNL     1      50.116   6.738  14.885  0.00  0.00    +0.000 NA
ATOM     21  H   UNL     1      50.852   7.177  14.330  0.00  0.00    +0.000 HD
BRANCH  20  22
ATOM     22  C   UNL     1      50.500   6.820  16.301  0.00  0.00    +0.000 C 
BRANCH  22  23
ATOM     23  C   UNL     1      49.786   5.788  17.148  0.00  0.00    +0.000 A 
ATOM     24  N   UNL     1      50.197   4.499  16.976  0.00  0.00    +0.000 NA
ATOM     25  C   UNL     1      49.579   3.563  17.716  0.00  0.00    +0.000 A 
ATOM     26  N   UNL     1      48.598   3.784  18.601  0.00  0.00    +0.000 NA
ATOM     27  C   UNL     1      48.212   5.072  18.730  0.00  0.00    +0.000 A 
ATOM     28  C   UNL     1      48.766   6.122  18.026  0.00  0.00    +0.000 A 
ATOM     29 CL   UNL     1      48.191   7.719  18.284  0.00  0.00    +0.000 Cl
ENDBRANCH  22  23
ENDBRANCH  20  22
ENDBRANCH  19  20
ENDBRANCH   4  19
TORSDOF 8
ENDMDL
MODEL 5
REMARK VINA RESULT:    -7.335      3.636      9.551
REMARK INTER + INTRA:         -11.782
REMARK INTER:                 -11.051
REMARK INTRA:                  -0.731
REMARK UNBOUND:                -1.016
REMARK  Name = 
REMARK  8 active torsions:
REMARK  status: ('A' for Active; 'I' for Inactive)
REMARK    1  A    between atoms: C_2  and  C_12
REMARK    2  A    between atoms: N_3  and  C_4
REMARK    3  A    between atoms: C_4  and  C_5
REMARK    4  A    between atoms: C_5  and  C_6
REMARK    5  A    between atoms: C_15  and  C_16
REMARK    6  A    between atoms: C_16  and  N_17
REMARK    7  A    between atoms: N_17  and  C_18
REMARK    8  A    between atoms: C_18  and  C_19
REMARK                            x       y       z     vdW  Elec       q    Type
REMARK                         _______ _______ _______ _____ _____    ______ ____
ROOT
ATOM      1  C   UNL     1      45.101   2.784   9.014  0.00  0.00    +0.000 A 
ATOM      2  C   UNL     1      44.542   2.211  10.159  0.00  0.00    +0.000 A 
ATOM      3  C   UNL     1      43.743   2.977  11.012  0.00  0.00    +0.000 A 
ATOM      4  C   UNL     1      43.481   4.326  10.727  0.00  0.00    +0.000 A 
ATOM      5  C   UNL     1      44.044   4.893   9.573  0.00  0.00    +0.000 A 
ATOM      6  C   UNL     1      44.851   4.130   8.721  0.00  0.00    +0.000 A 
ENDROOT
BRANCH   1   8
ATOM      7  O   UNL     1      46.038   0.726   8.350  0.00  0.00    +0.000 OA
ATOM      8  C   UNL     1      45.905   1.919   8.105  0.00  0.00    +0.000 C 
ATOM      9  N   UNL     1      46.488   2.543   7.021  0.00  0.00    +0.000 N 
ATOM     10  H   UNL     1      46.551   3.552   7.028  0.00  0.00    +0.000 HD
BRANCH   9  11
ATOM     11  C   UNL     1      47.364   1.794   6.128  0.00  0.00    +0.000 C 
BRANCH  11  12
ATOM     12  C   UNL     1      47.050   2.073   4.658  0.00  0.00    +0.000 C 
BRANCH  12  13
ATOM     13  C   UNL     1      46.646   0.838   3.891  0.00  0.00    +0.000 A 
ATOM     14  C   UNL     1      47.092  -0.428   4.295  0.00  0.00    +0.000 A 
ATOM     15  C   UNL     1      46.687  -1.574   3.608  0.00  0.00    +0.000 A 
ATOM     16  C   UNL     1      45.840  -1.467   2.508  0.00  0.00    +0.000 A 
ATOM     17  C   UNL     1      45.407  -0.212   2.085  0.00  0.00    +0.000 A 
ATOM     18  C   UNL     1      45.810   0.937   2.771  0.00  0.00    +0.000 A 
ENDBRANCH  12  13
ENDBRANCH  11  12
ENDBRANCH   9  11
ENDBRANCH   1   8
BRANCH   4  19
ATOM     19  C   UNL     1      42.547   5.128  11.606  0.00  0.00    +0.000 C 
BRANCH  19  20
ATOM     20  N   UNL     1      43.263   6.117  12.412  0.00  0.00    +0.000 NA
ATOM     21  H   UNL     1      42.608   6.544  13.068  0.00  0.00    +0.000 HD
BRANCH  20  22
ATOM     22  C   UNL     1      44.329   5.467  13.187  0.00  0.00    +0.000 C 
BRANCH  22  23
ATOM     23  C   UNL     1      45.676   6.123  12.969  0.00  0.00    +0.000 A 
ATOM     24  N   UNL     1      45.638   7.411  12.523  0.00  0.00    +0.000 NA
ATOM     25  C   UNL     1      46.820   8.016  12.321  0.00  0.00    +0.000 A 
ATOM     26  N   UNL     1      48.026   7.468  12.517  0.00  0.00    +0.000 NA
ATOM     27  C   UNL     1      48.018   6.187  12.947  0.00  0.00    +0.000 A 
ATOM     28  C   UNL     1      46.872   5.457  13.188  0.00  0.00    +0.000 A 
ATOM     29 CL   UNL     1      46.994   3.835  13.738  0.00  0.00    +0.000 Cl
ENDBRANCH  22  23
ENDBRANCH  20  22
ENDBRANCH  19  20
ENDBRANCH   4  19
TORSDOF 8
ENDMDL
MODEL 6
REMARK VINA RESULT:    -7.275      3.650     10.121
REMARK INTER + INTRA:         -11.693
REMARK INTER:                 -10.963
REMARK INTRA:                  -0.730
REMARK UNBOUND:                -1.016
REMARK  Name = 
REMARK  8 active torsions:
REMARK  status: ('A' for Active; 'I' for Inactive)
REMARK    1  A    between atoms: C_2  and  C_12
REMARK    2  A    between atoms: N_3  and  C_4
REMARK    3  A    between atoms: C_4  and  C_5
REMARK    4  A    between atoms: C_5  and  C_6
REMARK    5  A    between atoms: C_15  and  C_16
REMARK    6  A    between atoms: C_16  and  N_17
REMARK    7  A    between atoms: N_17  and  C_18
REMARK    8  A    between atoms: C_18  and  C_19
REMARK                            x       y       z     vdW  Elec       q    Type
REMARK                         _______ _______ _______ _____ _____    ______ ____
ROOT
ATOM      1  C   UNL     1      46.439   2.516   7.536  0.00  0.00    +0.000 A 
ATOM      2  C   UNL     1      45.712   1.660   8.369  0.00  0.00    +0.000 A 
ATOM      3  C   UNL     1      44.841   2.184   9.328  0.00  0.00    +0.000 A 
ATOM      4  C   UNL     1      44.676   3.571   9.464  0.00  0.00    +0.000 A 
ATOM      5  C   UNL     1      45.409   4.422   8.622  0.00  0.00    +0.000 A 
ATOM      6  C   UNL     1      46.287   3.901   7.665  0.00  0.00    +0.000 A 
ENDROOT
BRANCH   1   8
ATOM      7  O   UNL     1      48.536   1.978   6.604  0.00  0.00    +0.000 OA
ATOM      8  C   UNL     1      47.318   1.915   6.493  0.00  0.00    +0.000 C 
ATOM      9  N   UNL     1      46.680   1.327   5.418  0.00  0.00    +0.000 N 
ATOM     10  H   UNL     1      45.703   1.541   5.269  0.00  0.00    +0.000 HD
BRANCH   9  11
ATOM     11  C   UNL     1      47.457   0.793   4.308  0.00  0.00    +0.000 C 
BRANCH  11  12
ATOM     12  C   UNL     1      46.585   0.005   3.331  0.00  0.00    +0.000 C 
BRANCH  12  13
ATOM     13  C   UNL     1      47.052  -1.415   3.127  0.00  0.00    +0.000 A 
ATOM     14  C   UNL     1      48.063  -1.706   2.201  0.00  0.00    +0.000 A 
ATOM     15  C   UNL     1      48.522  -3.015   2.041  0.00  0.00    +0.000 A 
ATOM     16  C   UNL     1      47.971  -4.047   2.797  0.00  0.00    +0.000 A 
ATOM     17  C   UNL     1      46.951  -3.772   3.706  0.00  0.00    +0.000 A 
ATOM     18  C   UNL     1      46.490  -2.463   3.869  0.00  0.00    +0.000 A 
ENDBRANCH  12  13
ENDBRANCH  11  12
ENDBRANCH   9  11
ENDBRANCH   1   8
BRANCH   4  19
ATOM     19  C   UNL     1      43.670   4.131  10.445  0.00  0.00    +0.000 C 
BRANCH  19  20
ATOM     20  N   UNL     1      43.699   3.426  11.726  0.00  0.00    +0.000 NA
ATOM     21  H   UNL     1      44.546   2.858  11.771  0.00  0.00    +0.000 HD
BRANCH  20  22
ATOM     22  C   UNL     1      43.734   4.388  12.836  0.00  0.00    +0.000 C 
BRANCH  22  23
ATOM     23  C   UNL     1      45.146   4.816  13.177  0.00  0.00    +0.000 A 
ATOM     24  N   UNL     1      45.880   3.912  13.887  0.00  0.00    +0.000 NA
ATOM     25  C   UNL     1      47.136   4.268  14.203  0.00  0.00    +0.000 A 
ATOM     26  N   UNL     1      47.727   5.427  13.886  0.00  0.00    +0.000 NA
ATOM     27  C   UNL     1      46.960   6.299  13.195  0.00  0.00    +0.000 A 
ATOM     28  C   UNL     1      45.657   6.052  12.814  0.00  0.00    +0.000 A 
ATOM     29 CL   UNL     1      44.787   7.241  11.931  0.00  0.00    +0.000 Cl
ENDBRANCH  22  23
ENDBRANCH  20  22
ENDBRANCH  19  20
ENDBRANCH   4  19
TORSDOF 8
ENDMDL
MODEL 7
REMARK VINA RESULT:    -7.126      3.791      6.252
REMARK INTER + INTRA:         -11.475
REMARK INTER:                 -10.765
REMARK INTRA:                  -0.711
REMARK UNBOUND:                -1.016
REMARK  Name = 
REMARK  8 active torsions:
REMARK  status: ('A' for Active; 'I' for Inactive)
REMARK    1  A    between atoms: C_2  and  C_12
REMARK    2  A    between atoms: N_3  and  C_4
REMARK    3  A    between atoms: C_4  and  C_5
REMARK    4  A    between atoms: C_5  and  C_6
REMARK    5  A    between atoms: C_15  and  C_16
REMARK    6  A    between atoms: C_16  and  N_17
REMARK    7  A    between atoms: N_17  and  C_18
REMARK    8  A    between atoms: C_18  and  C_19
REMARK                            x       y       z     vdW  Elec       q    Type
REMARK                         _______ _______ _______ _____ _____    ______ ____
ROOT
ATOM      1  C   UNL     1      45.169   3.197   9.124  0.00  0.00    +0.000 A 
ATOM      2  C   UNL     1      45.802   4.308   8.559  0.00  0.00    +0.000 A 
ATOM      3  C   UNL     1      46.779   4.137   7.576  0.00  0.00    +0.000 A 
ATOM      4  C   UNL     1      47.132   2.854   7.132  0.00  0.00    +0.000 A 
ATOM      5  C   UNL     1      46.491   1.743   7.703  0.00  0.00    +0.000 A 
ATOM      6  C   UNL     1      45.516   1.911   8.695  0.00  0.00    +0.000 A 
ENDROOT
BRANCH   1   8
ATOM      7  O   UNL     1      43.537   2.473  10.663  0.00  0.00    +0.000 OA
ATOM      8  C   UNL     1      44.097   3.425  10.133  0.00  0.00    +0.000 C 
ATOM      9  N   UNL     1      43.776   4.742  10.399  0.00  0.00    +0.000 N 
ATOM     10  H   UNL     1      44.089   5.449   9.748  0.00  0.00    +0.000 HD
BRANCH   9  11
ATOM     11  C   UNL     1      42.680   5.060  11.306  0.00  0.00    +0.000 C 
BRANCH  11  12
ATOM     12  C   UNL     1      43.180   5.359  12.719  0.00  0.00    +0.000 C 
BRANCH  12  13
ATOM     13  C   UNL     1      44.624   5.796  12.760  0.00  0.00    +0.000 A 
ATOM     14  C   UNL     1      45.616   4.931  13.241  0.00  0.00    +0.000 A 
ATOM     15  C   UNL     1      46.956   5.322  13.243  0.00  0.00    +0.000 A 
ATOM     16  C   UNL     1      47.318   6.582  12.773  0.00  0.00    +0.000 A 
ATOM     17  C   UNL     1      46.337   7.458  12.311  0.00  0.00    +0.000 A 
ATOM     18  C   UNL     1      44.995   7.070  12.308  0.00  0.00    +0.000 A 
ENDBRANCH  12  13
ENDBRANCH  11  12
ENDBRANCH   9  11
ENDBRANCH   1   8
BRANCH   4  19
ATOM     19  C   UNL     1      48.129   2.678   6.008  0.00  0.00    +0.000 C 
BRANCH  19  20
ATOM     20  N   UNL     1      47.986   1.382   5.344  0.00  0.00    +0.000 NA
ATOM     21  H   UNL     1      47.625   0.704   6.016  0.00  0.00    +0.000 HD
BRANCH  20  22
ATOM     22  C   UNL     1      47.026   1.481   4.236  0.00  0.00    +0.000 C 
BRANCH  22  23
ATOM     23  C   UNL     1      46.661   0.124   3.672  0.00  0.00    +0.000 A 
ATOM     24  N   UNL     1      47.376  -0.929   4.163  0.00  0.00    +0.000 NA
ATOM     25  C   UNL     1      47.072  -2.145   3.679  0.00  0.00    +0.000 A 
ATOM     26  N   UNL     1      46.134  -2.412   2.761  0.00  0.00    +0.000 NA
ATOM     27  C   UNL     1      45.459  -1.340   2.292  0.00  0.00    +0.000 A 
ATOM     28  C   UNL     1      45.680  -0.042   2.707  0.00  0.00    +0.000 A 
ATOM     29 CL   UNL     1      44.750   1.237   2.037  0.00  0.00    +0.000 Cl
ENDBRANCH  22  23
ENDBRANCH  20  22
ENDBRANCH  19  20
ENDBRANCH   4  19
TORSDOF 8
ENDMDL
MODEL 8
REMARK VINA RESULT:    -6.955      3.149      9.433
REMARK INTER + INTRA:         -11.223
REMARK INTER:                 -10.398
REMARK INTRA:                  -0.825
REMARK UNBOUND:                -1.016
REMARK  Name = 
REMARK  8 active torsions:
REMARK  status: ('A' for Active; 'I' for Inactive)
REMARK    1  A    between atoms: C_2  and  C_12
REMARK    2  A    between atoms: N_3  and  C_4
REMARK    3  A    between atoms: C_4  and  C_5
REMARK    4  A    between atoms: C_5  and  C_6
REMARK    5  A    between atoms: C_15  and  C_16
REMARK    6  A    between atoms: C_16  and  N_17
REMARK    7  A    between atoms: N_17  and  C_18
REMARK    8  A    between atoms: C_18  and  C_19
REMARK                            x       y       z     vdW  Elec       q    Type
REMARK                         _______ _______ _______ _____ _____    ______ ____
ROOT
ATOM      1  C   UNL     1      45.440   6.625  11.931  0.00  0.00    +0.000 A 
ATOM      2  C   UNL     1      45.103   7.943  12.256  0.00  0.00    +0.000 A 
ATOM      3  C   UNL     1      45.949   8.706  13.065  0.00  0.00    +0.000 A 
ATOM      4  C   UNL     1      47.150   8.170  13.552  0.00  0.00    +0.000 A 
ATOM      5  C   UNL     1      47.481   6.847  13.219  0.00  0.00    +0.000 A 
ATOM      6  C   UNL     1      46.633   6.077  12.415  0.00  0.00    +0.000 A 
ENDROOT
BRANCH   1   8
ATOM      7  O   UNL     1      43.321   5.913  11.183  0.00  0.00    +0.000 OA
ATOM      8  C   UNL     1      44.535   5.863  11.025  0.00  0.00    +0.000 C 
ATOM      9  N   UNL     1      45.145   5.104  10.045  0.00  0.00    +0.000 N 
ATOM     10  H   UNL     1      46.133   4.910  10.139  0.00  0.00    +0.000 HD
BRANCH   9  11
ATOM     11  C   UNL     1      44.345   4.258   9.170  0.00  0.00    +0.000 C 
BRANCH  11  12
ATOM     12  C   UNL     1      44.818   2.804   9.197  0.00  0.00    +0.000 C 
BRANCH  12  13
ATOM     13  C   UNL     1      45.759   2.464   8.068  0.00  0.00    +0.000 A 
ATOM     14  C   UNL     1      45.980   3.376   7.026  0.00  0.00    +0.000 A 
ATOM     15  C   UNL     1      46.880   3.076   6.001  0.00  0.00    +0.000 A 
ATOM     16  C   UNL     1      47.562   1.861   6.002  0.00  0.00    +0.000 A 
ATOM     17  C   UNL     1      47.334   0.938   7.022  0.00  0.00    +0.000 A 
ATOM     18  C   UNL     1      46.434   1.236   8.049  0.00  0.00    +0.000 A 
ENDBRANCH  12  13
ENDBRANCH  11  12
ENDBRANCH   9  11
ENDBRANCH   1   8
BRANCH   4  19
ATOM     19  C   UNL     1      48.102   9.027  14.356  0.00  0.00    +0.000 C 
BRANCH  19  20
ATOM     20  N   UNL     1      47.689   9.147  15.754  0.00  0.00    +0.000 NA
ATOM     21  H   UNL     1      46.951   8.467  15.940  0.00  0.00    +0.000 HD
BRANCH  20  22
ATOM     22  C   UNL     1      48.818   8.851  16.646  0.00  0.00    +0.000 C 
BRANCH  22  23
ATOM     23  C   UNL     1      48.408   7.988  17.821  0.00  0.00    +0.000 A 
ATOM     24  N   UNL     1      48.036   8.663  18.946  0.00  0.00    +0.000 NA
ATOM     25  C   UNL     1      47.668   7.920  20.003  0.00  0.00    +0.000 A 
ATOM     26  N   UNL     1      47.636   6.582  20.049  0.00  0.00    +0.000 NA
ATOM     27  C   UNL     1      48.025   5.953  18.918  0.00  0.00    +0.000 A 
ATOM     28  C   UNL     1      48.427   6.602  17.769  0.00  0.00    +0.000 A 
ATOM     29 CL   UNL     1      48.894   5.688  16.392  0.00  0.00    +0.000 Cl
ENDBRANCH  22  23
ENDBRANCH  20  22
ENDBRANCH  19  20
ENDBRANCH   4  19
TORSDOF 8
ENDMDL
MODEL 9
REMARK VINA RESULT:    -6.671      2.919      9.425
REMARK INTER + INTRA:         -10.806
REMARK INTER:                 -10.003
REMARK INTRA:                  -0.804
REMARK UNBOUND:                -1.016
REMARK  Name = 
REMARK  8 active torsions:
REMARK  status: ('A' for Active; 'I' for Inactive)
REMARK    1  A    between atoms: C_2  and  C_12
REMARK    2  A    between atoms: N_3  and  C_4
REMARK    3  A    between atoms: C_4  and  C_5
REMARK    4  A    between atoms: C_5  and  C_6
REMARK    5  A    between atoms: C_15  and  C_16
REMARK    6  A    between atoms: C_16  and  N_17
REMARK    7  A    between atoms: N_17  and  C_18
REMARK    8  A    between atoms: C_18  and  C_19
REMARK                            x       y       z     vdW  Elec       q    Type
REMARK                         _______ _______ _______ _____ _____    ______ ____
ROOT
ATOM      1  C   UNL     1      46.312   5.729  12.142  0.00  0.00    +0.000 A 
ATOM      2  C   UNL     1      46.985   6.947  12.007  0.00  0.00    +0.000 A 
ATOM      3  C   UNL     1      47.836   7.397  13.020  0.00  0.00    +0.000 A 
ATOM      4  C   UNL     1      48.038   6.631  14.178  0.00  0.00    +0.000 A 
ATOM      5  C   UNL     1      47.360   5.409  14.305  0.00  0.00    +0.000 A 
ATOM      6  C   UNL     1      46.501   4.958  13.295  0.00  0.00    +0.000 A 
ENDROOT
BRANCH   1   8
ATOM      7  O   UNL     1      45.144   6.035  10.118  0.00  0.00    +0.000 OA
ATOM      8  C   UNL     1      45.454   5.263  11.017  0.00  0.00    +0.000 C 
ATOM      9  N   UNL     1      45.027   3.950  11.075  0.00  0.00    +0.000 N 
ATOM     10  H   UNL     1      45.103   3.463  11.957  0.00  0.00    +0.000 HD
BRANCH   9  11
ATOM     11  C   UNL     1      44.112   3.433  10.065  0.00  0.00    +0.000 C 
BRANCH  11  12
ATOM     12  C   UNL     1      44.589   2.096   9.498  0.00  0.00    +0.000 C 
BRANCH  12  13
ATOM     13  C   UNL     1      45.616   2.245   8.403  0.00  0.00    +0.000 A 
ATOM     14  C   UNL     1      46.449   1.172   8.058  0.00  0.00    +0.000 A 
ATOM     15  C   UNL     1      47.373   1.299   7.019  0.00  0.00    +0.000 A 
ATOM     16  C   UNL     1      47.481   2.500   6.321  0.00  0.00    +0.000 A 
ATOM     17  C   UNL     1      46.672   3.580   6.670  0.00  0.00    +0.000 A 
ATOM     18  C   UNL     1      45.746   3.456   7.709  0.00  0.00    +0.000 A 
ENDBRANCH  12  13
ENDBRANCH  11  12
ENDBRANCH   9  11
ENDBRANCH   1   8
BRANCH   4  19
ATOM     19  C   UNL     1      49.025   7.081  15.233  0.00  0.00    +0.000 C 
BRANCH  19  20
ATOM     20  N   UNL     1      48.543   6.815  16.588  0.00  0.00    +0.000 NA
ATOM     21  H   UNL     1      47.958   5.979  16.572  0.00  0.00    +0.000 HD
BRANCH  20  22
ATOM     22  C   UNL     1      49.674   6.564  17.491  0.00  0.00    +0.000 C 
BRANCH  22  23
ATOM     23  C   UNL     1      49.248   5.854  18.759  0.00  0.00    +0.000 A 
ATOM     24  N   UNL     1      49.131   6.644  19.865  0.00  0.00    +0.000 NA
ATOM     25  C   UNL     1      48.754   6.039  21.003  0.00  0.00    +0.000 A 
ATOM     26  N   UNL     1      48.487   4.734  21.147  0.00  0.00    +0.000 NA
ATOM     27  C   UNL     1      48.628   3.987  20.031  0.00  0.00    +0.000 A 
ATOM     28  C   UNL     1      49.011   4.489  18.803  0.00  0.00    +0.000 A 
ATOM     29 CL   UNL     1      49.150   3.434  17.456  0.00  0.00    +0.000 Cl
ENDBRANCH  22  23
ENDBRANCH  20  22
ENDBRANCH  19  20
ENDBRANCH   4  19
TORSDOF 8
ENDMDL
