MODEL 1
REMARK VINA RESULT:    -8.062      0.000      0.000
REMARK INTER + INTRA:          -9.942
REMARK INTER:                  -9.712
REMARK INTRA:                  -0.230
REMARK UNBOUND:                -0.230
REMARK  Name = 
REMARK  5 active torsions:
REMARK  status: ('A' for Active; 'I' for Inactive)
REMARK    1  A    between atoms: C_1  and  O_2
REMARK    2  A    between atoms: O_2  and  C_3
REMARK    3  A    between atoms: C_6  and  C_7
REMARK    4  A    between atoms: C_7  and  O_8
REMARK    5  A    between atoms: C_16  and  C_17
REMARK                            x       y       z     vdW  Elec       q    Type
REMARK                         _______ _______ _______ _____ _____    ______ ____
ROOT
ATOM      1  C   UNL     1      45.216   3.606   9.169  0.00  0.00    +0.000 C 
ATOM      2  C   UNL     1      45.586   5.085   9.415  0.00  0.00    +0.000 C 
ATOM      3  C   UNL     1      44.949   5.648  10.683  0.00  0.00    +0.000 C 
ATOM      4  N   UNL     1      45.185   4.795  11.843  0.00  0.00    +0.000 N 
ATOM      5  C   UNL     1      46.153   5.141  12.776  0.00  0.00    +0.000 A 
ATOM      6  C   UNL     1      46.024   4.693  14.079  0.00  0.00    +0.000 A 
ATOM      7  C   UNL     1      46.991   5.060  14.979  0.00  0.00    +0.000 A 
ATOM      8  N   UNL     1      48.041   5.824  14.653  0.00  0.00    +0.000 NA
ATOM      9  C   UNL     1      48.091   6.246  13.376  0.00  0.00    +0.000 A 
ATOM     10  N   UNL     1      47.180   5.937  12.425  0.00  0.00    +0.000 NA
ATOM     11  C   UNL     1      44.820   3.390  11.686  0.00  0.00    +0.000 C 
ATOM     12  C   UNL     1      45.493   2.798  10.454  0.00  0.00    +0.000 C 
ENDROOT
BRANCH   1  16
ATOM     13  C   UNL     1      47.218   1.982   5.636  0.00  0.00    +0.000 A 
ATOM     14  C   UNL     1      47.021   3.351   5.761  0.00  0.00    +0.000 A 
ATOM     15  C   UNL     1      46.404   3.879   6.899  0.00  0.00    +0.000 A 
ATOM     16  C   UNL     1      45.951   3.054   7.943  0.00  0.00    +0.000 A 
ATOM     17  C   UNL     1      46.199   1.676   7.805  0.00  0.00    +0.000 A 
ATOM     18  F   UNL     1      45.852   0.842   8.794  0.00  0.00    +0.000 F 
ATOM     19  C   UNL     1      46.814   1.144   6.670  0.00  0.00    +0.000 A 
BRANCH  13  21
ATOM     20  C   UNL     1      46.987   0.392   3.890  0.00  0.00    +0.000 C 
ATOM     21  O   UNL     1      47.791   1.359   4.558  0.00  0.00    +0.000 OA
ENDBRANCH  13  21
ENDBRANCH   1  16
BRANCH   9  22
ATOM     22  C   UNL     1      49.225   7.104  13.006  0.00  0.00    +0.000 A 
ATOM     23  C   UNL     1      49.526   7.425  11.670  0.00  0.00    +0.000 A 
ATOM     24  C   UNL     1      50.614   8.243  11.361  0.00  0.00    +0.000 A 
ATOM     25  C   UNL     1      51.385   8.724  12.401  0.00  0.00    +0.000 A 
ATOM     26  F   UNL     1      52.432   9.509  12.112  0.00  0.00    +0.000 F 
ATOM     27  N   UNL     1      51.148   8.451  13.698  0.00  0.00    +0.000 NA
ATOM     28  C   UNL     1      50.082   7.651  13.964  0.00  0.00    +0.000 A 
ENDBRANCH   9  22
BRANCH   1  29
ATOM     29  O   UNL     1      43.806   3.508   8.915  0.00  0.00    +0.000 OA
ATOM     30  H   UNL     1      43.512   4.363   8.548  0.00  0.00    +0.000 HD
ENDBRANCH   1  29
TORSDOF 4
ENDMDL
MODEL 2
REMARK VINA RESULT:    -7.623      3.479      7.894
REMARK INTER + INTRA:          -9.412
REMARK INTER:                  -9.054
REMARK INTRA:                  -0.358
REMARK UNBOUND:                -0.230
REMARK  Name = 
REMARK  5 active torsions:
REMARK  status: ('A' for Active; 'I' for Inactive)
REMARK    1  A    between atoms: C_1  and  O_2
REMARK    2  A    between atoms: O_2  and  C_3
REMARK    3  A    between atoms: C_6  and  C_7
REMARK    4  A    between atoms: C_7  and  O_8
REMARK    5  A    between atoms: C_16  and  C_17
REMARK                            x       y       z     vdW  Elec       q    Type
REMARK                         _______ _______ _______ _____ _____    ______ ____
ROOT
ATOM      1  C   UNL     1      47.967   8.721  12.587  0.00  0.00    +0.000 C 
ATOM      2  C   UNL     1      48.175   7.200  12.412  0.00  0.00    +0.000 C 
ATOM      3  C   UNL     1      47.111   6.375  13.132  0.00  0.00    +0.000 C 
ATOM      4  N   UNL     1      45.759   6.812  12.804  0.00  0.00    +0.000 N 
ATOM      5  C   UNL     1      44.994   6.089  11.899  0.00  0.00    +0.000 A 
ATOM      6  C   UNL     1      43.613   6.147  11.986  0.00  0.00    +0.000 A 
ATOM      7  C   UNL     1      42.886   5.412  11.086  0.00  0.00    +0.000 A 
ATOM      8  N   UNL     1      43.448   4.652  10.139  0.00  0.00    +0.000 NA
ATOM      9  C   UNL     1      44.794   4.621  10.127  0.00  0.00    +0.000 A 
ATOM     10  N   UNL     1      45.588   5.307  10.979  0.00  0.00    +0.000 NA
ATOM     11  C   UNL     1      45.488   8.236  12.984  0.00  0.00    +0.000 C 
ATOM     12  C   UNL     1      46.510   9.074  12.225  0.00  0.00    +0.000 C 
ENDROOT
BRANCH   1  16
ATOM     13  C   UNL     1      50.911  10.890  10.188  0.00  0.00    +0.000 A 
ATOM     14  C   UNL     1      49.595  11.329  10.245  0.00  0.00    +0.000 A 
ATOM     15  C   UNL     1      48.654  10.655  11.030  0.00  0.00    +0.000 A 
ATOM     16  C   UNL     1      48.996   9.512  11.771  0.00  0.00    +0.000 A 
ATOM     17  C   UNL     1      50.345   9.114  11.723  0.00  0.00    +0.000 A 
ATOM     18  F   UNL     1      50.751   8.071  12.459  0.00  0.00    +0.000 F 
ATOM     19  C   UNL     1      51.287   9.783  10.940  0.00  0.00    +0.000 A 
BRANCH  13  21
ATOM     20  C   UNL     1      52.666  10.576   8.622  0.00  0.00    +0.000 C 
ATOM     21  O   UNL     1      51.905  11.463   9.436  0.00  0.00    +0.000 OA
ENDBRANCH  13  21
ENDBRANCH   1  16
BRANCH   9  22
ATOM     22  C   UNL     1      45.428   3.773   9.107  0.00  0.00    +0.000 A 
ATOM     23  C   UNL     1      46.092   4.306   7.988  0.00  0.00    +0.000 A 
ATOM     24  C   UNL     1      46.680   3.467   7.041  0.00  0.00    +0.000 A 
ATOM     25  C   UNL     1      46.590   2.102   7.234  0.00  0.00    +0.000 A 
ATOM     26  F   UNL     1      47.153   1.289   6.328  0.00  0.00    +0.000 F 
ATOM     27  N   UNL     1      45.968   1.533   8.284  0.00  0.00    +0.000 NA
ATOM     28  C   UNL     1      45.405   2.379   9.186  0.00  0.00    +0.000 A 
ENDBRANCH   9  22
BRANCH   1  29
ATOM     29  O   UNL     1      48.145   9.066  13.970  0.00  0.00    +0.000 OA
ATOM     30  H   UNL     1      47.269   9.030  14.397  0.00  0.00    +0.000 HD
ENDBRANCH   1  29
TORSDOF 4
ENDMDL
MODEL 3
REMARK VINA RESULT:    -6.987      5.375      9.343
REMARK INTER + INTRA:          -8.647
REMARK INTER:                  -8.101
REMARK INTRA:                  -0.546
REMARK UNBOUND:                -0.230
REMARK  Name = 
REMARK  5 active torsions:
REMARK  status: ('A' for Active; 'I' for Inactive)
REMARK    1  A    between atoms: C_1  and  O_2
REMARK    2  A    between atoms: O_2  and  C_3
REMARK    3  A    between atoms: C_6  and  C_7
REMARK    4  A    between atoms: C_7  and  O_8
REMARK    5  A    between atoms: C_16  and  C_17
REMARK                            x       y       z     vdW  Elec       q    Type
REMARK                         _______ _______ _______ _____ _____    ______ ____
ROOT
ATOM      1  C   UNL     1      50.718   5.063  17.684  0.00  0.00    +0.000 C 
ATOM      2  C   UNL     1      49.201   4.919  17.430  0.00  0.00    +0.000 C 
ATOM      3  C   UNL     1      48.494   6.266  17.311  0.00  0.00    +0.000 C 
ATOM      4  N   UNL     1      49.155   7.154  16.361  0.00  0.00    +0.000 N 
ATOM      5  C   UNL     1      48.628   7.329  15.089  0.00  0.00    +0.000 A 
ATOM      6  C   UNL     1      48.887   8.506  14.408  0.00  0.00    +0.000 A 
ATOM      7  C   UNL     1      48.342   8.654  13.158  0.00  0.00    +0.000 A 
ATOM      8  N   UNL     1      47.580   7.719  12.578  0.00  0.00    +0.000 NA
ATOM      9  C   UNL     1      47.347   6.611  13.306  0.00  0.00    +0.000 A 
ATOM     10  N   UNL     1      47.838   6.385  14.545  0.00  0.00    +0.000 NA
ATOM     11  C   UNL     1      50.586   7.361  16.571  0.00  0.00    +0.000 C 
ATOM     12  C   UNL     1      51.315   6.025  16.636  0.00  0.00    +0.000 C 
ENDROOT
BRANCH   1  16
ATOM     13  C   UNL     1      52.680   1.157  17.841  0.00  0.00    +0.000 A 
ATOM     14  C   UNL     1      51.356   1.260  17.433  0.00  0.00    +0.000 A 
ATOM     15  C   UNL     1      50.730   2.507  17.357  0.00  0.00    +0.000 A 
ATOM     16  C   UNL     1      51.404   3.692  17.700  0.00  0.00    +0.000 A 
ATOM     17  C   UNL     1      52.754   3.560  18.073  0.00  0.00    +0.000 A 
ATOM     18  F   UNL     1      53.472   4.657  18.348  0.00  0.00    +0.000 F 
ATOM     19  C   UNL     1      53.383   2.317  18.151  0.00  0.00    +0.000 A 
BRANCH  13  21
ATOM     20  C   UNL     1      54.416  -0.235  17.019  0.00  0.00    +0.000 C 
ATOM     21  O   UNL     1      53.380  -0.014  17.971  0.00  0.00    +0.000 OA
ENDBRANCH  13  21
ENDBRANCH   1  16
BRANCH   9  22
ATOM     22  C   UNL     1      46.494   5.583  12.693  0.00  0.00    +0.000 A 
ATOM     23  C   UNL     1      45.840   5.779  11.463  0.00  0.00    +0.000 A 
ATOM     24  C   UNL     1      45.038   4.778  10.914  0.00  0.00    +0.000 A 
ATOM     25  C   UNL     1      44.903   3.593  11.613  0.00  0.00    +0.000 A 
ATOM     26  F   UNL     1      44.134   2.627  11.093  0.00  0.00    +0.000 F 
ATOM     27  N   UNL     1      45.503   3.348  12.793  0.00  0.00    +0.000 NA
ATOM     28  C   UNL     1      46.276   4.345  13.299  0.00  0.00    +0.000 A 
ENDBRANCH   9  22
BRANCH   1  29
ATOM     29  O   UNL     1      50.926   5.672  18.969  0.00  0.00    +0.000 OA
ATOM     30  H   UNL     1      50.169   6.263  19.140  0.00  0.00    +0.000 HD
ENDBRANCH   1  29
TORSDOF 4
ENDMDL
MODEL 4
REMARK VINA RESULT:    -6.754      4.638      6.819
REMARK INTER + INTRA:          -8.366
REMARK INTER:                  -7.893
REMARK INTRA:                  -0.473
REMARK UNBOUND:                -0.230
REMARK  Name = 
REMARK  5 active torsions:
REMARK  status: ('A' for Active; 'I' for Inactive)
REMARK    1  A    between atoms: C_1  and  O_2
REMARK    2  A    between atoms: O_2  and  C_3
REMARK    3  A    between atoms: C_6  and  C_7
REMARK    4  A    between atoms: C_7  and  O_8
REMARK    5  A    between atoms: C_16  and  C_17
REMARK                            x       y       z     vdW  Elec       q    Type
REMARK                         _______ _______ _______ _____ _____    ______ ____
ROOT
ATOM      1  C   UNL     1      47.498   7.708  13.277  0.00  0.00    +0.000 C 
ATOM      2  C   UNL     1      48.024   8.085  11.874  0.00  0.00    +0.000 C 
ATOM      3  C   UNL     1      48.998   9.261  11.908  0.00  0.00    +0.000 C 
ATOM      4  N   UNL     1      50.061   9.069  12.888  0.00  0.00    +0.000 N 
ATOM      5  C   UNL     1      51.327   8.678  12.475  0.00  0.00    +0.000 A 
ATOM      6  C   UNL     1      52.423   9.011  13.253  0.00  0.00    +0.000 A 
ATOM      7  C   UNL     1      53.661   8.621  12.811  0.00  0.00    +0.000 A 
ATOM      8  N   UNL     1      53.851   7.941  11.674  0.00  0.00    +0.000 NA
ATOM      9  C   UNL     1      52.746   7.674  10.954  0.00  0.00    +0.000 A 
ATOM     10  N   UNL     1      51.489   8.024  11.310  0.00  0.00    +0.000 NA
ATOM     11  C   UNL     1      49.626   8.746  14.245  0.00  0.00    +0.000 C 
ATOM     12  C   UNL     1      48.697   7.538  14.234  0.00  0.00    +0.000 C 
ENDROOT
BRANCH   1  16
ATOM     13  C   UNL     1      44.954   4.163  12.975  0.00  0.00    +0.000 A 
ATOM     14  C   UNL     1      46.213   4.073  13.554  0.00  0.00    +0.000 A 
ATOM     15  C   UNL     1      47.022   5.207  13.676  0.00  0.00    +0.000 A 
ATOM     16  C   UNL     1      46.603   6.466  13.211  0.00  0.00    +0.000 A 
ATOM     17  C   UNL     1      45.309   6.532  12.664  0.00  0.00    +0.000 A 
ATOM     18  F   UNL     1      44.824   7.714  12.262  0.00  0.00    +0.000 F 
ATOM     19  C   UNL     1      44.498   5.403  12.539  0.00  0.00    +0.000 A 
BRANCH  13  21
ATOM     20  C   UNL     1      43.487   3.021  11.501  0.00  0.00    +0.000 C 
ATOM     21  O   UNL     1      44.092   3.114  12.787  0.00  0.00    +0.000 OA
ENDBRANCH  13  21
ENDBRANCH   1  16
BRANCH   9  22
ATOM     22  C   UNL     1      52.939   6.947   9.691  0.00  0.00    +0.000 A 
ATOM     23  C   UNL     1      52.304   7.327   8.495  0.00  0.00    +0.000 A 
ATOM     24  C   UNL     1      52.513   6.609   7.317  0.00  0.00    +0.000 A 
ATOM     25  C   UNL     1      53.357   5.516   7.360  0.00  0.00    +0.000 A 
ATOM     26  F   UNL     1      53.562   4.821   6.232  0.00  0.00    +0.000 F 
ATOM     27  N   UNL     1      53.992   5.103   8.473  0.00  0.00    +0.000 NA
ATOM     28  C   UNL     1      53.765   5.824   9.603  0.00  0.00    +0.000 A 
ENDBRANCH   9  22
BRANCH   1  29
ATOM     29  O   UNL     1      46.708   8.791  13.792  0.00  0.00    +0.000 OA
ATOM     30  H   UNL     1      46.623   9.456  13.084  0.00  0.00    +0.000 HD
ENDBRANCH   1  29
TORSDOF 4
ENDMDL
MODEL 5
REMARK VINA RESULT:    -6.523      3.526      7.835
REMARK INTER + INTRA:          -8.087
REMARK INTER:                  -7.578
REMARK INTRA:                  -0.509
REMARK UNBOUND:                -0.230
REMARK  Name = 
REMARK  5 active torsions:
REMARK  status: ('A' for Active; 'I' for Inactive)
REMARK    1  A    between atoms: C_1  and  O_2
REMARK    2  A    between atoms: O_2  and  C_3
REMARK    3  A    between atoms: C_6  and  C_7
REMARK    4  A    between atoms: C_7  and  O_8
REMARK    5  A    between atoms: C_16  and  C_17
REMARK                            x       y       z     vdW  Elec       q    Type
REMARK                         _______ _______ _______ _____ _____    ______ ____
ROOT
ATOM      1  C   UNL     1      50.421   8.588  11.831  0.00  0.00    +0.000 C 
ATOM      2  C   UNL     1      49.793   7.235  12.234  0.00  0.00    +0.000 C 
ATOM      3  C   UNL     1      48.626   7.394  13.205  0.00  0.00    +0.000 C 
ATOM      4  N   UNL     1      47.645   8.365  12.734  0.00  0.00    +0.000 N 
ATOM      5  C   UNL     1      46.458   7.933  12.160  0.00  0.00    +0.000 A 
ATOM      6  C   UNL     1      45.344   8.754  12.215  0.00  0.00    +0.000 A 
ATOM      7  C   UNL     1      44.184   8.293  11.648  0.00  0.00    +0.000 A 
ATOM      8  N   UNL     1      44.084   7.099  11.053  0.00  0.00    +0.000 NA
ATOM      9  C   UNL     1      45.197   6.341  11.059  0.00  0.00    +0.000 A 
ATOM     10  N   UNL     1      46.380   6.713  11.597  0.00  0.00    +0.000 NA
ATOM     11  C   UNL     1      48.172   9.679  12.371  0.00  0.00    +0.000 C 
ATOM     12  C   UNL     1      49.303   9.539  11.359  0.00  0.00    +0.000 C 
ENDROOT
BRANCH   1  16
ATOM     13  C   UNL     1      53.641   8.048   8.922  0.00  0.00    +0.000 A 
ATOM     14  C   UNL     1      52.881   6.961   9.334  0.00  0.00    +0.000 A 
ATOM     15  C   UNL     1      51.834   7.130  10.245  0.00  0.00    +0.000 A 
ATOM     16  C   UNL     1      51.523   8.390  10.784  0.00  0.00    +0.000 A 
ATOM     17  C   UNL     1      52.285   9.477  10.319  0.00  0.00    +0.000 A 
ATOM     18  F   UNL     1      51.996  10.714  10.743  0.00  0.00    +0.000 F 
ATOM     19  C   UNL     1      53.332   9.313   9.410  0.00  0.00    +0.000 A 
BRANCH  13  21
ATOM     20  C   UNL     1      54.918   6.738   7.410  0.00  0.00    +0.000 C 
ATOM     21  O   UNL     1      54.700   7.990   8.052  0.00  0.00    +0.000 OA
ENDBRANCH  13  21
ENDBRANCH   1  16
BRANCH   9  22
ATOM     22  C   UNL     1      45.100   5.017  10.428  0.00  0.00    +0.000 A 
ATOM     23  C   UNL     1      45.530   4.773   9.112  0.00  0.00    +0.000 A 
ATOM     24  C   UNL     1      45.420   3.501   8.549  0.00  0.00    +0.000 A 
ATOM     25  C   UNL     1      44.874   2.492   9.320  0.00  0.00    +0.000 A 
ATOM     26  F   UNL     1      44.764   1.268   8.785  0.00  0.00    +0.000 F 
ATOM     27  N   UNL     1      44.444   2.664  10.584  0.00  0.00    +0.000 NA
ATOM     28  C   UNL     1      44.566   3.915  11.100  0.00  0.00    +0.000 A 
ENDBRANCH   9  22
BRANCH   1  29
ATOM     29  O   UNL     1      51.019   9.194  12.988  0.00  0.00    +0.000 OA
ATOM     30  H   UNL     1      51.629   9.888  12.674  0.00  0.00    +0.000 HD
ENDBRANCH   1  29
TORSDOF 4
ENDMDL
MODEL 6
REMARK VINA RESULT:    -6.157      4.623      7.233
REMARK INTER + INTRA:          -7.646
REMARK INTER:                  -7.507
REMARK INTRA:                  -0.139
REMARK UNBOUND:                -0.230
REMARK  Name = 
REMARK  5 active torsions:
REMARK  status: ('A' for Active; 'I' for Inactive)
REMARK    1  A    between atoms: C_1  and  O_2
REMARK    2  A    between atoms: O_2  and  C_3
REMARK    3  A    between atoms: C_6  and  C_7
REMARK    4  A    between atoms: C_7  and  O_8
REMARK    5  A    between atoms: C_16  and  C_17
REMARK                            x       y       z     vdW  Elec       q    Type
REMARK                         _______ _______ _______ _____ _____    ______ ____
ROOT
ATOM      1  C   UNL     1      47.868   7.367  12.676  0.00  0.00    +0.000 C 
ATOM      2  C   UNL     1      48.625   6.806  13.900  0.00  0.00    +0.000 C 
ATOM      3  C   UNL     1      49.654   7.787  14.455  0.00  0.00    +0.000 C 
ATOM      4  N   UNL     1      49.085   9.110  14.688  0.00  0.00    +0.000 N 
ATOM      5  C   UNL     1      48.751   9.507  15.975  0.00  0.00    +0.000 A 
ATOM      6  C   UNL     1      48.739  10.857  16.283  0.00  0.00    +0.000 A 
ATOM      7  C   UNL     1      48.415  11.216  17.565  0.00  0.00    +0.000 A 
ATOM      8  N   UNL     1      48.114  10.328  18.520  0.00  0.00    +0.000 NA
ATOM      9  C   UNL     1      48.170   9.032  18.159  0.00  0.00    +0.000 A 
ATOM     10  N   UNL     1      48.484   8.588  16.922  0.00  0.00    +0.000 NA
ATOM     11  C   UNL     1      48.387   9.712  13.555  0.00  0.00    +0.000 C 
ATOM     12  C   UNL     1      47.317   8.766  13.024  0.00  0.00    +0.000 C 
ENDROOT
BRANCH   1  16
ATOM     13  C   UNL     1      44.688   4.645  11.408  0.00  0.00    +0.000 A 
ATOM     14  C   UNL     1      45.294   5.490  10.487  0.00  0.00    +0.000 A 
ATOM     15  C   UNL     1      46.328   6.345  10.880  0.00  0.00    +0.000 A 
ATOM     16  C   UNL     1      46.780   6.393  12.210  0.00  0.00    +0.000 A 
ATOM     17  C   UNL     1      46.173   5.499  13.111  0.00  0.00    +0.000 A 
ATOM     18  F   UNL     1      46.603   5.447  14.378  0.00  0.00    +0.000 F 
ATOM     19  C   UNL     1      45.140   4.644  12.724  0.00  0.00    +0.000 A 
BRANCH  13  21
ATOM     20  C   UNL     1      43.429   2.753  12.088  0.00  0.00    +0.000 C 
ATOM     21  O   UNL     1      43.656   3.786  11.135  0.00  0.00    +0.000 OA
ENDBRANCH  13  21
ENDBRANCH   1  16
BRANCH   9  22
ATOM     22  C   UNL     1      47.863   8.041  19.201  0.00  0.00    +0.000 A 
ATOM     23  C   UNL     1      47.746   6.667  18.927  0.00  0.00    +0.000 A 
ATOM     24  C   UNL     1      47.452   5.758  19.944  0.00  0.00    +0.000 A 
ATOM     25  C   UNL     1      47.279   6.247  21.225  0.00  0.00    +0.000 A 
ATOM     26  F   UNL     1      46.996   5.381  22.207  0.00  0.00    +0.000 F 
ATOM     27  N   UNL     1      47.378   7.550  21.549  0.00  0.00    +0.000 NA
ATOM     28  C   UNL     1      47.664   8.407  20.534  0.00  0.00    +0.000 A 
ENDBRANCH   9  22
BRANCH   1  29
ATOM     29  O   UNL     1      48.791   7.545  11.590  0.00  0.00    +0.000 OA
ATOM     30  H   UNL     1      48.990   6.663  11.225  0.00  0.00    +0.000 HD
ENDBRANCH   1  29
TORSDOF 4
ENDMDL
MODEL 7
REMARK VINA RESULT:    -5.779      5.441      9.486
REMARK INTER + INTRA:          -7.191
REMARK INTER:                  -6.667
REMARK INTRA:                  -0.525
REMARK UNBOUND:                -0.230
REMARK  Name = 
REMARK  5 active torsions:
REMARK  status: ('A' for Active; 'I' for Inactive)
REMARK    1  A    between atoms: C_1  and  O_2
REMARK    2  A    between atoms: O_2  and  C_3
REMARK    3  A    between atoms: C_6  and  C_7
REMARK    4  A    between atoms: C_7  and  O_8
REMARK    5  A    between atoms: C_16  and  C_17
REMARK                            x       y       z     vdW  Elec       q    Type
REMARK                         _______ _______ _______ _____ _____    ______ ____
ROOT
ATOM      1  C   UNL     1      48.429   5.886  16.291  0.00  0.00    +0.000 C 
ATOM      2  C   UNL     1      48.527   6.838  15.078  0.00  0.00    +0.000 C 
ATOM      3  C   UNL     1      48.522   6.093  13.745  0.00  0.00    +0.000 C 
ATOM      4  N   UNL     1      47.416   5.148  13.646  0.00  0.00    +0.000 N 
ATOM      5  C   UNL     1      46.290   5.470  12.900  0.00  0.00    +0.000 A 
ATOM      6  C   UNL     1      45.526   4.450  12.359  0.00  0.00    +0.000 A 
ATOM      7  C   UNL     1      44.426   4.801  11.619  0.00  0.00    +0.000 A 
ATOM      8  N   UNL     1      44.067   6.071  11.400  0.00  0.00    +0.000 NA
ATOM      9  C   UNL     1      44.869   7.012  11.933  0.00  0.00    +0.000 A 
ATOM     10  N   UNL     1      45.973   6.757  12.670  0.00  0.00    +0.000 NA
ATOM     11  C   UNL     1      47.291   4.196  14.746  0.00  0.00    +0.000 C 
ATOM     12  C   UNL     1      47.238   4.927  16.082  0.00  0.00    +0.000 C 
ENDROOT
BRANCH   1  16
ATOM     13  C   UNL     1      48.274   8.102  20.059  0.00  0.00    +0.000 A 
ATOM     14  C   UNL     1      48.383   8.780  18.852  0.00  0.00    +0.000 A 
ATOM     15  C   UNL     1      48.408   8.080  17.643  0.00  0.00    +0.000 A 
ATOM     16  C   UNL     1      48.339   6.677  17.601  0.00  0.00    +0.000 A 
ATOM     17  C   UNL     1      48.191   6.020  18.836  0.00  0.00    +0.000 A 
ATOM     18  F   UNL     1      48.053   4.688  18.862  0.00  0.00    +0.000 F 
ATOM     19  C   UNL     1      48.167   6.715  20.047  0.00  0.00    +0.000 A 
BRANCH  13  21
ATOM     20  C   UNL     1      46.979   8.967  21.848  0.00  0.00    +0.000 C 
ATOM     21  O   UNL     1      48.262   8.687  21.298  0.00  0.00    +0.000 OA
ENDBRANCH  13  21
ENDBRANCH   1  16
BRANCH   9  22
ATOM     22  C   UNL     1      44.501   8.413  11.684  0.00  0.00    +0.000 A 
ATOM     23  C   UNL     1      43.445   8.778  10.830  0.00  0.00    +0.000 A 
ATOM     24  C   UNL     1      43.128  10.120  10.619  0.00  0.00    +0.000 A 
ATOM     25  C   UNL     1      43.881  11.078  11.271  0.00  0.00    +0.000 A 
ATOM     26  F   UNL     1      43.583  12.370  11.073  0.00  0.00    +0.000 F 
ATOM     27  N   UNL     1      44.903  10.792  12.099  0.00  0.00    +0.000 NA
ATOM     28  C   UNL     1      45.186   9.474  12.280  0.00  0.00    +0.000 A 
ENDBRANCH   9  22
BRANCH   1  29
ATOM     29  O   UNL     1      49.610   5.072  16.350  0.00  0.00    +0.000 OA
ATOM     30  H   UNL     1      50.381   5.670  16.345  0.00  0.00    +0.000 HD
ENDBRANCH   1  29
TORSDOF 4
ENDMDL
MODEL 8
REMARK VINA RESULT:    -5.729      4.277      7.863
REMARK INTER + INTRA:          -7.131
REMARK INTER:                  -7.213
REMARK INTRA:                   0.083
REMARK UNBOUND:                -0.230
REMARK  Name = 
REMARK  5 active torsions:
REMARK  status: ('A' for Active; 'I' for Inactive)
REMARK    1  A    between atoms: C_1  and  O_2
REMARK    2  A    between atoms: O_2  and  C_3
REMARK    3  A    between atoms: C_6  and  C_7
REMARK    4  A    between atoms: C_7  and  O_8
REMARK    5  A    between atoms: C_16  and  C_17
REMARK                            x       y       z     vdW  Elec       q    Type
REMARK                         _______ _______ _______ _____ _____    ______ ____
ROOT
ATOM      1  C   UNL     1      44.739   7.925  11.948  0.00  0.00    +0.000 C 
ATOM      2  C   UNL     1      45.917   7.048  11.468  0.00  0.00    +0.000 C 
ATOM      3  C   UNL     1      46.034   5.742  12.249  0.00  0.00    +0.000 C 
ATOM      4  N   UNL     1      44.768   5.020  12.311  0.00  0.00    +0.000 N 
ATOM      5  C   UNL     1      44.549   3.926  11.486  0.00  0.00    +0.000 A 
ATOM      6  C   UNL     1      43.653   2.948  11.886  0.00  0.00    +0.000 A 
ATOM      7  C   UNL     1      43.468   1.874  11.054  0.00  0.00    +0.000 A 
ATOM      8  N   UNL     1      44.108   1.733   9.888  0.00  0.00    +0.000 NA
ATOM      9  C   UNL     1      44.984   2.706   9.573  0.00  0.00    +0.000 A 
ATOM     10  N   UNL     1      45.233   3.796  10.334  0.00  0.00    +0.000 NA
ATOM     11  C   UNL     1      43.621   5.786  12.794  0.00  0.00    +0.000 C 
ATOM     12  C   UNL     1      43.457   7.067  11.986  0.00  0.00    +0.000 C 
ENDROOT
BRANCH   1  16
ATOM     13  C   UNL     1      44.271  11.546   9.542  0.00  0.00    +0.000 A 
ATOM     14  C   UNL     1      45.511  11.215  10.073  0.00  0.00    +0.000 A 
ATOM     15  C   UNL     1      45.673  10.046  10.822  0.00  0.00    +0.000 A 
ATOM     16  C   UNL     1      44.597   9.178  11.077  0.00  0.00    +0.000 A 
ATOM     17  C   UNL     1      43.364   9.521  10.494  0.00  0.00    +0.000 A 
ATOM     18  F   UNL     1      42.314   8.702  10.643  0.00  0.00    +0.000 F 
ATOM     19  C   UNL     1      43.197  10.687   9.746  0.00  0.00    +0.000 A 
BRANCH  13  21
ATOM     20  C   UNL     1      44.826  12.904   7.676  0.00  0.00    +0.000 C 
ATOM     21  O   UNL     1      43.999  12.675   8.813  0.00  0.00    +0.000 OA
ENDBRANCH  13  21
ENDBRANCH   1  16
BRANCH   9  22
ATOM     22  C   UNL     1      45.712   2.557   8.305  0.00  0.00    +0.000 A 
ATOM     23  C   UNL     1      45.736   3.563   7.324  0.00  0.00    +0.000 A 
ATOM     24  C   UNL     1      46.439   3.382   6.132  0.00  0.00    +0.000 A 
ATOM     25  C   UNL     1      47.107   2.187   5.945  0.00  0.00    +0.000 A 
ATOM     26  F   UNL     1      47.784   2.005   4.802  0.00  0.00    +0.000 F 
ATOM     27  N   UNL     1      47.121   1.187   6.846  0.00  0.00    +0.000 NA
ATOM     28  C   UNL     1      46.425   1.397   7.995  0.00  0.00    +0.000 A 
ENDBRANCH   9  22
BRANCH   1  29
ATOM     29  O   UNL     1      44.989   8.354  13.296  0.00  0.00    +0.000 OA
ATOM     30  H   UNL     1      45.704   9.017  13.266  0.00  0.00    +0.000 HD
ENDBRANCH   1  29
TORSDOF 4
ENDMDL
MODEL 9
REMARK VINA RESULT:    -5.406      4.346      7.752
REMARK INTER + INTRA:          -6.742
REMARK INTER:                  -6.252
REMARK INTRA:                  -0.490
REMARK UNBOUND:                -0.230
REMARK  Name = 
REMARK  5 active torsions:
REMARK  status: ('A' for Active; 'I' for Inactive)
REMARK    1  A    between atoms: C_1  and  O_2
REMARK    2  A    between atoms: O_2  and  C_3
REMARK    3  A    between atoms: C_6  and  C_7
REMARK    4  A    between atoms: C_7  and  O_8
REMARK    5  A    between atoms: C_16  and  C_17
REMARK                            x       y       z     vdW  Elec       q    Type
REMARK                         _______ _______ _______ _____ _____    ______ ____
ROOT
ATOM      1  C   UNL     1      52.191   8.938  10.882  0.00  0.00    +0.000 C 
ATOM      2  C   UNL     1      51.482   8.055  11.933  0.00  0.00    +0.000 C 
ATOM      3  C   UNL     1      50.679   8.872  12.942  0.00  0.00    +0.000 C 
ATOM      4  N   UNL     1      49.785   9.825  12.294  0.00  0.00    +0.000 N 
ATOM      5  C   UNL     1      48.429   9.548  12.193  0.00  0.00    +0.000 A 
ATOM      6  C   UNL     1      47.532  10.599  12.099  0.00  0.00    +0.000 A 
ATOM      7  C   UNL     1      46.198  10.293  12.011  0.00  0.00    +0.000 A 
ATOM      8  N   UNL     1      45.734   9.038  12.013  0.00  0.00    +0.000 NA
ATOM      9  C   UNL     1      46.658   8.066  12.133  0.00  0.00    +0.000 A 
ATOM     10  N   UNL     1      47.990   8.277  12.230  0.00  0.00    +0.000 NA
ATOM     11  C   UNL     1      50.404  10.715  11.315  0.00  0.00    +0.000 C 
ATOM     12  C   UNL     1      51.163   9.910  10.267  0.00  0.00    +0.000 C 
ENDROOT
BRANCH   1  16
ATOM     13  C   UNL     1      54.323   6.514   7.931  0.00  0.00    +0.000 A 
ATOM     14  C   UNL     1      53.598   5.903   8.946  0.00  0.00    +0.000 A 
ATOM     15  C   UNL     1      52.893   6.671   9.878  0.00  0.00    +0.000 A 
ATOM     16  C   UNL     1      52.903   8.076   9.834  0.00  0.00    +0.000 A 
ATOM     17  C   UNL     1      53.615   8.664   8.773  0.00  0.00    +0.000 A 
ATOM     18  F   UNL     1      53.609   9.997   8.634  0.00  0.00    +0.000 F 
ATOM     19  C   UNL     1      54.320   7.902   7.840  0.00  0.00    +0.000 A 
BRANCH  13  21
ATOM     20  C   UNL     1      54.377   4.863   6.228  0.00  0.00    +0.000 C 
ATOM     21  O   UNL     1      55.063   5.858   6.982  0.00  0.00    +0.000 OA
ENDBRANCH  13  21
ENDBRANCH   1  16
BRANCH   9  22
ATOM     22  C   UNL     1      46.164   6.682  12.158  0.00  0.00    +0.000 A 
ATOM     23  C   UNL     1      45.535   6.084  11.052  0.00  0.00    +0.000 A 
ATOM     24  C   UNL     1      45.079   4.767  11.116  0.00  0.00    +0.000 A 
ATOM     25  C   UNL     1      45.261   4.071  12.296  0.00  0.00    +0.000 A 
ATOM     26  F   UNL     1      44.825   2.805  12.365  0.00  0.00    +0.000 F 
ATOM     27  N   UNL     1      45.855   4.589  13.388  0.00  0.00    +0.000 NA
ATOM     28  C   UNL     1      46.286   5.874  13.290  0.00  0.00    +0.000 A 
ENDBRANCH   9  22
BRANCH   1  29
ATOM     29  O   UNL     1      53.184   9.744  11.535  0.00  0.00    +0.000 OA
ATOM     30  H   UNL     1      52.832   9.994  12.409  0.00  0.00    +0.000 HD
ENDBRANCH   1  29
TORSDOF 4
ENDMDL
