MODEL 1
REMARK VINA RESULT:    -8.673      0.000      0.000
REMARK INTER + INTRA:         -11.753
REMARK INTER:                 -11.209
REMARK INTRA:                  -0.544
REMARK UNBOUND:                -0.544
REMARK  Name = 
REMARK  5 active torsions:
REMARK  status: ('A' for Active; 'I' for Inactive)
REMARK    1  A    between atoms: C_2  and  C_4
REMARK    2  A    between atoms: C_8  and  C_9
REMARK    3  A    between atoms: C_9  and  O_10
REMARK    4  A    between atoms: O_10  and  C_11
REMARK    5  A    between atoms: C_16  and  C_17
REMARK                            x       y       z     vdW  Elec       q    Type
REMARK                         _______ _______ _______ _____ _____    ______ ____
ROOT
ATOM      1  O   UNL     1      44.889   6.325  10.721  0.00  0.00    +0.000 OA
ENDROOT
BRANCH   1   2
ATOM      2  C   UNL     1      44.773   5.075  10.191  0.00  0.00    +0.000 A 
ATOM      3  C   UNL     1      43.908   4.208  10.843  0.00  0.00    +0.000 A 
ATOM      4  N   UNL     1      43.701   2.923  10.497  0.00  0.00    +0.000 NA
ATOM      5  C   UNL     1      44.422   2.465   9.453  0.00  0.00    +0.000 A 
ATOM      6  F   UNL     1      44.216   1.178   9.131  0.00  0.00    +0.000 F 
ATOM      7  C   UNL     1      45.344   3.225   8.721  0.00  0.00    +0.000 A 
ATOM      8  C   UNL     1      45.502   4.572   9.117  0.00  0.00    +0.000 A 
BRANCH   7   9
ATOM      9  C   UNL     1      46.151   2.647   7.631  0.00  0.00    +0.000 A 
ATOM     10  C   UNL     1      46.732   1.369   7.744  0.00  0.00    +0.000 A 
ATOM     11  C   UNL     1      47.450   0.808   6.692  0.00  0.00    +0.000 A 
ATOM     12  C   UNL     1      47.608   1.509   5.505  0.00  0.00    +0.000 A 
ATOM     13  C   UNL     1      47.059   2.785   5.369  0.00  0.00    +0.000 A 
ATOM     14  C   UNL     1      46.339   3.339   6.423  0.00  0.00    +0.000 A 
ENDBRANCH   7   9
ENDBRANCH   1   2
BRANCH   1  15
ATOM     15  C   UNL     1      44.527   6.472  12.096  0.00  0.00    +0.000 C 
BRANCH  15  20
ATOM     16  C   UNL     1      47.112   5.104  14.519  0.00  0.00    +0.000 A 
ATOM     17  C   UNL     1      48.041   6.142  14.508  0.00  0.00    +0.000 A 
ATOM     18  C   UNL     1      47.768   7.230  13.705  0.00  0.00    +0.000 A 
ATOM     19  N   UNL     1      46.653   7.349  12.950  0.00  0.00    +0.000 NA
ATOM     20  C   UNL     1      45.764   6.322  12.956  0.00  0.00    +0.000 A 
ATOM     21  C   UNL     1      45.966   5.182  13.725  0.00  0.00    +0.000 A 
BRANCH  16  23
ATOM     22  N   UNL     1      46.953   3.971  16.661  0.00  0.00    +0.000 N 
ATOM     23  C   UNL     1      47.309   3.890  15.344  0.00  0.00    +0.000 C 
ATOM     24  O   UNL     1      47.719   2.845  14.860  0.00  0.00    +0.000 OA
ATOM     25  H   UNL     1      46.961   3.098  17.174  0.00  0.00    +0.000 HD
ATOM     26  H   UNL     1      46.364   4.711  17.014  0.00  0.00    +0.000 HD
ENDBRANCH  16  23
ENDBRANCH  15  20
ENDBRANCH   1  15
TORSDOF 5
ENDMDL
MODEL 2
REMARK VINA RESULT:    -7.762      3.065      7.180
REMARK INTER + INTRA:         -10.575
REMARK INTER:                  -9.737
REMARK INTRA:                  -0.837
REMARK UNBOUND:                -0.544
REMARK  Name = 
REMARK  5 active torsions:
REMARK  status: ('A' for Active; 'I' for Inactive)
REMARK    1  A    between atoms: C_2  and  C_4
REMARK    2  A    between atoms: C_8  and  C_9
REMARK    3  A    between atoms: C_9  and  O_10
REMARK    4  A    between atoms: O_10  and  C_11
REMARK    5  A    between atoms: C_16  and  C_17
REMARK                            x       y       z     vdW  Elec       q    Type
REMARK                         _______ _______ _______ _____ _____    ______ ____
ROOT
ATOM      1  O   UNL     1      43.831   4.438  10.584  0.00  0.00    +0.000 OA
ENDROOT
BRANCH   1   2
ATOM      2  C   UNL     1      44.817   4.803  11.452  0.00  0.00    +0.000 A 
ATOM      3  C   UNL     1      44.939   4.036  12.603  0.00  0.00    +0.000 A 
ATOM      4  N   UNL     1      45.819   4.274  13.595  0.00  0.00    +0.000 NA
ATOM      5  C   UNL     1      46.607   5.358  13.444  0.00  0.00    +0.000 A 
ATOM      6  F   UNL     1      47.467   5.588  14.449  0.00  0.00    +0.000 F 
ATOM      7  C   UNL     1      46.573   6.226  12.345  0.00  0.00    +0.000 A 
ATOM      8  C   UNL     1      45.645   5.914  11.326  0.00  0.00    +0.000 A 
BRANCH   7   9
ATOM      9  C   UNL     1      47.416   7.433  12.270  0.00  0.00    +0.000 A 
ATOM     10  C   UNL     1      48.673   7.414  11.634  0.00  0.00    +0.000 A 
ATOM     11  C   UNL     1      49.442   8.569  11.522  0.00  0.00    +0.000 A 
ATOM     12  C   UNL     1      48.978   9.768  12.045  0.00  0.00    +0.000 A 
ATOM     13  C   UNL     1      47.745   9.814  12.697  0.00  0.00    +0.000 A 
ATOM     14  C   UNL     1      46.979   8.658  12.802  0.00  0.00    +0.000 A 
ENDBRANCH   7   9
ENDBRANCH   1   2
BRANCH   1  15
ATOM     15  C   UNL     1      44.100   4.634   9.193  0.00  0.00    +0.000 C 
BRANCH  15  20
ATOM     16  C   UNL     1      46.527   2.520   7.178  0.00  0.00    +0.000 A 
ATOM     17  C   UNL     1      46.337   1.278   7.777  0.00  0.00    +0.000 A 
ATOM     18  C   UNL     1      45.425   1.204   8.811  0.00  0.00    +0.000 A 
ATOM     19  N   UNL     1      44.703   2.257   9.255  0.00  0.00    +0.000 NA
ATOM     20  C   UNL     1      44.912   3.467   8.673  0.00  0.00    +0.000 A 
ATOM     21  C   UNL     1      45.821   3.635   7.636  0.00  0.00    +0.000 A 
BRANCH  16  23
ATOM     22  N   UNL     1      48.811   2.730   6.381  0.00  0.00    +0.000 N 
ATOM     23  C   UNL     1      47.483   2.709   6.062  0.00  0.00    +0.000 C 
ATOM     24  O   UNL     1      47.106   2.788   4.901  0.00  0.00    +0.000 OA
ATOM     25  H   UNL     1      49.453   2.719   5.597  0.00  0.00    +0.000 HD
ATOM     26  H   UNL     1      49.157   2.394   7.267  0.00  0.00    +0.000 HD
ENDBRANCH  16  23
ENDBRANCH  15  20
ENDBRANCH   1  15
TORSDOF 5
ENDMDL
MODEL 3
REMARK VINA RESULT:    -7.697      3.099      7.066
REMARK INTER + INTRA:         -10.491
REMARK INTER:                  -9.955
REMARK INTRA:                  -0.536
REMARK UNBOUND:                -0.544
REMARK  Name = 
REMARK  5 active torsions:
REMARK  status: ('A' for Active; 'I' for Inactive)
REMARK    1  A    between atoms: C_2  and  C_4
REMARK    2  A    between atoms: C_8  and  C_9
REMARK    3  A    between atoms: C_9  and  O_10
REMARK    4  A    between atoms: O_10  and  C_11
REMARK    5  A    between atoms: C_16  and  C_17
REMARK                            x       y       z     vdW  Elec       q    Type
REMARK                         _______ _______ _______ _____ _____    ______ ____
ROOT
ATOM      1  O   UNL     1      44.038   4.638  10.884  0.00  0.00    +0.000 OA
ENDROOT
BRANCH   1   2
ATOM      2  C   UNL     1      45.055   4.929  11.744  0.00  0.00    +0.000 A 
ATOM      3  C   UNL     1      45.162   4.120  12.866  0.00  0.00    +0.000 A 
ATOM      4  N   UNL     1      46.069   4.284  13.848  0.00  0.00    +0.000 NA
ATOM      5  C   UNL     1      46.903   5.337  13.718  0.00  0.00    +0.000 A 
ATOM      6  F   UNL     1      47.789   5.494  14.714  0.00  0.00    +0.000 F 
ATOM      7  C   UNL     1      46.888   6.242  12.649  0.00  0.00    +0.000 A 
ATOM      8  C   UNL     1      45.929   6.006  11.639  0.00  0.00    +0.000 A 
BRANCH   7   9
ATOM      9  C   UNL     1      47.783   7.413  12.598  0.00  0.00    +0.000 A 
ATOM     10  C   UNL     1      48.826   7.500  11.655  0.00  0.00    +0.000 A 
ATOM     11  C   UNL     1      49.636   8.630  11.579  0.00  0.00    +0.000 A 
ATOM     12  C   UNL     1      49.428   9.696  12.443  0.00  0.00    +0.000 A 
ATOM     13  C   UNL     1      48.414   9.631  13.400  0.00  0.00    +0.000 A 
ATOM     14  C   UNL     1      47.605   8.500  13.469  0.00  0.00    +0.000 A 
ENDBRANCH   7   9
ENDBRANCH   1   2
BRANCH   1  15
ATOM     15  C   UNL     1      44.034   3.323  10.321  0.00  0.00    +0.000 C 
BRANCH  15  20
ATOM     16  C   UNL     1      46.436   2.050   7.669  0.00  0.00    +0.000 A 
ATOM     17  C   UNL     1      46.861   3.255   7.115  0.00  0.00    +0.000 A 
ATOM     18  C   UNL     1      46.334   4.417   7.641  0.00  0.00    +0.000 A 
ATOM     19  N   UNL     1      45.450   4.448   8.664  0.00  0.00    +0.000 NA
ATOM     20  C   UNL     1      45.031   3.265   9.183  0.00  0.00    +0.000 A 
ATOM     21  C   UNL     1      45.499   2.047   8.705  0.00  0.00    +0.000 A 
BRANCH  16  23
ATOM     22  N   UNL     1      47.514   0.730   5.939  0.00  0.00    +0.000 N 
ATOM     23  C   UNL     1      46.938   0.745   7.178  0.00  0.00    +0.000 C 
ATOM     24  O   UNL     1      46.889  -0.262   7.869  0.00  0.00    +0.000 OA
ATOM     25  H   UNL     1      47.975  -0.134   5.679  0.00  0.00    +0.000 HD
ATOM     26  H   UNL     1      47.815   1.574   5.476  0.00  0.00    +0.000 HD
ENDBRANCH  16  23
ENDBRANCH  15  20
ENDBRANCH   1  15
TORSDOF 5
ENDMDL
MODEL 4
REMARK VINA RESULT:    -7.611      2.026      3.363
REMARK INTER + INTRA:         -10.380
REMARK INTER:                  -9.876
REMARK INTRA:                  -0.503
REMARK UNBOUND:                -0.544
REMARK  Name = 
REMARK  5 active torsions:
REMARK  status: ('A' for Active; 'I' for Inactive)
REMARK    1  A    between atoms: C_2  and  C_4
REMARK    2  A    between atoms: C_8  and  C_9
REMARK    3  A    between atoms: C_9  and  O_10
REMARK    4  A    between atoms: O_10  and  C_11
REMARK    5  A    between atoms: C_16  and  C_17
REMARK                            x       y       z     vdW  Elec       q    Type
REMARK                         _______ _______ _______ _____ _____    ______ ____
ROOT
ATOM      1  O   UNL     1      45.005   6.317  10.949  0.00  0.00    +0.000 OA
ENDROOT
BRANCH   1   2
ATOM      2  C   UNL     1      44.843   5.090  10.377  0.00  0.00    +0.000 A 
ATOM      3  C   UNL     1      43.954   4.231  11.006  0.00  0.00    +0.000 A 
ATOM      4  N   UNL     1      43.702   2.966  10.617  0.00  0.00    +0.000 NA
ATOM      5  C   UNL     1      44.401   2.521   9.552  0.00  0.00    +0.000 A 
ATOM      6  F   UNL     1      44.149   1.253   9.188  0.00  0.00    +0.000 F 
ATOM      7  C   UNL     1      45.343   3.275   8.841  0.00  0.00    +0.000 A 
ATOM      8  C   UNL     1      45.548   4.602   9.282  0.00  0.00    +0.000 A 
BRANCH   7   9
ATOM      9  C   UNL     1      46.123   2.709   7.725  0.00  0.00    +0.000 A 
ATOM     10  C   UNL     1      46.684   1.419   7.801  0.00  0.00    +0.000 A 
ATOM     11  C   UNL     1      47.376   0.870   6.725  0.00  0.00    +0.000 A 
ATOM     12  C   UNL     1      47.528   1.596   5.551  0.00  0.00    +0.000 A 
ATOM     13  C   UNL     1      46.998   2.883   5.453  0.00  0.00    +0.000 A 
ATOM     14  C   UNL     1      46.304   3.425   6.530  0.00  0.00    +0.000 A 
ENDBRANCH   7   9
ENDBRANCH   1   2
BRANCH   1  15
ATOM     15  C   UNL     1      45.446   6.335  12.309  0.00  0.00    +0.000 C 
BRANCH  15  20
ATOM     16  C   UNL     1      48.143   9.006  12.190  0.00  0.00    +0.000 A 
ATOM     17  C   UNL     1      49.258   8.254  12.550  0.00  0.00    +0.000 A 
ATOM     18  C   UNL     1      49.062   6.913  12.814  0.00  0.00    +0.000 A 
ATOM     19  N   UNL     1      47.863   6.296  12.727  0.00  0.00    +0.000 NA
ATOM     20  C   UNL     1      46.780   7.045  12.392  0.00  0.00    +0.000 A 
ATOM     21  C   UNL     1      46.884   8.405  12.123  0.00  0.00    +0.000 A 
BRANCH  16  23
ATOM     22  N   UNL     1      48.962  10.807  10.782  0.00  0.00    +0.000 N 
ATOM     23  C   UNL     1      48.242  10.453  11.888  0.00  0.00    +0.000 C 
ATOM     24  O   UNL     1      47.662  11.291  12.564  0.00  0.00    +0.000 OA
ATOM     25  H   UNL     1      48.902  11.781  10.511  0.00  0.00    +0.000 HD
ATOM     26  H   UNL     1      49.207  10.141  10.065  0.00  0.00    +0.000 HD
ENDBRANCH  16  23
ENDBRANCH  15  20
ENDBRANCH   1  15
TORSDOF 5
ENDMDL
MODEL 5
REMARK VINA RESULT:    -7.507      1.911      2.878
REMARK INTER + INTRA:         -10.245
REMARK INTER:                  -9.736
REMARK INTRA:                  -0.510
REMARK UNBOUND:                -0.544
REMARK  Name = 
REMARK  5 active torsions:
REMARK  status: ('A' for Active; 'I' for Inactive)
REMARK    1  A    between atoms: C_2  and  C_4
REMARK    2  A    between atoms: C_8  and  C_9
REMARK    3  A    between atoms: C_9  and  O_10
REMARK    4  A    between atoms: O_10  and  C_11
REMARK    5  A    between atoms: C_16  and  C_17
REMARK                            x       y       z     vdW  Elec       q    Type
REMARK                         _______ _______ _______ _____ _____    ______ ____
ROOT
ATOM      1  O   UNL     1      44.590   6.072  11.343  0.00  0.00    +0.000 OA
ENDROOT
BRANCH   1   2
ATOM      2  C   UNL     1      44.503   4.869  10.707  0.00  0.00    +0.000 A 
ATOM      3  C   UNL     1      43.656   3.931  11.279  0.00  0.00    +0.000 A 
ATOM      4  N   UNL     1      43.479   2.676  10.823  0.00  0.00    +0.000 NA
ATOM      5  C   UNL     1      44.214   2.325   9.747  0.00  0.00    +0.000 A 
ATOM      6  F   UNL     1      44.037   1.066   9.316  0.00  0.00    +0.000 F 
ATOM      7  C   UNL     1      45.121   3.165   9.088  0.00  0.00    +0.000 A 
ATOM      8  C   UNL     1      45.247   4.477   9.599  0.00  0.00    +0.000 A 
BRANCH   7   9
ATOM      9  C   UNL     1      45.944   2.701   7.957  0.00  0.00    +0.000 A 
ATOM     10  C   UNL     1      46.171   3.515   6.830  0.00  0.00    +0.000 A 
ATOM     11  C   UNL     1      46.990   3.091   5.787  0.00  0.00    +0.000 A 
ATOM     12  C   UNL     1      47.598   1.844   5.842  0.00  0.00    +0.000 A 
ATOM     13  C   UNL     1      47.378   1.008   6.938  0.00  0.00    +0.000 A 
ATOM     14  C   UNL     1      46.561   1.439   7.979  0.00  0.00    +0.000 A 
ENDBRANCH   7   9
ENDBRANCH   1   2
BRANCH   1  15
ATOM     15  C   UNL     1      45.640   6.945  10.918  0.00  0.00    +0.000 C 
BRANCH  15  20
ATOM     16  C   UNL     1      49.027   7.371  12.583  0.00  0.00    +0.000 A 
ATOM     17  C   UNL     1      48.825   6.645  13.754  0.00  0.00    +0.000 A 
ATOM     18  C   UNL     1      47.589   6.058  13.932  0.00  0.00    +0.000 A 
ATOM     19  N   UNL     1      46.581   6.136  13.034  0.00  0.00    +0.000 NA
ATOM     20  C   UNL     1      46.786   6.863  11.905  0.00  0.00    +0.000 A 
ATOM     21  C   UNL     1      47.995   7.499  11.651  0.00  0.00    +0.000 A 
BRANCH  16  23
ATOM     22  N   UNL     1      51.314   7.889  13.214  0.00  0.00    +0.000 N 
ATOM     23  C   UNL     1      50.316   8.042  12.294  0.00  0.00    +0.000 C 
ATOM     24  O   UNL     1      50.498   8.660  11.255  0.00  0.00    +0.000 OA
ATOM     25  H   UNL     1      52.226   8.233  12.935  0.00  0.00    +0.000 HD
ATOM     26  H   UNL     1      51.286   7.171  13.922  0.00  0.00    +0.000 HD
ENDBRANCH  16  23
ENDBRANCH  15  20
ENDBRANCH   1  15
TORSDOF 5
ENDMDL
MODEL 6
REMARK VINA RESULT:    -7.404      2.404      4.000
REMARK INTER + INTRA:         -10.112
REMARK INTER:                  -9.676
REMARK INTRA:                  -0.437
REMARK UNBOUND:                -0.544
REMARK  Name = 
REMARK  5 active torsions:
REMARK  status: ('A' for Active; 'I' for Inactive)
REMARK    1  A    between atoms: C_2  and  C_4
REMARK    2  A    between atoms: C_8  and  C_9
REMARK    3  A    between atoms: C_9  and  O_10
REMARK    4  A    between atoms: O_10  and  C_11
REMARK    5  A    between atoms: C_16  and  C_17
REMARK                            x       y       z     vdW  Elec       q    Type
REMARK                         _______ _______ _______ _____ _____    ______ ____
ROOT
ATOM      1  O   UNL     1      44.734   6.079  11.451  0.00  0.00    +0.000 OA
ENDROOT
BRANCH   1   2
ATOM      2  C   UNL     1      44.610   4.891  10.795  0.00  0.00    +0.000 A 
ATOM      3  C   UNL     1      43.736   3.968  11.352  0.00  0.00    +0.000 A 
ATOM      4  N   UNL     1      43.521   2.727  10.874  0.00  0.00    +0.000 NA
ATOM      5  C   UNL     1      44.242   2.375   9.790  0.00  0.00    +0.000 A 
ATOM      6  F   UNL     1      44.026   1.129   9.336  0.00  0.00    +0.000 F 
ATOM      7  C   UNL     1      45.172   3.199   9.143  0.00  0.00    +0.000 A 
ATOM      8  C   UNL     1      45.338   4.496   9.677  0.00  0.00    +0.000 A 
BRANCH   7   9
ATOM      9  C   UNL     1      45.977   2.730   8.001  0.00  0.00    +0.000 A 
ATOM     10  C   UNL     1      46.517   1.430   7.966  0.00  0.00    +0.000 A 
ATOM     11  C   UNL     1      47.234   0.976   6.863  0.00  0.00    +0.000 A 
ATOM     12  C   UNL     1      47.433   1.810   5.771  0.00  0.00    +0.000 A 
ATOM     13  C   UNL     1      46.926   3.110   5.784  0.00  0.00    +0.000 A 
ATOM     14  C   UNL     1      46.207   3.556   6.888  0.00  0.00    +0.000 A 
ENDBRANCH   7   9
ENDBRANCH   1   2
BRANCH   1  15
ATOM     15  C   UNL     1      46.064   6.494  11.774  0.00  0.00    +0.000 C 
BRANCH  15  20
ATOM     16  C   UNL     1      45.061  10.157  11.732  0.00  0.00    +0.000 A 
ATOM     17  C   UNL     1      46.287  10.756  12.011  0.00  0.00    +0.000 A 
ATOM     18  C   UNL     1      47.372   9.925  12.200  0.00  0.00    +0.000 A 
ATOM     19  N   UNL     1      47.313   8.578  12.113  0.00  0.00    +0.000 NA
ATOM     20  C   UNL     1      46.108   8.005  11.858  0.00  0.00    +0.000 A 
ATOM     21  C   UNL     1      44.960   8.765  11.668  0.00  0.00    +0.000 A 
BRANCH  16  23
ATOM     22  N   UNL     1      43.895  12.285  11.830  0.00  0.00    +0.000 N 
ATOM     23  C   UNL     1      43.833  10.957  11.514  0.00  0.00    +0.000 C 
ATOM     24  O   UNL     1      42.827  10.466  11.023  0.00  0.00    +0.000 OA
ATOM     25  H   UNL     1      43.098  12.842  11.544  0.00  0.00    +0.000 HD
ATOM     26  H   UNL     1      44.771  12.765  11.966  0.00  0.00    +0.000 HD
ENDBRANCH  16  23
ENDBRANCH  15  20
ENDBRANCH   1  15
TORSDOF 5
ENDMDL
MODEL 7
REMARK VINA RESULT:    -7.231      3.077      4.684
REMARK INTER + INTRA:          -9.889
REMARK INTER:                  -9.068
REMARK INTRA:                  -0.821
REMARK UNBOUND:                -0.544
REMARK  Name = 
REMARK  5 active torsions:
REMARK  status: ('A' for Active; 'I' for Inactive)
REMARK    1  A    between atoms: C_2  and  C_4
REMARK    2  A    between atoms: C_8  and  C_9
REMARK    3  A    between atoms: C_9  and  O_10
REMARK    4  A    between atoms: O_10  and  C_11
REMARK    5  A    between atoms: C_16  and  C_17
REMARK                            x       y       z     vdW  Elec       q    Type
REMARK                         _______ _______ _______ _____ _____    ______ ____
ROOT
ATOM      1  O   UNL     1      48.698   7.135  13.826  0.00  0.00    +0.000 OA
ENDROOT
BRANCH   1   2
ATOM      2  C   UNL     1      47.545   7.140  13.098  0.00  0.00    +0.000 A 
ATOM      3  C   UNL     1      46.696   8.219  13.301  0.00  0.00    +0.000 A 
ATOM      4  N   UNL     1      45.494   8.372  12.711  0.00  0.00    +0.000 NA
ATOM      5  C   UNL     1      45.103   7.374  11.891  0.00  0.00    +0.000 A 
ATOM      6  F   UNL     1      43.896   7.536  11.325  0.00  0.00    +0.000 F 
ATOM      7  C   UNL     1      45.852   6.223  11.617  0.00  0.00    +0.000 A 
ATOM      8  C   UNL     1      47.113   6.129  12.247  0.00  0.00    +0.000 A 
BRANCH   7   9
ATOM      9  C   UNL     1      45.339   5.136  10.762  0.00  0.00    +0.000 A 
ATOM     10  C   UNL     1      45.570   5.123   9.373  0.00  0.00    +0.000 A 
ATOM     11  C   UNL     1      45.127   4.069   8.579  0.00  0.00    +0.000 A 
ATOM     12  C   UNL     1      44.440   3.007   9.150  0.00  0.00    +0.000 A 
ATOM     13  C   UNL     1      44.180   3.001  10.521  0.00  0.00    +0.000 A 
ATOM     14  C   UNL     1      44.629   4.056  11.311  0.00  0.00    +0.000 A 
ENDBRANCH   7   9
ENDBRANCH   1   2
BRANCH   1  15
ATOM     15  C   UNL     1      48.584   7.489  15.206  0.00  0.00    +0.000 C 
BRANCH  15  20
ATOM     16  C   UNL     1      48.692   4.362  17.360  0.00  0.00    +0.000 A 
ATOM     17  C   UNL     1      50.058   4.282  17.619  0.00  0.00    +0.000 A 
ATOM     18  C   UNL     1      50.867   5.257  17.070  0.00  0.00    +0.000 A 
ATOM     19  N   UNL     1      50.407   6.282  16.318  0.00  0.00    +0.000 NA
ATOM     20  C   UNL     1      49.075   6.338  16.059  0.00  0.00    +0.000 A 
ATOM     21  C   UNL     1      48.190   5.391  16.559  0.00  0.00    +0.000 A 
BRANCH  16  23
ATOM     22  N   UNL     1      48.039   2.809  19.108  0.00  0.00    +0.000 N 
ATOM     23  C   UNL     1      47.736   3.367  17.899  0.00  0.00    +0.000 C 
ATOM     24  O   UNL     1      46.696   3.096  17.316  0.00  0.00    +0.000 OA
ATOM     25  H   UNL     1      47.311   2.240  19.525  0.00  0.00    +0.000 HD
ATOM     26  H   UNL     1      48.727   3.210  19.728  0.00  0.00    +0.000 HD
ENDBRANCH  16  23
ENDBRANCH  15  20
ENDBRANCH   1  15
TORSDOF 5
ENDMDL
MODEL 8
REMARK VINA RESULT:    -7.144      1.854      2.714
REMARK INTER + INTRA:          -9.777
REMARK INTER:                  -9.057
REMARK INTRA:                  -0.720
REMARK UNBOUND:                -0.544
REMARK  Name = 
REMARK  5 active torsions:
REMARK  status: ('A' for Active; 'I' for Inactive)
REMARK    1  A    between atoms: C_2  and  C_4
REMARK    2  A    between atoms: C_8  and  C_9
REMARK    3  A    between atoms: C_9  and  O_10
REMARK    4  A    between atoms: O_10  and  C_11
REMARK    5  A    between atoms: C_16  and  C_17
REMARK                            x       y       z     vdW  Elec       q    Type
REMARK                         _______ _______ _______ _____ _____    ______ ____
ROOT
ATOM      1  O   UNL     1      46.315   7.258  13.163  0.00  0.00    +0.000 OA
ENDROOT
BRANCH   1   2
ATOM      2  C   UNL     1      45.528   6.389  12.467  0.00  0.00    +0.000 A 
ATOM      3  C   UNL     1      44.271   6.137  12.998  0.00  0.00    +0.000 A 
ATOM      4  N   UNL     1      43.377   5.273  12.479  0.00  0.00    +0.000 NA
ATOM      5  C   UNL     1      43.771   4.598  11.380  0.00  0.00    +0.000 A 
ATOM      6  F   UNL     1      42.873   3.730  10.886  0.00  0.00    +0.000 F 
ATOM      7  C   UNL     1      45.017   4.740  10.757  0.00  0.00    +0.000 A 
ATOM      8  C   UNL     1      45.904   5.677  11.333  0.00  0.00    +0.000 A 
BRANCH   7   9
ATOM      9  C   UNL     1      45.413   3.924   9.595  0.00  0.00    +0.000 A 
ATOM     10  C   UNL     1      45.346   2.517   9.627  0.00  0.00    +0.000 A 
ATOM     11  C   UNL     1      45.673   1.754   8.510  0.00  0.00    +0.000 A 
ATOM     12  C   UNL     1      46.077   2.374   7.336  0.00  0.00    +0.000 A 
ATOM     13  C   UNL     1      46.170   3.765   7.279  0.00  0.00    +0.000 A 
ATOM     14  C   UNL     1      45.839   4.524   8.398  0.00  0.00    +0.000 A 
ENDBRANCH   7   9
ENDBRANCH   1   2
BRANCH   1  15
ATOM     15  C   UNL     1      47.707   6.941  13.235  0.00  0.00    +0.000 C 
BRANCH  15  20
ATOM     16  C   UNL     1      47.999   4.770  16.338  0.00  0.00    +0.000 A 
ATOM     17  C   UNL     1      48.658   5.646  17.197  0.00  0.00    +0.000 A 
ATOM     18  C   UNL     1      48.972   6.898  16.709  0.00  0.00    +0.000 A 
ATOM     19  N   UNL     1      48.663   7.320  15.462  0.00  0.00    +0.000 NA
ATOM     20  C   UNL     1      48.036   6.450  14.630  0.00  0.00    +0.000 A 
ATOM     21  C   UNL     1      47.694   5.165  15.033  0.00  0.00    +0.000 A 
BRANCH  16  23
ATOM     22  N   UNL     1      48.559   2.424  16.615  0.00  0.00    +0.000 N 
ATOM     23  C   UNL     1      47.618   3.403  16.761  0.00  0.00    +0.000 C 
ATOM     24  O   UNL     1      46.530   3.168  17.269  0.00  0.00    +0.000 OA
ATOM     25  H   UNL     1      48.334   1.530  17.037  0.00  0.00    +0.000 HD
ATOM     26  H   UNL     1      49.535   2.634  16.468  0.00  0.00    +0.000 HD
ENDBRANCH  16  23
ENDBRANCH  15  20
ENDBRANCH   1  15
TORSDOF 5
ENDMDL
MODEL 9
REMARK VINA RESULT:    -6.964      3.702      5.609
REMARK INTER + INTRA:          -9.543
REMARK INTER:                  -8.690
REMARK INTRA:                  -0.854
REMARK UNBOUND:                -0.544
REMARK  Name = 
REMARK  5 active torsions:
REMARK  status: ('A' for Active; 'I' for Inactive)
REMARK    1  A    between atoms: C_2  and  C_4
REMARK    2  A    between atoms: C_8  and  C_9
REMARK    3  A    between atoms: C_9  and  O_10
REMARK    4  A    between atoms: O_10  and  C_11
REMARK    5  A    between atoms: C_16  and  C_17
REMARK                            x       y       z     vdW  Elec       q    Type
REMARK                         _______ _______ _______ _____ _____    ______ ____
ROOT
ATOM      1  O   UNL     1      49.158   6.651  14.862  0.00  0.00    +0.000 OA
ENDROOT
BRANCH   1   2
ATOM      2  C   UNL     1      48.074   6.815  14.052  0.00  0.00    +0.000 A 
ATOM      3  C   UNL     1      47.658   8.122  13.837  0.00  0.00    +0.000 A 
ATOM      4  N   UNL     1      46.582   8.476  13.109  0.00  0.00    +0.000 NA
ATOM      5  C   UNL     1      45.859   7.465  12.586  0.00  0.00    +0.000 A 
ATOM      6  F   UNL     1      44.781   7.836  11.877  0.00  0.00    +0.000 F 
ATOM      7  C   UNL     1      46.153   6.104  12.743  0.00  0.00    +0.000 A 
ATOM      8  C   UNL     1      47.307   5.795  13.498  0.00  0.00    +0.000 A 
BRANCH   7   9
ATOM      9  C   UNL     1      45.285   5.044  12.200  0.00  0.00    +0.000 A 
ATOM     10  C   UNL     1      44.516   4.219  13.045  0.00  0.00    +0.000 A 
ATOM     11  C   UNL     1      43.659   3.254  12.524  0.00  0.00    +0.000 A 
ATOM     12  C   UNL     1      43.553   3.085  11.150  0.00  0.00    +0.000 A 
ATOM     13  C   UNL     1      44.315   3.875  10.289  0.00  0.00    +0.000 A 
ATOM     14  C   UNL     1      45.167   4.841  10.815  0.00  0.00    +0.000 A 
ENDBRANCH   7   9
ENDBRANCH   1   2
BRANCH   1  15
ATOM     15  C   UNL     1      48.994   7.028  16.232  0.00  0.00    +0.000 C 
BRANCH  15  20
ATOM     16  C   UNL     1      49.413   3.474  17.502  0.00  0.00    +0.000 A 
ATOM     17  C   UNL     1      48.712   3.552  18.703  0.00  0.00    +0.000 A 
ATOM     18  C   UNL     1      48.144   4.767  19.030  0.00  0.00    +0.000 A 
ATOM     19  N   UNL     1      48.217   5.867  18.247  0.00  0.00    +0.000 NA
ATOM     20  C   UNL     1      48.918   5.781  17.087  0.00  0.00    +0.000 A 
ATOM     21  C   UNL     1      49.534   4.602  16.687  0.00  0.00    +0.000 A 
BRANCH  16  23
ATOM     22  N   UNL     1      51.007   1.683  17.886  0.00  0.00    +0.000 N 
ATOM     23  C   UNL     1      50.062   2.219  17.058  0.00  0.00    +0.000 C 
ATOM     24  O   UNL     1      49.730   1.656  16.025  0.00  0.00    +0.000 OA
ATOM     25  H   UNL     1      51.337   0.758  17.638  0.00  0.00    +0.000 HD
ATOM     26  H   UNL     1      51.097   1.964  18.851  0.00  0.00    +0.000 HD
ENDBRANCH  16  23
ENDBRANCH  15  20
ENDBRANCH   1  15
TORSDOF 5
ENDMDL
