MODEL 1
REMARK VINA RESULT:    -8.392      0.000      0.000
REMARK INTER + INTRA:         -11.529
REMARK INTER:                 -10.844
REMARK INTRA:                  -0.684
REMARK UNBOUND:                -0.684
REMARK  Name = 
REMARK  5 active torsions:
REMARK  status: ('A' for Active; 'I' for Inactive)
REMARK    1  A    between atoms: C_2  and  C_4
REMARK    2  A    between atoms: C_8  and  C_9
REMARK    3  A    between atoms: C_9  and  C_10
REMARK    4  A    between atoms: C_10  and  C_11
REMARK    5  A    between atoms: C_15  and  C_16
REMARK                            x       y       z     vdW  Elec       q    Type
REMARK                         _______ _______ _______ _____ _____    ______ ____
ROOT
ATOM      1  C   UNL     1      43.972   6.495  11.400  0.00  0.00    +0.000 C 
ENDROOT
BRANCH   1   2
ATOM      2  C   UNL     1      44.016   5.053  10.955  0.00  0.00    +0.000 A 
ATOM      3  C   UNL     1      43.250   4.093  11.599  0.00  0.00    +0.000 A 
ATOM      4  N   UNL     1      43.222   2.784  11.259  0.00  0.00    +0.000 NA
ATOM      5  C   UNL     1      44.002   2.419  10.223  0.00  0.00    +0.000 A 
ATOM      6  C   UNL     1      44.834   3.277   9.506  0.00  0.00    +0.000 A 
ATOM      7  C   UNL     1      44.836   4.614   9.918  0.00  0.00    +0.000 A 
BRANCH   6   8
ATOM      8  C   UNL     1      45.645   2.825   8.375  0.00  0.00    +0.000 A 
ATOM      9  C   UNL     1      45.958   3.691   7.313  0.00  0.00    +0.000 A 
ATOM     10  C   UNL     1      46.773   3.269   6.264  0.00  0.00    +0.000 A 
ATOM     11  C   UNL     1      47.294   1.977   6.260  0.00  0.00    +0.000 A 
ATOM     12  C   UNL     1      46.976   1.098   7.291  0.00  0.00    +0.000 A 
ATOM     13  C   UNL     1      46.152   1.515   8.334  0.00  0.00    +0.000 A 
ENDBRANCH   6   8
ENDBRANCH   1   2
BRANCH   1  14
ATOM     14  C   UNL     1      45.332   7.206  11.322  0.00  0.00    +0.000 C 
BRANCH  14  19
ATOM     15  C   UNL     1      47.169   5.437  14.157  0.00  0.00    +0.000 A 
ATOM     16  C   UNL     1      48.093   6.424  14.454  0.00  0.00    +0.000 A 
ATOM     17  N   UNL     1      48.172   7.601  13.782  0.00  0.00    +0.000 NA
ATOM     18  C   UNL     1      47.269   7.796  12.797  0.00  0.00    +0.000 A 
ATOM     19  C   UNL     1      46.281   6.887  12.441  0.00  0.00    +0.000 A 
ATOM     20  C   UNL     1      46.238   5.674  13.142  0.00  0.00    +0.000 A 
BRANCH  15  22
ATOM     21  N   UNL     1      46.896   4.277  16.264  0.00  0.00    +0.000 N 
ATOM     22  C   UNL     1      47.179   4.181  14.926  0.00  0.00    +0.000 C 
ATOM     23  O   UNL     1      47.399   3.107  14.397  0.00  0.00    +0.000 OA
ATOM     24  H   UNL     1      46.795   3.398  16.765  0.00  0.00    +0.000 HD
ATOM     25  H   UNL     1      46.457   5.092  16.666  0.00  0.00    +0.000 HD
ENDBRANCH  15  22
ENDBRANCH  14  19
ENDBRANCH   1  14
TORSDOF 5
ENDMDL
MODEL 2
REMARK VINA RESULT:    -8.137      2.784      6.780
REMARK INTER + INTRA:         -11.200
REMARK INTER:                 -10.301
REMARK INTRA:                  -0.899
REMARK UNBOUND:                -0.684
REMARK  Name = 
REMARK  5 active torsions:
REMARK  status: ('A' for Active; 'I' for Inactive)
REMARK    1  A    between atoms: C_2  and  C_4
REMARK    2  A    between atoms: C_8  and  C_9
REMARK    3  A    between atoms: C_9  and  C_10
REMARK    4  A    between atoms: C_10  and  C_11
REMARK    5  A    between atoms: C_15  and  C_16
REMARK                            x       y       z     vdW  Elec       q    Type
REMARK                         _______ _______ _______ _____ _____    ______ ____
ROOT
ATOM      1  C   UNL     1      44.455   3.097  11.753  0.00  0.00    +0.000 C 
ENDROOT
BRANCH   1   2
ATOM      2  C   UNL     1      45.477   4.007  12.390  0.00  0.00    +0.000 A 
ATOM      3  C   UNL     1      46.448   3.494  13.236  0.00  0.00    +0.000 A 
ATOM      4  N   UNL     1      47.407   4.235  13.839  0.00  0.00    +0.000 NA
ATOM      5  C   UNL     1      47.388   5.558  13.583  0.00  0.00    +0.000 A 
ATOM      6  C   UNL     1      46.456   6.203  12.772  0.00  0.00    +0.000 A 
ATOM      7  C   UNL     1      45.478   5.387  12.193  0.00  0.00    +0.000 A 
BRANCH   6   8
ATOM      8  C   UNL     1      46.499   7.643  12.515  0.00  0.00    +0.000 A 
ATOM      9  C   UNL     1      47.714   8.297  12.250  0.00  0.00    +0.000 A 
ATOM     10  C   UNL     1      47.742   9.659  11.955  0.00  0.00    +0.000 A 
ATOM     11  C   UNL     1      46.557  10.391  11.915  0.00  0.00    +0.000 A 
ATOM     12  C   UNL     1      45.346   9.764  12.198  0.00  0.00    +0.000 A 
ATOM     13  C   UNL     1      45.318   8.406  12.504  0.00  0.00    +0.000 A 
ENDBRANCH   6   8
ENDBRANCH   1   2
BRANCH   1  14
ATOM     14  C   UNL     1      43.986   3.570  10.368  0.00  0.00    +0.000 C 
BRANCH  14  19
ATOM     15  C   UNL     1      46.406   2.122   7.802  0.00  0.00    +0.000 A 
ATOM     16  C   UNL     1      46.843   3.308   7.236  0.00  0.00    +0.000 A 
ATOM     17  N   UNL     1      46.386   4.529   7.613  0.00  0.00    +0.000 NA
ATOM     18  C   UNL     1      45.480   4.552   8.614  0.00  0.00    +0.000 A 
ATOM     19  C   UNL     1      45.000   3.426   9.271  0.00  0.00    +0.000 A 
ATOM     20  C   UNL     1      45.479   2.179   8.845  0.00  0.00    +0.000 A 
BRANCH  15  22
ATOM     21  N   UNL     1      47.699   0.894   6.163  0.00  0.00    +0.000 N 
ATOM     22  C   UNL     1      46.942   0.843   7.306  0.00  0.00    +0.000 C 
ATOM     23  O   UNL     1      46.749  -0.204   7.896  0.00  0.00    +0.000 OA
ATOM     24  H   UNL     1      48.156   0.029   5.890  0.00  0.00    +0.000 HD
ATOM     25  H   UNL     1      48.090   1.756   5.813  0.00  0.00    +0.000 HD
ENDBRANCH  15  22
ENDBRANCH  14  19
ENDBRANCH   1  14
TORSDOF 5
ENDMDL
MODEL 3
REMARK VINA RESULT:    -7.934      3.017      6.917
REMARK INTER + INTRA:         -10.938
REMARK INTER:                 -10.090
REMARK INTRA:                  -0.848
REMARK UNBOUND:                -0.684
REMARK  Name = 
REMARK  5 active torsions:
REMARK  status: ('A' for Active; 'I' for Inactive)
REMARK    1  A    between atoms: C_2  and  C_4
REMARK    2  A    between atoms: C_8  and  C_9
REMARK    3  A    between atoms: C_9  and  C_10
REMARK    4  A    between atoms: C_10  and  C_11
REMARK    5  A    between atoms: C_15  and  C_16
REMARK                            x       y       z     vdW  Elec       q    Type
REMARK                         _______ _______ _______ _____ _____    ______ ____
ROOT
ATOM      1  C   UNL     1      43.768   4.353  10.676  0.00  0.00    +0.000 C 
ENDROOT
BRANCH   1   2
ATOM      2  C   UNL     1      44.860   4.789  11.622  0.00  0.00    +0.000 A 
ATOM      3  C   UNL     1      45.177   4.023  12.733  0.00  0.00    +0.000 A 
ATOM      4  N   UNL     1      46.146   4.335  13.625  0.00  0.00    +0.000 NA
ATOM      5  C   UNL     1      46.830   5.472  13.392  0.00  0.00    +0.000 A 
ATOM      6  C   UNL     1      46.597   6.341  12.327  0.00  0.00    +0.000 A 
ATOM      7  C   UNL     1      45.569   5.976  11.451  0.00  0.00    +0.000 A 
BRANCH   6   8
ATOM      8  C   UNL     1      47.387   7.554  12.114  0.00  0.00    +0.000 A 
ATOM      9  C   UNL     1      46.809   8.829  12.238  0.00  0.00    +0.000 A 
ATOM     10  C   UNL     1      47.580   9.981  12.084  0.00  0.00    +0.000 A 
ATOM     11  C   UNL     1      48.942   9.879  11.809  0.00  0.00    +0.000 A 
ATOM     12  C   UNL     1      49.527   8.625  11.660  0.00  0.00    +0.000 A 
ATOM     13  C   UNL     1      48.756   7.474  11.802  0.00  0.00    +0.000 A 
ENDBRANCH   6   8
ENDBRANCH   1   2
BRANCH   1  14
ATOM     14  C   UNL     1      44.146   4.489   9.192  0.00  0.00    +0.000 C 
BRANCH  14  19
ATOM     15  C   UNL     1      46.595   2.418   7.131  0.00  0.00    +0.000 A 
ATOM     16  C   UNL     1      46.377   1.186   7.724  0.00  0.00    +0.000 A 
ATOM     17  N   UNL     1      45.516   0.996   8.756  0.00  0.00    +0.000 NA
ATOM     18  C   UNL     1      44.833   2.080   9.181  0.00  0.00    +0.000 A 
ATOM     19  C   UNL     1      44.952   3.352   8.635  0.00  0.00    +0.000 A 
ATOM     20  C   UNL     1      45.863   3.518   7.582  0.00  0.00    +0.000 A 
BRANCH  15  22
ATOM     21  N   UNL     1      48.876   2.748   6.390  0.00  0.00    +0.000 N 
ATOM     22  C   UNL     1      47.571   2.529   6.033  0.00  0.00    +0.000 C 
ATOM     23  O   UNL     1      47.241   2.404   4.868  0.00  0.00    +0.000 OA
ATOM     24  H   UNL     1      49.558   2.713   5.637  0.00  0.00    +0.000 HD
ATOM     25  H   UNL     1      49.213   2.590   7.328  0.00  0.00    +0.000 HD
ENDBRANCH  15  22
ENDBRANCH  14  19
ENDBRANCH   1  14
TORSDOF 5
ENDMDL
MODEL 4
REMARK VINA RESULT:    -7.847      1.930      2.942
REMARK INTER + INTRA:         -10.825
REMARK INTER:                  -9.952
REMARK INTRA:                  -0.872
REMARK UNBOUND:                -0.684
REMARK  Name = 
REMARK  5 active torsions:
REMARK  status: ('A' for Active; 'I' for Inactive)
REMARK    1  A    between atoms: C_2  and  C_4
REMARK    2  A    between atoms: C_8  and  C_9
REMARK    3  A    between atoms: C_9  and  C_10
REMARK    4  A    between atoms: C_10  and  C_11
REMARK    5  A    between atoms: C_15  and  C_16
REMARK                            x       y       z     vdW  Elec       q    Type
REMARK                         _______ _______ _______ _____ _____    ______ ____
ROOT
ATOM      1  C   UNL     1      44.169   6.255  11.116  0.00  0.00    +0.000 C 
ENDROOT
BRANCH   1   2
ATOM      2  C   UNL     1      44.228   4.827  10.631  0.00  0.00    +0.000 A 
ATOM      3  C   UNL     1      43.444   3.849  11.224  0.00  0.00    +0.000 A 
ATOM      4  N   UNL     1      43.426   2.550  10.845  0.00  0.00    +0.000 NA
ATOM      5  C   UNL     1      44.237   2.215   9.823  0.00  0.00    +0.000 A 
ATOM      6  C   UNL     1      45.090   3.093   9.157  0.00  0.00    +0.000 A 
ATOM      7  C   UNL     1      45.079   4.418   9.607  0.00  0.00    +0.000 A 
BRANCH   6   8
ATOM      8  C   UNL     1      45.935   2.674   8.038  0.00  0.00    +0.000 A 
ATOM      9  C   UNL     1      46.503   1.389   7.999  0.00  0.00    +0.000 A 
ATOM     10  C   UNL     1      47.265   0.978   6.906  0.00  0.00    +0.000 A 
ATOM     11  C   UNL     1      47.468   1.841   5.831  0.00  0.00    +0.000 A 
ATOM     12  C   UNL     1      46.932   3.126   5.863  0.00  0.00    +0.000 A 
ATOM     13  C   UNL     1      46.181   3.541   6.959  0.00  0.00    +0.000 A 
ENDBRANCH   6   8
ENDBRANCH   1   2
BRANCH   1  14
ATOM     14  C   UNL     1      44.664   6.437  12.560  0.00  0.00    +0.000 C 
BRANCH  14  19
ATOM     15  C   UNL     1      48.252   7.708  12.331  0.00  0.00    +0.000 A 
ATOM     16  C   UNL     1      48.871   6.719  13.078  0.00  0.00    +0.000 A 
ATOM     17  N   UNL     1      48.200   5.695  13.664  0.00  0.00    +0.000 NA
ATOM     18  C   UNL     1      46.865   5.655  13.466  0.00  0.00    +0.000 A 
ATOM     19  C   UNL     1      46.152   6.576  12.708  0.00  0.00    +0.000 A 
ATOM     20  C   UNL     1      46.872   7.630  12.131  0.00  0.00    +0.000 A 
BRANCH  15  22
ATOM     21  N   UNL     1      50.348   8.479  11.396  0.00  0.00    +0.000 N 
ATOM     22  C   UNL     1      49.063   8.794  11.755  0.00  0.00    +0.000 C 
ATOM     23  O   UNL     1      48.608   9.909  11.580  0.00  0.00    +0.000 OA
ATOM     24  H   UNL     1      50.864   9.200  10.899  0.00  0.00    +0.000 HD
ATOM     25  H   UNL     1      50.658   7.525  11.281  0.00  0.00    +0.000 HD
ENDBRANCH  15  22
ENDBRANCH  14  19
ENDBRANCH   1  14
TORSDOF 5
ENDMDL
MODEL 5
REMARK VINA RESULT:    -7.540      1.891      2.324
REMARK INTER + INTRA:         -10.429
REMARK INTER:                  -9.749
REMARK INTRA:                  -0.680
REMARK UNBOUND:                -0.684
REMARK  Name = 
REMARK  5 active torsions:
REMARK  status: ('A' for Active; 'I' for Inactive)
REMARK    1  A    between atoms: C_2  and  C_4
REMARK    2  A    between atoms: C_8  and  C_9
REMARK    3  A    between atoms: C_9  and  C_10
REMARK    4  A    between atoms: C_10  and  C_11
REMARK    5  A    between atoms: C_15  and  C_16
REMARK                            x       y       z     vdW  Elec       q    Type
REMARK                         _______ _______ _______ _____ _____    ______ ____
ROOT
ATOM      1  C   UNL     1      44.265   6.292  10.949  0.00  0.00    +0.000 C 
ENDROOT
BRANCH   1   2
ATOM      2  C   UNL     1      44.317   4.851  10.505  0.00  0.00    +0.000 A 
ATOM      3  C   UNL     1      43.545   3.890  11.140  0.00  0.00    +0.000 A 
ATOM      4  N   UNL     1      43.523   2.580  10.800  0.00  0.00    +0.000 NA
ATOM      5  C   UNL     1      44.317   2.216   9.774  0.00  0.00    +0.000 A 
ATOM      6  C   UNL     1      45.157   3.075   9.068  0.00  0.00    +0.000 A 
ATOM      7  C   UNL     1      45.151   4.412   9.479  0.00  0.00    +0.000 A 
BRANCH   6   8
ATOM      8  C   UNL     1      45.984   2.624   7.948  0.00  0.00    +0.000 A 
ATOM      9  C   UNL     1      46.536   1.332   7.927  0.00  0.00    +0.000 A 
ATOM     10  C   UNL     1      47.280   0.891   6.834  0.00  0.00    +0.000 A 
ATOM     11  C   UNL     1      47.481   1.730   5.741  0.00  0.00    +0.000 A 
ATOM     12  C   UNL     1      46.961   3.022   5.754  0.00  0.00    +0.000 A 
ATOM     13  C   UNL     1      46.228   3.467   6.851  0.00  0.00    +0.000 A 
ENDBRANCH   6   8
ENDBRANCH   1   2
BRANCH   1  14
ATOM     14  C   UNL     1      44.619   6.494  12.431  0.00  0.00    +0.000 C 
BRANCH  14  19
ATOM     15  C   UNL     1      48.111   7.714  13.359  0.00  0.00    +0.000 A 
ATOM     16  C   UNL     1      47.940   9.061  13.085  0.00  0.00    +0.000 A 
ATOM     17  N   UNL     1      46.786   9.585  12.599  0.00  0.00    +0.000 NA
ATOM     18  C   UNL     1      45.764   8.723  12.411  0.00  0.00    +0.000 A 
ATOM     19  C   UNL     1      45.818   7.362  12.685  0.00  0.00    +0.000 A 
ATOM     20  C   UNL     1      47.030   6.850  13.169  0.00  0.00    +0.000 A 
BRANCH  15  22
ATOM     21  N   UNL     1      50.526   7.679  13.196  0.00  0.00    +0.000 N 
ATOM     22  C   UNL     1      49.411   7.237  13.860  0.00  0.00    +0.000 C 
ATOM     23  O   UNL     1      49.494   6.510  14.833  0.00  0.00    +0.000 OA
ATOM     24  H   UNL     1      51.421   7.436  13.613  0.00  0.00    +0.000 HD
ATOM     25  H   UNL     1      50.504   8.473  12.574  0.00  0.00    +0.000 HD
ENDBRANCH  15  22
ENDBRANCH  14  19
ENDBRANCH   1  14
TORSDOF 5
ENDMDL
MODEL 6
REMARK VINA RESULT:    -7.218      1.792      2.540
REMARK INTER + INTRA:         -10.012
REMARK INTER:                  -9.340
REMARK INTRA:                  -0.673
REMARK UNBOUND:                -0.684
REMARK  Name = 
REMARK  5 active torsions:
REMARK  status: ('A' for Active; 'I' for Inactive)
REMARK    1  A    between atoms: C_2  and  C_4
REMARK    2  A    between atoms: C_8  and  C_9
REMARK    3  A    between atoms: C_9  and  C_10
REMARK    4  A    between atoms: C_10  and  C_11
REMARK    5  A    between atoms: C_15  and  C_16
REMARK                            x       y       z     vdW  Elec       q    Type
REMARK                         _______ _______ _______ _____ _____    ______ ____
ROOT
ATOM      1  C   UNL     1      45.976   7.220  12.243  0.00  0.00    +0.000 C 
ENDROOT
BRANCH   1   2
ATOM      2  C   UNL     1      45.173   6.240  11.422  0.00  0.00    +0.000 A 
ATOM      3  C   UNL     1      43.795   6.173  11.554  0.00  0.00    +0.000 A 
ATOM      4  N   UNL     1      42.999   5.333  10.852  0.00  0.00    +0.000 NA
ATOM      5  C   UNL     1      43.618   4.518   9.975  0.00  0.00    +0.000 A 
ATOM      6  C   UNL     1      44.994   4.468   9.763  0.00  0.00    +0.000 A 
ATOM      7  C   UNL     1      45.765   5.346  10.533  0.00  0.00    +0.000 A 
BRANCH   6   8
ATOM      8  C   UNL     1      45.607   3.574   8.780  0.00  0.00    +0.000 A 
ATOM      9  C   UNL     1      46.283   4.082   7.658  0.00  0.00    +0.000 A 
ATOM     10  C   UNL     1      46.909   3.225   6.753  0.00  0.00    +0.000 A 
ATOM     11  C   UNL     1      46.875   1.848   6.956  0.00  0.00    +0.000 A 
ATOM     12  C   UNL     1      46.190   1.325   8.050  0.00  0.00    +0.000 A 
ATOM     13  C   UNL     1      45.555   2.179   8.948  0.00  0.00    +0.000 A 
ENDBRANCH   6   8
ENDBRANCH   1   2
BRANCH   1  14
ATOM     14  C   UNL     1      47.399   6.737  12.563  0.00  0.00    +0.000 C 
BRANCH  14  19
ATOM     15  C   UNL     1      48.412   5.727  16.097  0.00  0.00    +0.000 A 
ATOM     16  C   UNL     1      47.696   4.545  16.190  0.00  0.00    +0.000 A 
ATOM     17  N   UNL     1      46.895   4.078  15.198  0.00  0.00    +0.000 NA
ATOM     18  C   UNL     1      46.839   4.814  14.068  0.00  0.00    +0.000 A 
ATOM     19  C   UNL     1      47.542   5.995  13.860  0.00  0.00    +0.000 A 
ATOM     20  C   UNL     1      48.346   6.460  14.909  0.00  0.00    +0.000 A 
BRANCH  15  22
ATOM     21  N   UNL     1      50.366   6.880  16.942  0.00  0.00    +0.000 N 
ATOM     22  C   UNL     1      49.235   6.166  17.238  0.00  0.00    +0.000 C 
ATOM     23  O   UNL     1      48.911   5.931  18.388  0.00  0.00    +0.000 OA
ATOM     24  H   UNL     1      50.868   7.274  17.734  0.00  0.00    +0.000 HD
ATOM     25  H   UNL     1      50.513   7.310  16.040  0.00  0.00    +0.000 HD
ENDBRANCH  15  22
ENDBRANCH  14  19
ENDBRANCH   1  14
TORSDOF 5
ENDMDL
MODEL 7
REMARK VINA RESULT:    -7.087      2.891      6.707
REMARK INTER + INTRA:          -9.843
REMARK INTER:                  -9.665
REMARK INTRA:                  -0.178
REMARK UNBOUND:                -0.684
REMARK  Name = 
REMARK  5 active torsions:
REMARK  status: ('A' for Active; 'I' for Inactive)
REMARK    1  A    between atoms: C_2  and  C_4
REMARK    2  A    between atoms: C_8  and  C_9
REMARK    3  A    between atoms: C_9  and  C_10
REMARK    4  A    between atoms: C_10  and  C_11
REMARK    5  A    between atoms: C_15  and  C_16
REMARK                            x       y       z     vdW  Elec       q    Type
REMARK                         _______ _______ _______ _____ _____    ______ ____
ROOT
ATOM      1  C   UNL     1      44.462   3.131  11.679  0.00  0.00    +0.000 C 
ENDROOT
BRANCH   1   2
ATOM      2  C   UNL     1      44.530   4.639  11.692  0.00  0.00    +0.000 A 
ATOM      3  C   UNL     1      43.402   5.397  11.413  0.00  0.00    +0.000 A 
ATOM      4  N   UNL     1      43.372   6.750  11.413  0.00  0.00    +0.000 NA
ATOM      5  C   UNL     1      44.530   7.374  11.705  0.00  0.00    +0.000 A 
ATOM      6  C   UNL     1      45.736   6.733  11.982  0.00  0.00    +0.000 A 
ATOM      7  C   UNL     1      45.710   5.334  11.946  0.00  0.00    +0.000 A 
BRANCH   6   8
ATOM      8  C   UNL     1      46.959   7.465  12.312  0.00  0.00    +0.000 A 
ATOM      9  C   UNL     1      46.958   8.866  12.428  0.00  0.00    +0.000 A 
ATOM     10  C   UNL     1      48.114   9.553  12.793  0.00  0.00    +0.000 A 
ATOM     11  C   UNL     1      49.290   8.854  13.055  0.00  0.00    +0.000 A 
ATOM     12  C   UNL     1      49.316   7.468  12.922  0.00  0.00    +0.000 A 
ATOM     13  C   UNL     1      48.165   6.782  12.546  0.00  0.00    +0.000 A 
ENDBRANCH   6   8
ENDBRANCH   1   2
BRANCH   1  14
ATOM     14  C   UNL     1      44.062   2.544  10.317  0.00  0.00    +0.000 C 
BRANCH  14  19
ATOM     15  C   UNL     1      46.565   2.223   7.458  0.00  0.00    +0.000 A 
ATOM     16  C   UNL     1      46.679   3.563   7.129  0.00  0.00    +0.000 A 
ATOM     17  N   UNL     1      45.982   4.547   7.753  0.00  0.00    +0.000 NA
ATOM     18  C   UNL     1      45.166   4.166   8.759  0.00  0.00    +0.000 A 
ATOM     19  C   UNL     1      45.004   2.855   9.189  0.00  0.00    +0.000 A 
ATOM     20  C   UNL     1      45.724   1.860   8.513  0.00  0.00    +0.000 A 
BRANCH  15  22
ATOM     21  N   UNL     1      48.442   1.685   6.026  0.00  0.00    +0.000 N 
ATOM     22  C   UNL     1      47.344   1.225   6.705  0.00  0.00    +0.000 C 
ATOM     23  O   UNL     1      47.045   0.044   6.708  0.00  0.00    +0.000 OA
ATOM     24  H   UNL     1      49.036   0.978   5.602  0.00  0.00    +0.000 HD
ATOM     25  H   UNL     1      48.858   2.585   6.219  0.00  0.00    +0.000 HD
ENDBRANCH  15  22
ENDBRANCH  14  19
ENDBRANCH   1  14
TORSDOF 5
ENDMDL
MODEL 8
REMARK VINA RESULT:    -7.004      3.660      7.945
REMARK INTER + INTRA:          -9.735
REMARK INTER:                  -9.112
REMARK INTRA:                  -0.623
REMARK UNBOUND:                -0.684
REMARK  Name = 
REMARK  5 active torsions:
REMARK  status: ('A' for Active; 'I' for Inactive)
REMARK    1  A    between atoms: C_2  and  C_4
REMARK    2  A    between atoms: C_8  and  C_9
REMARK    3  A    between atoms: C_9  and  C_10
REMARK    4  A    between atoms: C_10  and  C_11
REMARK    5  A    between atoms: C_15  and  C_16
REMARK                            x       y       z     vdW  Elec       q    Type
REMARK                         _______ _______ _______ _____ _____    ______ ____
ROOT
ATOM      1  C   UNL     1      44.856   3.924   8.055  0.00  0.00    +0.000 C 
ENDROOT
BRANCH   1   2
ATOM      2  C   UNL     1      45.022   4.190   9.531  0.00  0.00    +0.000 A 
ATOM      3  C   UNL     1      44.649   3.236  10.465  0.00  0.00    +0.000 A 
ATOM      4  N   UNL     1      44.772   3.387  11.805  0.00  0.00    +0.000 NA
ATOM      5  C   UNL     1      45.295   4.555  12.227  0.00  0.00    +0.000 A 
ATOM      6  C   UNL     1      45.689   5.603  11.397  0.00  0.00    +0.000 A 
ATOM      7  C   UNL     1      45.517   5.395  10.024  0.00  0.00    +0.000 A 
BRANCH   6   8
ATOM      8  C   UNL     1      46.269   6.842  11.915  0.00  0.00    +0.000 A 
ATOM      9  C   UNL     1      47.637   7.125  11.759  0.00  0.00    +0.000 A 
ATOM     10  C   UNL     1      48.173   8.330  12.210  0.00  0.00    +0.000 A 
ATOM     11  C   UNL     1      47.352   9.276  12.820  0.00  0.00    +0.000 A 
ATOM     12  C   UNL     1      45.999   9.004  13.004  0.00  0.00    +0.000 A 
ATOM     13  C   UNL     1      45.465   7.796  12.564  0.00  0.00    +0.000 A 
ENDBRANCH   6   8
ENDBRANCH   1   2
BRANCH   1  14
ATOM     14  C   UNL     1      46.183   3.904   7.279  0.00  0.00    +0.000 C 
BRANCH  14  19
ATOM     15  C   UNL     1      46.826   1.062   4.819  0.00  0.00    +0.000 A 
ATOM     16  C   UNL     1      47.272   0.106   5.717  0.00  0.00    +0.000 A 
ATOM     17  N   UNL     1      47.399   0.335   7.049  0.00  0.00    +0.000 NA
ATOM     18  C   UNL     1      47.038   1.559   7.490  0.00  0.00    +0.000 A 
ATOM     19  C   UNL     1      46.549   2.576   6.681  0.00  0.00    +0.000 A 
ATOM     20  C   UNL     1      46.446   2.314   5.308  0.00  0.00    +0.000 A 
BRANCH  15  22
ATOM     21  N   UNL     1      45.605   1.105   2.729  0.00  0.00    +0.000 N 
ATOM     22  C   UNL     1      46.747   0.728   3.387  0.00  0.00    +0.000 C 
ATOM     23  O   UNL     1      47.661   0.170   2.808  0.00  0.00    +0.000 OA
ATOM     24  H   UNL     1      45.603   0.971   1.722  0.00  0.00    +0.000 HD
ATOM     25  H   UNL     1      44.964   1.787   3.108  0.00  0.00    +0.000 HD
ENDBRANCH  15  22
ENDBRANCH  14  19
ENDBRANCH   1  14
TORSDOF 5
ENDMDL
MODEL 9
REMARK VINA RESULT:    -6.819      2.482      7.414
REMARK INTER + INTRA:          -9.497
REMARK INTER:                  -8.634
REMARK INTRA:                  -0.863
REMARK UNBOUND:                -0.684
REMARK  Name = 
REMARK  5 active torsions:
REMARK  status: ('A' for Active; 'I' for Inactive)
REMARK    1  A    between atoms: C_2  and  C_4
REMARK    2  A    between atoms: C_8  and  C_9
REMARK    3  A    between atoms: C_9  and  C_10
REMARK    4  A    between atoms: C_10  and  C_11
REMARK    5  A    between atoms: C_15  and  C_16
REMARK                            x       y       z     vdW  Elec       q    Type
REMARK                         _______ _______ _______ _____ _____    ______ ____
ROOT
ATOM      1  C   UNL     1      46.584   6.993  11.993  0.00  0.00    +0.000 C 
ENDROOT
BRANCH   1   2
ATOM      2  C   UNL     1      47.491   7.033  13.199  0.00  0.00    +0.000 A 
ATOM      3  C   UNL     1      48.350   8.103  13.399  0.00  0.00    +0.000 A 
ATOM      4  N   UNL     1      49.187   8.224  14.456  0.00  0.00    +0.000 NA
ATOM      5  C   UNL     1      49.163   7.222  15.355  0.00  0.00    +0.000 A 
ATOM      6  C   UNL     1      48.365   6.083  15.262  0.00  0.00    +0.000 A 
ATOM      7  C   UNL     1      47.536   6.005  14.137  0.00  0.00    +0.000 A 
BRANCH   6   8
ATOM      8  C   UNL     1      48.368   5.034  16.283  0.00  0.00    +0.000 A 
ATOM      9  C   UNL     1      49.431   4.909  17.193  0.00  0.00    +0.000 A 
ATOM     10  C   UNL     1      49.403   3.940  18.195  0.00  0.00    +0.000 A 
ATOM     11  C   UNL     1      48.311   3.084  18.309  0.00  0.00    +0.000 A 
ATOM     12  C   UNL     1      47.258   3.178  17.402  0.00  0.00    +0.000 A 
ATOM     13  C   UNL     1      47.291   4.137  16.394  0.00  0.00    +0.000 A 
ENDBRANCH   6   8
ENDBRANCH   1   2
BRANCH   1  14
ATOM     14  C   UNL     1      45.108   6.747  12.340  0.00  0.00    +0.000 C 
BRANCH  14  19
ATOM     15  C   UNL     1      44.280   3.487  10.543  0.00  0.00    +0.000 A 
ATOM     16  C   UNL     1      43.644   2.831  11.584  0.00  0.00    +0.000 A 
ATOM     17  N   UNL     1      43.494   3.365  12.823  0.00  0.00    +0.000 NA
ATOM     18  C   UNL     1      43.977   4.612  13.006  0.00  0.00    +0.000 A 
ATOM     19  C   UNL     1      44.602   5.369  12.022  0.00  0.00    +0.000 A 
ATOM     20  C   UNL     1      44.756   4.783  10.759  0.00  0.00    +0.000 A 
BRANCH  15  22
ATOM     21  N   UNL     1      44.278   3.598   8.124  0.00  0.00    +0.000 N 
ATOM     22  C   UNL     1      44.417   2.814   9.240  0.00  0.00    +0.000 C 
ATOM     23  O   UNL     1      44.671   1.626   9.157  0.00  0.00    +0.000 OA
ATOM     24  H   UNL     1      44.484   3.152   7.235  0.00  0.00    +0.000 HD
ATOM     25  H   UNL     1      44.335   4.606   8.162  0.00  0.00    +0.000 HD
ENDBRANCH  15  22
ENDBRANCH  14  19
ENDBRANCH   1  14
TORSDOF 5
ENDMDL
