MODEL 1
REMARK VINA RESULT:    -7.044      0.000      0.000
REMARK INTER + INTRA:         -10.118
REMARK INTER:                  -9.309
REMARK INTRA:                  -0.809
REMARK UNBOUND:                -0.809
REMARK  Name = 
REMARK  6 active torsions:
REMARK  status: ('A' for Active; 'I' for Inactive)
REMARK    1  A    between atoms: N_1  and  C_2
REMARK    2  A    between atoms: C_2  and  C_3
REMARK    3  A    between atoms: C_7  and  O_8
REMARK    4  A    between atoms: O_8  and  C_9
REMARK    5  A    between atoms: C_9  and  C_10
REMARK    6  A    between atoms: C_10  and  C_11
REMARK                            x       y       z     vdW  Elec       q    Type
REMARK                         _______ _______ _______ _____ _____    ______ ____
ROOT
ATOM      1  C   UNL     1      46.711   5.184  13.793  0.00  0.00    +0.000 A 
ATOM      2  C   UNL     1      47.608   5.991  13.079  0.00  0.00    +0.000 A 
ATOM      3  C   UNL     1      47.218   6.609  11.897  0.00  0.00    +0.000 A 
ATOM      4  C   UNL     1      45.928   6.419  11.404  0.00  0.00    +0.000 A 
ATOM      5  C   UNL     1      45.016   5.603  12.084  0.00  0.00    +0.000 A 
ATOM      6  C   UNL     1      45.413   4.994  13.280  0.00  0.00    +0.000 A 
ENDROOT
BRANCH   1   7
ATOM      7  C   UNL     1      47.162   4.514  15.068  0.00  0.00    +0.000 C 
BRANCH   7   8
ATOM      8  N   UNL     1      47.602   3.142  14.827  0.00  0.00    +0.000 NA
ATOM      9  H   UNL     1      48.561   3.153  14.487  0.00  0.00    +0.000 HD
ATOM     10  H   UNL     1      47.033   2.743  14.083  0.00  0.00    +0.000 HD
ENDBRANCH   7   8
ENDBRANCH   1   7
BRANCH   5  11
ATOM     11  O   UNL     1      43.733   5.338  11.658  0.00  0.00    +0.000 OA
BRANCH  11  12
ATOM     12  C   UNL     1      43.628   4.850  10.315  0.00  0.00    +0.000 C 
BRANCH  12  13
ATOM     13  C   UNL     1      43.973   3.363  10.235  0.00  0.00    +0.000 C 
BRANCH  13  14
ATOM     14  C   UNL     1      45.028   3.116   9.177  0.00  0.00    +0.000 A 
ATOM     15  C   UNL     1      45.563   4.180   8.435  0.00  0.00    +0.000 A 
ATOM     16  C   UNL     1      46.503   3.945   7.429  0.00  0.00    +0.000 A 
ATOM     17  C   UNL     1      46.918   2.644   7.147  0.00  0.00    +0.000 A 
ATOM     18  C   UNL     1      46.385   1.581   7.873  0.00  0.00    +0.000 A 
ATOM     19 CL   UNL     1      46.884  -0.027   7.521  0.00  0.00    +0.000 Cl
ATOM     20  C   UNL     1      45.444   1.809   8.880  0.00  0.00    +0.000 A 
ENDBRANCH  13  14
ENDBRANCH  12  13
ENDBRANCH  11  12
ENDBRANCH   5  11
TORSDOF 6
ENDMDL
MODEL 2
REMARK VINA RESULT:    -6.825      3.321      5.917
REMARK INTER + INTRA:          -9.829
REMARK INTER:                  -9.049
REMARK INTRA:                  -0.780
REMARK UNBOUND:                -0.809
REMARK  Name = 
REMARK  6 active torsions:
REMARK  status: ('A' for Active; 'I' for Inactive)
REMARK    1  A    between atoms: N_1  and  C_2
REMARK    2  A    between atoms: C_2  and  C_3
REMARK    3  A    between atoms: C_7  and  O_8
REMARK    4  A    between atoms: O_8  and  C_9
REMARK    5  A    between atoms: C_9  and  C_10
REMARK    6  A    between atoms: C_10  and  C_11
REMARK                            x       y       z     vdW  Elec       q    Type
REMARK                         _______ _______ _______ _____ _____    ______ ____
ROOT
ATOM      1  C   UNL     1      46.244   2.274   7.997  0.00  0.00    +0.000 A 
ATOM      2  C   UNL     1      46.455   3.607   7.617  0.00  0.00    +0.000 A 
ATOM      3  C   UNL     1      45.759   4.638   8.237  0.00  0.00    +0.000 A 
ATOM      4  C   UNL     1      44.833   4.350   9.238  0.00  0.00    +0.000 A 
ATOM      5  C   UNL     1      44.586   3.028   9.626  0.00  0.00    +0.000 A 
ATOM      6  C   UNL     1      45.299   1.996   9.004  0.00  0.00    +0.000 A 
ENDROOT
BRANCH   1   7
ATOM      7  C   UNL     1      47.002   1.170   7.301  0.00  0.00    +0.000 C 
BRANCH   7   8
ATOM      8  N   UNL     1      48.223   1.670   6.673  0.00  0.00    +0.000 NA
ATOM      9  H   UNL     1      48.971   0.994   6.811  0.00  0.00    +0.000 HD
ATOM     10  H   UNL     1      48.509   2.524   7.149  0.00  0.00    +0.000 HD
ENDBRANCH   7   8
ENDBRANCH   1   7
BRANCH   5  11
ATOM     11  O   UNL     1      43.672   2.650  10.584  0.00  0.00    +0.000 OA
BRANCH  11  12
ATOM     12  C   UNL     1      43.131   3.723  11.364  0.00  0.00    +0.000 C 
BRANCH  12  13
ATOM     13  C   UNL     1      43.694   3.717  12.785  0.00  0.00    +0.000 C 
BRANCH  13  14
ATOM     14  C   UNL     1      44.841   4.698  12.909  0.00  0.00    +0.000 A 
ATOM     15  C   UNL     1      46.128   4.259  13.254  0.00  0.00    +0.000 A 
ATOM     16  C   UNL     1      47.174   5.171  13.412  0.00  0.00    +0.000 A 
ATOM     17  C   UNL     1      46.947   6.535  13.232  0.00  0.00    +0.000 A 
ATOM     18  C   UNL     1      45.670   6.980  12.898  0.00  0.00    +0.000 A 
ATOM     19 CL   UNL     1      45.384   8.664  12.686  0.00  0.00    +0.000 Cl
ATOM     20  C   UNL     1      44.621   6.073  12.739  0.00  0.00    +0.000 A 
ENDBRANCH  13  14
ENDBRANCH  12  13
ENDBRANCH  11  12
ENDBRANCH   5  11
TORSDOF 6
ENDMDL
MODEL 3
REMARK VINA RESULT:    -6.352      1.690      2.243
REMARK INTER + INTRA:          -9.204
REMARK INTER:                  -8.658
REMARK INTRA:                  -0.546
REMARK UNBOUND:                -0.809
REMARK  Name = 
REMARK  6 active torsions:
REMARK  status: ('A' for Active; 'I' for Inactive)
REMARK    1  A    between atoms: N_1  and  C_2
REMARK    2  A    between atoms: C_2  and  C_3
REMARK    3  A    between atoms: C_7  and  O_8
REMARK    4  A    between atoms: O_8  and  C_9
REMARK    5  A    between atoms: C_9  and  C_10
REMARK    6  A    between atoms: C_10  and  C_11
REMARK                            x       y       z     vdW  Elec       q    Type
REMARK                         _______ _______ _______ _____ _____    ______ ____
ROOT
ATOM      1  C   UNL     1      45.891   6.664  12.709  0.00  0.00    +0.000 A 
ATOM      2  C   UNL     1      46.870   5.966  13.429  0.00  0.00    +0.000 A 
ATOM      3  C   UNL     1      46.829   4.579  13.519  0.00  0.00    +0.000 A 
ATOM      4  C   UNL     1      45.800   3.871  12.899  0.00  0.00    +0.000 A 
ATOM      5  C   UNL     1      44.796   4.542  12.190  0.00  0.00    +0.000 A 
ATOM      6  C   UNL     1      44.852   5.938  12.095  0.00  0.00    +0.000 A 
ENDROOT
BRANCH   1   7
ATOM      7  C   UNL     1      45.950   8.170  12.636  0.00  0.00    +0.000 C 
BRANCH   7   8
ATOM      8  N   UNL     1      46.550   8.744  13.839  0.00  0.00    +0.000 NA
ATOM      9  H   UNL     1      45.897   9.403  14.257  0.00  0.00    +0.000 HD
ATOM     10  H   UNL     1      47.373   9.280  13.568  0.00  0.00    +0.000 HD
ENDBRANCH   7   8
ENDBRANCH   1   7
BRANCH   5  11
ATOM     11  O   UNL     1      43.730   3.928  11.571  0.00  0.00    +0.000 OA
BRANCH  11  12
ATOM     12  C   UNL     1      44.079   3.039  10.502  0.00  0.00    +0.000 C 
BRANCH  12  13
ATOM     13  C   UNL     1      44.358   3.806   9.209  0.00  0.00    +0.000 C 
BRANCH  13  14
ATOM     14  C   UNL     1      45.479   3.150   8.431  0.00  0.00    +0.000 A 
ATOM     15  C   UNL     1      46.339   3.914   7.628  0.00  0.00    +0.000 A 
ATOM     16  C   UNL     1      47.345   3.302   6.876  0.00  0.00    +0.000 A 
ATOM     17  C   UNL     1      47.502   1.917   6.914  0.00  0.00    +0.000 A 
ATOM     18  C   UNL     1      46.647   1.150   7.702  0.00  0.00    +0.000 A 
ATOM     19 CL   UNL     1      46.831  -0.561   7.742  0.00  0.00    +0.000 Cl
ATOM     20  C   UNL     1      45.640   1.756   8.455  0.00  0.00    +0.000 A 
ENDBRANCH  13  14
ENDBRANCH  12  13
ENDBRANCH  11  12
ENDBRANCH   5  11
TORSDOF 6
ENDMDL
MODEL 4
REMARK VINA RESULT:    -6.337      3.223      6.211
REMARK INTER + INTRA:          -9.184
REMARK INTER:                  -8.661
REMARK INTRA:                  -0.523
REMARK UNBOUND:                -0.809
REMARK  Name = 
REMARK  6 active torsions:
REMARK  status: ('A' for Active; 'I' for Inactive)
REMARK    1  A    between atoms: N_1  and  C_2
REMARK    2  A    between atoms: C_2  and  C_3
REMARK    3  A    between atoms: C_7  and  O_8
REMARK    4  A    between atoms: O_8  and  C_9
REMARK    5  A    between atoms: C_9  and  C_10
REMARK    6  A    between atoms: C_10  and  C_11
REMARK                            x       y       z     vdW  Elec       q    Type
REMARK                         _______ _______ _______ _____ _____    ______ ____
ROOT
ATOM      1  C   UNL     1      46.579   2.628   6.679  0.00  0.00    +0.000 A 
ATOM      2  C   UNL     1      46.661   1.363   7.278  0.00  0.00    +0.000 A 
ATOM      3  C   UNL     1      45.971   1.090   8.454  0.00  0.00    +0.000 A 
ATOM      4  C   UNL     1      45.197   2.083   9.054  0.00  0.00    +0.000 A 
ATOM      5  C   UNL     1      45.111   3.361   8.490  0.00  0.00    +0.000 A 
ATOM      6  C   UNL     1      45.801   3.624   7.300  0.00  0.00    +0.000 A 
ENDROOT
BRANCH   1   7
ATOM      7  C   UNL     1      47.347   2.904   5.410  0.00  0.00    +0.000 C 
BRANCH   7   8
ATOM      8  N   UNL     1      48.406   1.920   5.197  0.00  0.00    +0.000 NA
ATOM      9  H   UNL     1      49.033   1.924   5.998  0.00  0.00    +0.000 HD
ATOM     10  H   UNL     1      48.959   2.206   4.391  0.00  0.00    +0.000 HD
ENDBRANCH   7   8
ENDBRANCH   1   7
BRANCH   5  11
ATOM     11  O   UNL     1      44.395   4.408   9.027  0.00  0.00    +0.000 OA
BRANCH  11  12
ATOM     12  C   UNL     1      43.839   4.160  10.325  0.00  0.00    +0.000 C 
BRANCH  12  13
ATOM     13  C   UNL     1      43.796   5.437  11.164  0.00  0.00    +0.000 C 
BRANCH  13  14
ATOM     14  C   UNL     1      45.128   5.672  11.846  0.00  0.00    +0.000 A 
ATOM     15  C   UNL     1      46.081   6.534  11.282  0.00  0.00    +0.000 A 
ATOM     16  C   UNL     1      47.326   6.715  11.889  0.00  0.00    +0.000 A 
ATOM     17  C   UNL     1      47.638   6.033  13.065  0.00  0.00    +0.000 A 
ATOM     18  C   UNL     1      46.701   5.169  13.626  0.00  0.00    +0.000 A 
ATOM     19 CL   UNL     1      47.086   4.317  15.071  0.00  0.00    +0.000 Cl
ATOM     20  C   UNL     1      45.455   4.984  13.024  0.00  0.00    +0.000 A 
ENDBRANCH  13  14
ENDBRANCH  12  13
ENDBRANCH  11  12
ENDBRANCH   5  11
TORSDOF 6
ENDMDL
MODEL 5
REMARK VINA RESULT:    -6.107      1.865      2.343
REMARK INTER + INTRA:          -8.880
REMARK INTER:                  -8.085
REMARK INTRA:                  -0.794
REMARK UNBOUND:                -0.809
REMARK  Name = 
REMARK  6 active torsions:
REMARK  status: ('A' for Active; 'I' for Inactive)
REMARK    1  A    between atoms: N_1  and  C_2
REMARK    2  A    between atoms: C_2  and  C_3
REMARK    3  A    between atoms: C_7  and  O_8
REMARK    4  A    between atoms: O_8  and  C_9
REMARK    5  A    between atoms: C_9  and  C_10
REMARK    6  A    between atoms: C_10  and  C_11
REMARK                            x       y       z     vdW  Elec       q    Type
REMARK                         _______ _______ _______ _____ _____    ______ ____
ROOT
ATOM      1  C   UNL     1      46.156   6.808  13.073  0.00  0.00    +0.000 A 
ATOM      2  C   UNL     1      47.427   6.233  13.209  0.00  0.00    +0.000 A 
ATOM      3  C   UNL     1      47.571   4.859  13.359  0.00  0.00    +0.000 A 
ATOM      4  C   UNL     1      46.443   4.039  13.385  0.00  0.00    +0.000 A 
ATOM      5  C   UNL     1      45.159   4.585  13.271  0.00  0.00    +0.000 A 
ATOM      6  C   UNL     1      45.024   5.969  13.110  0.00  0.00    +0.000 A 
ENDROOT
BRANCH   1   7
ATOM      7  C   UNL     1      46.025   8.303  12.925  0.00  0.00    +0.000 C 
BRANCH   7   8
ATOM      8  N   UNL     1      46.675   9.012  14.025  0.00  0.00    +0.000 NA
ATOM      9  H   UNL     1      46.855   8.359  14.785  0.00  0.00    +0.000 HD
ATOM     10  H   UNL     1      46.029   9.711  14.389  0.00  0.00    +0.000 HD
ENDBRANCH   7   8
ENDBRANCH   1   7
BRANCH   5  11
ATOM     11  O   UNL     1      43.991   3.857  13.313  0.00  0.00    +0.000 OA
BRANCH  11  12
ATOM     12  C   UNL     1      43.834   2.901  12.257  0.00  0.00    +0.000 C 
BRANCH  12  13
ATOM     13  C   UNL     1      43.379   3.572  10.961  0.00  0.00    +0.000 C 
BRANCH  13  14
ATOM     14  C   UNL     1      44.434   3.424   9.885  0.00  0.00    +0.000 A 
ATOM     15  C   UNL     1      44.958   4.550   9.234  0.00  0.00    +0.000 A 
ATOM     16  C   UNL     1      45.899   4.408   8.210  0.00  0.00    +0.000 A 
ATOM     17  C   UNL     1      46.324   3.139   7.821  0.00  0.00    +0.000 A 
ATOM     18  C   UNL     1      45.802   2.015   8.457  0.00  0.00    +0.000 A 
ATOM     19 CL   UNL     1      46.316   0.446   7.972  0.00  0.00    +0.000 Cl
ATOM     20  C   UNL     1      44.862   2.150   9.480  0.00  0.00    +0.000 A 
ENDBRANCH  13  14
ENDBRANCH  12  13
ENDBRANCH  11  12
ENDBRANCH   5  11
TORSDOF 6
ENDMDL
MODEL 6
REMARK VINA RESULT:    -6.044      2.215      3.226
REMARK INTER + INTRA:          -8.796
REMARK INTER:                  -8.372
REMARK INTRA:                  -0.424
REMARK UNBOUND:                -0.809
REMARK  Name = 
REMARK  6 active torsions:
REMARK  status: ('A' for Active; 'I' for Inactive)
REMARK    1  A    between atoms: N_1  and  C_2
REMARK    2  A    between atoms: C_2  and  C_3
REMARK    3  A    between atoms: C_7  and  O_8
REMARK    4  A    between atoms: O_8  and  C_9
REMARK    5  A    between atoms: C_9  and  C_10
REMARK    6  A    between atoms: C_10  and  C_11
REMARK                            x       y       z     vdW  Elec       q    Type
REMARK                         _______ _______ _______ _____ _____    ______ ____
ROOT
ATOM      1  C   UNL     1      44.181   4.072  12.055  0.00  0.00    +0.000 A 
ATOM      2  C   UNL     1      44.320   5.110  12.985  0.00  0.00    +0.000 A 
ATOM      3  C   UNL     1      44.925   6.308  12.625  0.00  0.00    +0.000 A 
ATOM      4  C   UNL     1      45.411   6.482  11.329  0.00  0.00    +0.000 A 
ATOM      5  C   UNL     1      45.304   5.456  10.383  0.00  0.00    +0.000 A 
ATOM      6  C   UNL     1      44.683   4.256  10.751  0.00  0.00    +0.000 A 
ENDROOT
BRANCH   1   7
ATOM      7  C   UNL     1      43.532   2.776  12.473  0.00  0.00    +0.000 C 
BRANCH   7   8
ATOM      8  N   UNL     1      43.189   1.949  11.319  0.00  0.00    +0.000 NA
ATOM      9  H   UNL     1      42.406   1.345  11.559  0.00  0.00    +0.000 HD
ATOM     10  H   UNL     1      43.977   1.336  11.111  0.00  0.00    +0.000 HD
ENDBRANCH   7   8
ENDBRANCH   1   7
BRANCH   5  11
ATOM     11  O   UNL     1      45.778   5.528   9.092  0.00  0.00    +0.000 OA
BRANCH  11  12
ATOM     12  C   UNL     1      45.828   4.278   8.393  0.00  0.00    +0.000 C 
BRANCH  12  13
ATOM     13  C   UNL     1      46.905   4.291   7.307  0.00  0.00    +0.000 C 
BRANCH  13  14
ATOM     14  C   UNL     1      47.014   2.931   6.649  0.00  0.00    +0.000 A 
ATOM     15  C   UNL     1      47.163   2.817   5.259  0.00  0.00    +0.000 A 
ATOM     16  C   UNL     1      47.218   1.561   4.649  0.00  0.00    +0.000 A 
ATOM     17  C   UNL     1      47.121   0.403   5.420  0.00  0.00    +0.000 A 
ATOM     18  C   UNL     1      46.965   0.508   6.800  0.00  0.00    +0.000 A 
ATOM     19 CL   UNL     1      46.833  -0.918   7.753  0.00  0.00    +0.000 Cl
ATOM     20  C   UNL     1      46.908   1.760   7.415  0.00  0.00    +0.000 A 
ENDBRANCH  13  14
ENDBRANCH  12  13
ENDBRANCH  11  12
ENDBRANCH   5  11
TORSDOF 6
ENDMDL
MODEL 7
REMARK VINA RESULT:    -5.699      3.474      6.400
REMARK INTER + INTRA:          -8.341
REMARK INTER:                  -7.992
REMARK INTRA:                  -0.349
REMARK UNBOUND:                -0.809
REMARK  Name = 
REMARK  6 active torsions:
REMARK  status: ('A' for Active; 'I' for Inactive)
REMARK    1  A    between atoms: N_1  and  C_2
REMARK    2  A    between atoms: C_2  and  C_3
REMARK    3  A    between atoms: C_7  and  O_8
REMARK    4  A    between atoms: O_8  and  C_9
REMARK    5  A    between atoms: C_9  and  C_10
REMARK    6  A    between atoms: C_10  and  C_11
REMARK                            x       y       z     vdW  Elec       q    Type
REMARK                         _______ _______ _______ _____ _____    ______ ____
ROOT
ATOM      1  C   UNL     1      46.465   2.949   7.263  0.00  0.00    +0.000 A 
ATOM      2  C   UNL     1      46.420   1.619   7.702  0.00  0.00    +0.000 A 
ATOM      3  C   UNL     1      45.520   1.228   8.687  0.00  0.00    +0.000 A 
ATOM      4  C   UNL     1      44.659   2.166   9.256  0.00  0.00    +0.000 A 
ATOM      5  C   UNL     1      44.694   3.506   8.853  0.00  0.00    +0.000 A 
ATOM      6  C   UNL     1      45.595   3.889   7.852  0.00  0.00    +0.000 A 
ENDROOT
BRANCH   1   7
ATOM      7  C   UNL     1      47.458   3.352   6.202  0.00  0.00    +0.000 C 
BRANCH   7   8
ATOM      8  N   UNL     1      48.692   2.576   6.297  0.00  0.00    +0.000 NA
ATOM      9  H   UNL     1      49.317   2.844   5.541  0.00  0.00    +0.000 HD
ATOM     10  H   UNL     1      48.469   1.591   6.157  0.00  0.00    +0.000 HD
ENDBRANCH   7   8
ENDBRANCH   1   7
BRANCH   5  11
ATOM     11  O   UNL     1      43.901   4.503   9.377  0.00  0.00    +0.000 OA
BRANCH  11  12
ATOM     12  C   UNL     1      43.779   4.493  10.805  0.00  0.00    +0.000 C 
BRANCH  12  13
ATOM     13  C   UNL     1      45.150   4.519  11.481  0.00  0.00    +0.000 C 
BRANCH  13  14
ATOM     14  C   UNL     1      45.519   5.931  11.884  0.00  0.00    +0.000 A 
ATOM     15  C   UNL     1      46.581   6.171  12.768  0.00  0.00    +0.000 A 
ATOM     16  C   UNL     1      46.891   7.472  13.174  0.00  0.00    +0.000 A 
ATOM     17  C   UNL     1      46.141   8.550  12.705  0.00  0.00    +0.000 A 
ATOM     18  C   UNL     1      45.079   8.319  11.834  0.00  0.00    +0.000 A 
ATOM     19 CL   UNL     1      44.143   9.645  11.262  0.00  0.00    +0.000 Cl
ATOM     20  C   UNL     1      44.764   7.021  11.425  0.00  0.00    +0.000 A 
ENDBRANCH  13  14
ENDBRANCH  12  13
ENDBRANCH  11  12
ENDBRANCH   5  11
TORSDOF 6
ENDMDL
MODEL 8
REMARK VINA RESULT:    -5.469      4.483      7.589
REMARK INTER + INTRA:          -8.037
REMARK INTER:                  -7.708
REMARK INTRA:                  -0.329
REMARK UNBOUND:                -0.809
REMARK  Name = 
REMARK  6 active torsions:
REMARK  status: ('A' for Active; 'I' for Inactive)
REMARK    1  A    between atoms: N_1  and  C_2
REMARK    2  A    between atoms: C_2  and  C_3
REMARK    3  A    between atoms: C_7  and  O_8
REMARK    4  A    between atoms: O_8  and  C_9
REMARK    5  A    between atoms: C_9  and  C_10
REMARK    6  A    between atoms: C_10  and  C_11
REMARK                            x       y       z     vdW  Elec       q    Type
REMARK                         _______ _______ _______ _____ _____    ______ ____
ROOT
ATOM      1  C   UNL     1      44.523   4.744  11.897  0.00  0.00    +0.000 A 
ATOM      2  C   UNL     1      45.123   5.923  11.435  0.00  0.00    +0.000 A 
ATOM      3  C   UNL     1      46.344   6.344  11.948  0.00  0.00    +0.000 A 
ATOM      4  C   UNL     1      46.978   5.598  12.941  0.00  0.00    +0.000 A 
ATOM      5  C   UNL     1      46.393   4.426  13.437  0.00  0.00    +0.000 A 
ATOM      6  C   UNL     1      45.169   4.003  12.906  0.00  0.00    +0.000 A 
ENDROOT
BRANCH   1   7
ATOM      7  C   UNL     1      43.191   4.314  11.333  0.00  0.00    +0.000 C 
BRANCH   7   8
ATOM      8  N   UNL     1      43.007   2.868  11.432  0.00  0.00    +0.000 NA
ATOM      9  H   UNL     1      42.067   2.628  11.127  0.00  0.00    +0.000 HD
ATOM     10  H   UNL     1      43.074   2.597  12.412  0.00  0.00    +0.000 HD
ENDBRANCH   7   8
ENDBRANCH   1   7
BRANCH   5  11
ATOM     11  O   UNL     1      46.932   3.642  14.432  0.00  0.00    +0.000 OA
BRANCH  11  12
ATOM     12  C   UNL     1      47.209   4.326  15.661  0.00  0.00    +0.000 C 
BRANCH  12  13
ATOM     13  C   UNL     1      47.443   3.341  16.806  0.00  0.00    +0.000 C 
BRANCH  13  14
ATOM     14  C   UNL     1      48.924   3.189  17.085  0.00  0.00    +0.000 A 
ATOM     15  C   UNL     1      49.568   1.959  16.891  0.00  0.00    +0.000 A 
ATOM     16  C   UNL     1      50.925   1.809  17.191  0.00  0.00    +0.000 A 
ATOM     17  C   UNL     1      51.654   2.886  17.694  0.00  0.00    +0.000 A 
ATOM     18  C   UNL     1      51.019   4.109  17.897  0.00  0.00    +0.000 A 
ATOM     19 CL   UNL     1      51.912   5.438  18.528  0.00  0.00    +0.000 Cl
ATOM     20  C   UNL     1      49.664   4.265  17.599  0.00  0.00    +0.000 A 
ENDBRANCH  13  14
ENDBRANCH  12  13
ENDBRANCH  11  12
ENDBRANCH   5  11
TORSDOF 6
ENDMDL
MODEL 9
REMARK VINA RESULT:    -5.340      3.692      5.334
REMARK INTER + INTRA:          -7.866
REMARK INTER:                  -7.512
REMARK INTRA:                  -0.354
REMARK UNBOUND:                -0.809
REMARK  Name = 
REMARK  6 active torsions:
REMARK  status: ('A' for Active; 'I' for Inactive)
REMARK    1  A    between atoms: N_1  and  C_2
REMARK    2  A    between atoms: C_2  and  C_3
REMARK    3  A    between atoms: C_7  and  O_8
REMARK    4  A    between atoms: O_8  and  C_9
REMARK    5  A    between atoms: C_9  and  C_10
REMARK    6  A    between atoms: C_10  and  C_11
REMARK                            x       y       z     vdW  Elec       q    Type
REMARK                         _______ _______ _______ _____ _____    ______ ____
ROOT
ATOM      1  C   UNL     1      44.515   3.263  10.160  0.00  0.00    +0.000 A 
ATOM      2  C   UNL     1      44.935   4.600  10.116  0.00  0.00    +0.000 A 
ATOM      3  C   UNL     1      45.718   5.062   9.064  0.00  0.00    +0.000 A 
ATOM      4  C   UNL     1      46.102   4.190   8.046  0.00  0.00    +0.000 A 
ATOM      5  C   UNL     1      45.715   2.845   8.073  0.00  0.00    +0.000 A 
ATOM      6  C   UNL     1      44.917   2.390   9.130  0.00  0.00    +0.000 A 
ENDROOT
BRANCH   1   7
ATOM      7  C   UNL     1      43.676   2.782  11.318  0.00  0.00    +0.000 C 
BRANCH   7   8
ATOM      8  N   UNL     1      44.444   2.746  12.560  0.00  0.00    +0.000 NA
ATOM      9  H   UNL     1      45.066   3.551  12.593  0.00  0.00    +0.000 HD
ATOM     10  H   UNL     1      45.038   1.918  12.552  0.00  0.00    +0.000 HD
ENDBRANCH   7   8
ENDBRANCH   1   7
BRANCH   5  11
ATOM     11  O   UNL     1      46.070   1.908   7.127  0.00  0.00    +0.000 OA
BRANCH  11  12
ATOM     12  C   UNL     1      46.818   2.421   6.017  0.00  0.00    +0.000 C 
BRANCH  12  13
ATOM     13  C   UNL     1      47.683   1.333   5.380  0.00  0.00    +0.000 C 
BRANCH  13  14
ATOM     14  C   UNL     1      46.942   0.660   4.243  0.00  0.00    +0.000 A 
ATOM     15  C   UNL     1      46.124   1.404   3.379  0.00  0.00    +0.000 A 
ATOM     16  C   UNL     1      45.406   0.775   2.359  0.00  0.00    +0.000 A 
ATOM     17  C   UNL     1      45.492  -0.606   2.191  0.00  0.00    +0.000 A 
ATOM     18  C   UNL     1      46.295  -1.353   3.050  0.00  0.00    +0.000 A 
ATOM     19 CL   UNL     1      46.395  -3.060   2.853  0.00  0.00    +0.000 Cl
ATOM     20  C   UNL     1      47.014  -0.730   4.072  0.00  0.00    +0.000 A 
ENDBRANCH  13  14
ENDBRANCH  12  13
ENDBRANCH  11  12
ENDBRANCH   5  11
TORSDOF 6
ENDMDL
