MODEL 1
REMARK VINA RESULT:    -8.028      0.000      0.000
REMARK INTER + INTRA:         -11.271
REMARK INTER:                 -10.374
REMARK INTRA:                  -0.897
REMARK UNBOUND:                -0.897
REMARK  Name = 
REMARK  5 active torsions:
REMARK  status: ('A' for Active; 'I' for Inactive)
REMARK    1  A    between atoms: C_6  and  C_7
REMARK    2  A    between atoms: C_9  and  C_10
REMARK    3  A    between atoms: C_10  and  O_11
REMARK    4  A    between atoms: O_11  and  C_12
REMARK    5  A    between atoms: C_16  and  C_17
REMARK                            x       y       z     vdW  Elec       q    Type
REMARK                         _______ _______ _______ _____ _____    ______ ____
ROOT
ATOM      1  C   UNL     1      44.775   3.593   9.749  0.00  0.00    +0.000 A 
ATOM      2  C   UNL     1      44.889   4.942  10.087  0.00  0.00    +0.000 A 
ATOM      3  C   UNL     1      44.151   5.458  11.159  0.00  0.00    +0.000 A 
ATOM      4  C   UNL     1      43.278   4.606  11.835  0.00  0.00    +0.000 A 
ATOM      5  C   UNL     1      43.204   3.286  11.429  0.00  0.00    +0.000 A 
ATOM      6  N   UNL     1      43.929   2.767  10.414  0.00  0.00    +0.000 NA
ENDROOT
BRANCH   1  12
ATOM      7  F   UNL     1      46.807  -0.303   7.631  0.00  0.00    +0.000 F 
ATOM      8  C   UNL     1      46.581   1.017   7.623  0.00  0.00    +0.000 A 
ATOM      9  C   UNL     1      47.089   1.791   6.590  0.00  0.00    +0.000 A 
ATOM     10  C   UNL     1      46.842   3.161   6.584  0.00  0.00    +0.000 A 
ATOM     11  C   UNL     1      46.091   3.739   7.614  0.00  0.00    +0.000 A 
ATOM     12  C   UNL     1      45.574   2.968   8.674  0.00  0.00    +0.000 A 
ATOM     13  C   UNL     1      45.834   1.587   8.652  0.00  0.00    +0.000 A 
ENDBRANCH   1  12
BRANCH   3  14
ATOM     14  C   UNL     1      44.296   6.902  11.559  0.00  0.00    +0.000 C 
BRANCH  14  15
ATOM     15  O   UNL     1      44.973   6.966  12.812  0.00  0.00    +0.000 OA
BRANCH  15  16
ATOM     16  C   UNL     1      46.335   7.057  12.766  0.00  0.00    +0.000 A 
ATOM     17  C   UNL     1      47.043   5.980  13.287  0.00  0.00    +0.000 A 
ATOM     18  N   UNL     1      48.395   5.898  13.324  0.00  0.00    +0.000 NA
ATOM     19  C   UNL     1      49.084   6.946  12.821  0.00  0.00    +0.000 A 
ATOM     20  C   UNL     1      48.481   8.071  12.279  0.00  0.00    +0.000 A 
ATOM     21  C   UNL     1      47.078   8.117  12.254  0.00  0.00    +0.000 A 
BRANCH  20  22
ATOM     22  C   UNL     1      49.301   9.202  11.742  0.00  0.00    +0.000 C 
ATOM     23  F   UNL     1      48.612  10.046  10.929  0.00  0.00    +0.000 F 
ATOM     24  F   UNL     1      49.822   9.976  12.733  0.00  0.00    +0.000 F 
ATOM     25  F   UNL     1      50.367   8.767  11.013  0.00  0.00    +0.000 F 
ENDBRANCH  20  22
ENDBRANCH  15  16
ENDBRANCH  14  15
ENDBRANCH   3  14
TORSDOF 5
ENDMDL
MODEL 2
REMARK VINA RESULT:    -7.937      3.548      4.119
REMARK INTER + INTRA:         -11.154
REMARK INTER:                 -10.344
REMARK INTRA:                  -0.809
REMARK UNBOUND:                -0.897
REMARK  Name = 
REMARK  5 active torsions:
REMARK  status: ('A' for Active; 'I' for Inactive)
REMARK    1  A    between atoms: C_6  and  C_7
REMARK    2  A    between atoms: C_9  and  C_10
REMARK    3  A    between atoms: C_10  and  O_11
REMARK    4  A    between atoms: O_11  and  C_12
REMARK    5  A    between atoms: C_16  and  C_17
REMARK                            x       y       z     vdW  Elec       q    Type
REMARK                         _______ _______ _______ _____ _____    ______ ____
ROOT
ATOM      1  C   UNL     1      44.905   3.240  10.124  0.00  0.00    +0.000 A 
ATOM      2  C   UNL     1      45.304   4.288  10.955  0.00  0.00    +0.000 A 
ATOM      3  C   UNL     1      44.641   4.507  12.169  0.00  0.00    +0.000 A 
ATOM      4  C   UNL     1      43.559   3.689  12.492  0.00  0.00    +0.000 A 
ATOM      5  C   UNL     1      43.209   2.685  11.607  0.00  0.00    +0.000 A 
ATOM      6  N   UNL     1      43.855   2.444  10.446  0.00  0.00    +0.000 NA
ENDROOT
BRANCH   1  12
ATOM      7  F   UNL     1      46.962   0.038   7.075  0.00  0.00    +0.000 F 
ATOM      8  C   UNL     1      46.622   1.304   7.346  0.00  0.00    +0.000 A 
ATOM      9  C   UNL     1      46.915   2.302   6.428  0.00  0.00    +0.000 A 
ATOM     10  C   UNL     1      46.551   3.614   6.714  0.00  0.00    +0.000 A 
ATOM     11  C   UNL     1      45.899   3.912   7.917  0.00  0.00    +0.000 A 
ATOM     12  C   UNL     1      45.602   2.911   8.863  0.00  0.00    +0.000 A 
ATOM     13  C   UNL     1      45.976   1.593   8.546  0.00  0.00    +0.000 A 
ENDBRANCH   1  12
BRANCH   3  14
ATOM     14  C   UNL     1      45.089   5.608  13.093  0.00  0.00    +0.000 C 
BRANCH  14  15
ATOM     15  O   UNL     1      46.506   5.738  13.002  0.00  0.00    +0.000 OA
BRANCH  15  16
ATOM     16  C   UNL     1      47.213   5.539  14.152  0.00  0.00    +0.000 A 
ATOM     17  C   UNL     1      48.196   6.479  14.443  0.00  0.00    +0.000 A 
ATOM     18  N   UNL     1      48.992   6.440  15.539  0.00  0.00    +0.000 NA
ATOM     19  C   UNL     1      48.806   5.410  16.392  0.00  0.00    +0.000 A 
ATOM     20  C   UNL     1      47.857   4.416  16.200  0.00  0.00    +0.000 A 
ATOM     21  C   UNL     1      47.048   4.492  15.055  0.00  0.00    +0.000 A 
BRANCH  20  22
ATOM     22  C   UNL     1      47.705   3.296  17.181  0.00  0.00    +0.000 C 
ATOM     23  F   UNL     1      46.414   2.932  17.407  0.00  0.00    +0.000 F 
ATOM     24  F   UNL     1      48.349   2.166  16.778  0.00  0.00    +0.000 F 
ATOM     25  F   UNL     1      48.226   3.604  18.402  0.00  0.00    +0.000 F 
ENDBRANCH  20  22
ENDBRANCH  15  16
ENDBRANCH  14  15
ENDBRANCH   3  14
TORSDOF 5
ENDMDL
MODEL 3
REMARK VINA RESULT:    -7.682      1.761      6.736
REMARK INTER + INTRA:         -10.824
REMARK INTER:                  -9.909
REMARK INTRA:                  -0.916
REMARK UNBOUND:                -0.897
REMARK  Name = 
REMARK  5 active torsions:
REMARK  status: ('A' for Active; 'I' for Inactive)
REMARK    1  A    between atoms: C_6  and  C_7
REMARK    2  A    between atoms: C_9  and  C_10
REMARK    3  A    between atoms: C_10  and  O_11
REMARK    4  A    between atoms: O_11  and  C_12
REMARK    5  A    between atoms: C_16  and  C_17
REMARK                            x       y       z     vdW  Elec       q    Type
REMARK                         _______ _______ _______ _____ _____    ______ ____
ROOT
ATOM      1  C   UNL     1      47.460   6.710  12.684  0.00  0.00    +0.000 A 
ATOM      2  C   UNL     1      46.119   6.664  12.301  0.00  0.00    +0.000 A 
ATOM      3  C   UNL     1      45.277   5.673  12.822  0.00  0.00    +0.000 A 
ATOM      4  C   UNL     1      45.824   4.723  13.684  0.00  0.00    +0.000 A 
ATOM      5  C   UNL     1      47.167   4.822  14.001  0.00  0.00    +0.000 A 
ATOM      6  N   UNL     1      47.985   5.786  13.528  0.00  0.00    +0.000 NA
ENDROOT
BRANCH   1  12
ATOM      7  F   UNL     1      51.832   8.186  11.105  0.00  0.00    +0.000 F 
ATOM      8  C   UNL     1      50.571   8.492  11.435  0.00  0.00    +0.000 A 
ATOM      9  C   UNL     1      50.136   9.805  11.329  0.00  0.00    +0.000 A 
ATOM     10  C   UNL     1      48.821  10.113  11.665  0.00  0.00    +0.000 A 
ATOM     11  C   UNL     1      47.958   9.103  12.106  0.00  0.00    +0.000 A 
ATOM     12  C   UNL     1      48.386   7.766  12.227  0.00  0.00    +0.000 A 
ATOM     13  C   UNL     1      49.718   7.482  11.875  0.00  0.00    +0.000 A 
ENDBRANCH   1  12
BRANCH   3  14
ATOM     14  C   UNL     1      43.820   5.638  12.447  0.00  0.00    +0.000 C 
BRANCH  14  15
ATOM     15  O   UNL     1      43.708   5.697  11.027  0.00  0.00    +0.000 OA
BRANCH  15  16
ATOM     16  C   UNL     1      44.130   4.598  10.335  0.00  0.00    +0.000 A 
ATOM     17  C   UNL     1      43.609   3.375  10.742  0.00  0.00    +0.000 A 
ATOM     18  N   UNL     1      43.916   2.185  10.171  0.00  0.00    +0.000 NA
ATOM     19  C   UNL     1      44.792   2.208   9.144  0.00  0.00    +0.000 A 
ATOM     20  C   UNL     1      45.374   3.370   8.658  0.00  0.00    +0.000 A 
ATOM     21  C   UNL     1      45.029   4.584   9.272  0.00  0.00    +0.000 A 
BRANCH  20  22
ATOM     22  C   UNL     1      46.344   3.327   7.519  0.00  0.00    +0.000 C 
ATOM     23  F   UNL     1      47.249   2.316   7.602  0.00  0.00    +0.000 F 
ATOM     24  F   UNL     1      45.721   3.178   6.317  0.00  0.00    +0.000 F 
ATOM     25  F   UNL     1      47.073   4.474   7.418  0.00  0.00    +0.000 F 
ENDBRANCH  20  22
ENDBRANCH  15  16
ENDBRANCH  14  15
ENDBRANCH   3  14
TORSDOF 5
ENDMDL
MODEL 4
REMARK VINA RESULT:    -7.649      3.276      7.492
REMARK INTER + INTRA:         -10.782
REMARK INTER:                 -10.028
REMARK INTRA:                  -0.754
REMARK UNBOUND:                -0.897
REMARK  Name = 
REMARK  5 active torsions:
REMARK  status: ('A' for Active; 'I' for Inactive)
REMARK    1  A    between atoms: C_6  and  C_7
REMARK    2  A    between atoms: C_9  and  C_10
REMARK    3  A    between atoms: C_10  and  O_11
REMARK    4  A    between atoms: O_11  and  C_12
REMARK    5  A    between atoms: C_16  and  C_17
REMARK                            x       y       z     vdW  Elec       q    Type
REMARK                         _______ _______ _______ _____ _____    ______ ____
ROOT
ATOM      1  C   UNL     1      47.370   5.489  14.312  0.00  0.00    +0.000 A 
ATOM      2  C   UNL     1      46.165   5.217  13.663  0.00  0.00    +0.000 A 
ATOM      3  C   UNL     1      45.937   5.717  12.375  0.00  0.00    +0.000 A 
ATOM      4  C   UNL     1      46.916   6.520  11.792  0.00  0.00    +0.000 A 
ATOM      5  C   UNL     1      48.076   6.763  12.506  0.00  0.00    +0.000 A 
ATOM      6  N   UNL     1      48.322   6.266  13.737  0.00  0.00    +0.000 NA
ENDROOT
BRANCH   1  12
ATOM      7  F   UNL     1      46.753   2.210  17.870  0.00  0.00    +0.000 F 
ATOM      8  C   UNL     1      47.391   3.294  17.410  0.00  0.00    +0.000 A 
ATOM      9  C   UNL     1      48.378   3.886  18.184  0.00  0.00    +0.000 A 
ATOM     10  C   UNL     1      49.042   5.007  17.696  0.00  0.00    +0.000 A 
ATOM     11  C   UNL     1      48.709   5.523  16.438  0.00  0.00    +0.000 A 
ATOM     12  C   UNL     1      47.704   4.938  15.642  0.00  0.00    +0.000 A 
ATOM     13  C   UNL     1      47.052   3.803  16.158  0.00  0.00    +0.000 A 
ENDBRANCH   1  12
BRANCH   3  14
ATOM     14  C   UNL     1      44.658   5.396  11.649  0.00  0.00    +0.000 C 
BRANCH  14  15
ATOM     15  O   UNL     1      44.883   5.517  10.246  0.00  0.00    +0.000 OA
BRANCH  15  16
ATOM     16  C   UNL     1      45.114   4.358   9.563  0.00  0.00    +0.000 A 
ATOM     17  C   UNL     1      44.487   3.217  10.051  0.00  0.00    +0.000 A 
ATOM     18  N   UNL     1      44.603   1.985   9.501  0.00  0.00    +0.000 NA
ATOM     19  C   UNL     1      45.389   1.875   8.408  0.00  0.00    +0.000 A 
ATOM     20  C   UNL     1      46.063   2.945   7.838  0.00  0.00    +0.000 A 
ATOM     21  C   UNL     1      45.915   4.208   8.433  0.00  0.00    +0.000 A 
BRANCH  20  22
ATOM     22  C   UNL     1      46.925   2.757   6.629  0.00  0.00    +0.000 C 
ATOM     23  F   UNL     1      46.688   3.657   5.637  0.00  0.00    +0.000 F 
ATOM     24  F   UNL     1      48.251   2.859   6.920  0.00  0.00    +0.000 F 
ATOM     25  F   UNL     1      46.763   1.527   6.065  0.00  0.00    +0.000 F 
ENDBRANCH  20  22
ENDBRANCH  15  16
ENDBRANCH  14  15
ENDBRANCH   3  14
TORSDOF 5
ENDMDL
MODEL 5
REMARK VINA RESULT:    -7.102      3.522      7.803
REMARK INTER + INTRA:         -10.074
REMARK INTER:                  -9.290
REMARK INTRA:                  -0.784
REMARK UNBOUND:                -0.897
REMARK  Name = 
REMARK  5 active torsions:
REMARK  status: ('A' for Active; 'I' for Inactive)
REMARK    1  A    between atoms: C_6  and  C_7
REMARK    2  A    between atoms: C_9  and  C_10
REMARK    3  A    between atoms: C_10  and  O_11
REMARK    4  A    between atoms: O_11  and  C_12
REMARK    5  A    between atoms: C_16  and  C_17
REMARK                            x       y       z     vdW  Elec       q    Type
REMARK                         _______ _______ _______ _____ _____    ______ ____
ROOT
ATOM      1  C   UNL     1      48.482   6.070  15.002  0.00  0.00    +0.000 A 
ATOM      2  C   UNL     1      47.485   6.009  14.027  0.00  0.00    +0.000 A 
ATOM      3  C   UNL     1      47.599   6.779  12.863  0.00  0.00    +0.000 A 
ATOM      4  C   UNL     1      48.695   7.630  12.734  0.00  0.00    +0.000 A 
ATOM      5  C   UNL     1      49.632   7.652  13.752  0.00  0.00    +0.000 A 
ATOM      6  N   UNL     1      49.550   6.896  14.868  0.00  0.00    +0.000 NA
ENDROOT
BRANCH   1  12
ATOM      7  F   UNL     1      46.609   2.454  17.686  0.00  0.00    +0.000 F 
ATOM      8  C   UNL     1      47.520   3.427  17.551  0.00  0.00    +0.000 A 
ATOM      9  C   UNL     1      48.452   3.633  18.557  0.00  0.00    +0.000 A 
ATOM     10  C   UNL     1      49.401   4.639  18.405  0.00  0.00    +0.000 A 
ATOM     11  C   UNL     1      49.404   5.428  17.249  0.00  0.00    +0.000 A 
ATOM     12  C   UNL     1      48.459   5.236  16.221  0.00  0.00    +0.000 A 
ATOM     13  C   UNL     1      47.515   4.209  16.398  0.00  0.00    +0.000 A 
ENDBRANCH   1  12
BRANCH   3  14
ATOM     14  C   UNL     1      46.551   6.690  11.786  0.00  0.00    +0.000 C 
BRANCH  14  15
ATOM     15  O   UNL     1      45.320   6.276  12.374  0.00  0.00    +0.000 OA
BRANCH  15  16
ATOM     16  C   UNL     1      44.844   5.053  11.997  0.00  0.00    +0.000 A 
ATOM     17  C   UNL     1      44.085   4.369  12.940  0.00  0.00    +0.000 A 
ATOM     18  N   UNL     1      43.534   3.148  12.739  0.00  0.00    +0.000 NA
ATOM     19  C   UNL     1      43.754   2.568  11.539  0.00  0.00    +0.000 A 
ATOM     20  C   UNL     1      44.498   3.158  10.528  0.00  0.00    +0.000 A 
ATOM     21  C   UNL     1      45.048   4.427  10.771  0.00  0.00    +0.000 A 
BRANCH  20  22
ATOM     22  C   UNL     1      44.710   2.461   9.220  0.00  0.00    +0.000 C 
ATOM     23  F   UNL     1      44.303   3.179   8.140  0.00  0.00    +0.000 F 
ATOM     24  F   UNL     1      46.020   2.162   9.002  0.00  0.00    +0.000 F 
ATOM     25  F   UNL     1      44.044   1.274   9.154  0.00  0.00    +0.000 F 
ENDBRANCH  20  22
ENDBRANCH  15  16
ENDBRANCH  14  15
ENDBRANCH   3  14
TORSDOF 5
ENDMDL
MODEL 6
REMARK VINA RESULT:    -7.070      1.962      7.413
REMARK INTER + INTRA:         -10.033
REMARK INTER:                  -9.531
REMARK INTRA:                  -0.502
REMARK UNBOUND:                -0.897
REMARK  Name = 
REMARK  5 active torsions:
REMARK  status: ('A' for Active; 'I' for Inactive)
REMARK    1  A    between atoms: C_6  and  C_7
REMARK    2  A    between atoms: C_9  and  C_10
REMARK    3  A    between atoms: C_10  and  O_11
REMARK    4  A    between atoms: O_11  and  C_12
REMARK    5  A    between atoms: C_16  and  C_17
REMARK                            x       y       z     vdW  Elec       q    Type
REMARK                         _______ _______ _______ _____ _____    ______ ____
ROOT
ATOM      1  C   UNL     1      45.944   6.530  12.432  0.00  0.00    +0.000 A 
ATOM      2  C   UNL     1      45.143   5.599  11.771  0.00  0.00    +0.000 A 
ATOM      3  C   UNL     1      45.215   4.244  12.118  0.00  0.00    +0.000 A 
ATOM      4  C   UNL     1      46.131   3.857  13.095  0.00  0.00    +0.000 A 
ATOM      5  C   UNL     1      46.906   4.836  13.692  0.00  0.00    +0.000 A 
ATOM      6  N   UNL     1      46.829   6.149  13.387  0.00  0.00    +0.000 NA
ENDROOT
BRANCH   1  12
ATOM      7  F   UNL     1      48.007  10.937  12.092  0.00  0.00    +0.000 F 
ATOM      8  C   UNL     1      46.909  10.176  11.992  0.00  0.00    +0.000 A 
ATOM      9  C   UNL     1      45.707  10.757  11.620  0.00  0.00    +0.000 A 
ATOM     10  C   UNL     1      44.573   9.958  11.510  0.00  0.00    +0.000 A 
ATOM     11  C   UNL     1      44.657   8.586  11.776  0.00  0.00    +0.000 A 
ATOM     12  C   UNL     1      45.869   7.981  12.164  0.00  0.00    +0.000 A 
ATOM     13  C   UNL     1      47.000   8.811  12.261  0.00  0.00    +0.000 A 
ENDBRANCH   1  12
BRANCH   3  14
ATOM     14  C   UNL     1      44.327   3.235  11.440  0.00  0.00    +0.000 C 
BRANCH  14  15
ATOM     15  O   UNL     1      44.021   3.700  10.127  0.00  0.00    +0.000 OA
BRANCH  15  16
ATOM     16  C   UNL     1      44.977   3.506   9.172  0.00  0.00    +0.000 A 
ATOM     17  C   UNL     1      45.510   4.650   8.590  0.00  0.00    +0.000 A 
ATOM     18  N   UNL     1      46.465   4.647   7.629  0.00  0.00    +0.000 NA
ATOM     19  C   UNL     1      46.914   3.441   7.218  0.00  0.00    +0.000 A 
ATOM     20  C   UNL     1      46.452   2.236   7.729  0.00  0.00    +0.000 A 
ATOM     21  C   UNL     1      45.465   2.280   8.726  0.00  0.00    +0.000 A 
BRANCH  20  22
ATOM     22  C   UNL     1      46.987   0.931   7.226  0.00  0.00    +0.000 C 
ATOM     23  F   UNL     1      46.667   0.666   5.932  0.00  0.00    +0.000 F 
ATOM     24  F   UNL     1      48.345   0.868   7.299  0.00  0.00    +0.000 F 
ATOM     25  F   UNL     1      46.528  -0.128   7.951  0.00  0.00    +0.000 F 
ENDBRANCH  20  22
ENDBRANCH  15  16
ENDBRANCH  14  15
ENDBRANCH   3  14
TORSDOF 5
ENDMDL
MODEL 7
REMARK VINA RESULT:    -6.940      4.046      5.338
REMARK INTER + INTRA:          -9.866
REMARK INTER:                  -9.097
REMARK INTRA:                  -0.769
REMARK UNBOUND:                -0.897
REMARK  Name = 
REMARK  5 active torsions:
REMARK  status: ('A' for Active; 'I' for Inactive)
REMARK    1  A    between atoms: C_6  and  C_7
REMARK    2  A    between atoms: C_9  and  C_10
REMARK    3  A    between atoms: C_10  and  O_11
REMARK    4  A    between atoms: O_11  and  C_12
REMARK    5  A    between atoms: C_16  and  C_17
REMARK                            x       y       z     vdW  Elec       q    Type
REMARK                         _______ _______ _______ _____ _____    ______ ____
ROOT
ATOM      1  C   UNL     1      45.661   6.184  11.319  0.00  0.00    +0.000 A 
ATOM      2  C   UNL     1      46.733   6.152  12.212  0.00  0.00    +0.000 A 
ATOM      3  C   UNL     1      46.984   7.252  13.042  0.00  0.00    +0.000 A 
ATOM      4  C   UNL     1      46.171   8.378  12.916  0.00  0.00    +0.000 A 
ATOM      5  C   UNL     1      45.141   8.343  11.994  0.00  0.00    +0.000 A 
ATOM      6  N   UNL     1      44.870   7.281  11.205  0.00  0.00    +0.000 NA
ENDROOT
BRANCH   1  12
ATOM      7  F   UNL     1      45.732   3.832   7.048  0.00  0.00    +0.000 F 
ATOM      8  C   UNL     1      45.343   3.867   8.329  0.00  0.00    +0.000 A 
ATOM      9  C   UNL     1      44.613   2.810   8.851  0.00  0.00    +0.000 A 
ATOM     10  C   UNL     1      44.222   2.850  10.186  0.00  0.00    +0.000 A 
ATOM     11  C   UNL     1      44.564   3.950  10.981  0.00  0.00    +0.000 A 
ATOM     12  C   UNL     1      45.299   5.035  10.464  0.00  0.00    +0.000 A 
ATOM     13  C   UNL     1      45.686   4.966   9.114  0.00  0.00    +0.000 A 
ENDBRANCH   1  12
BRANCH   3  14
ATOM     14  C   UNL     1      48.113   7.213  14.037  0.00  0.00    +0.000 C 
BRANCH  14  15
ATOM     15  O   UNL     1      48.439   5.853  14.311  0.00  0.00    +0.000 OA
BRANCH  15  16
ATOM     16  C   UNL     1      48.086   5.375  15.540  0.00  0.00    +0.000 A 
ATOM     17  C   UNL     1      47.218   4.290  15.555  0.00  0.00    +0.000 A 
ATOM     18  N   UNL     1      46.764   3.688  16.681  0.00  0.00    +0.000 NA
ATOM     19  C   UNL     1      47.190   4.195  17.858  0.00  0.00    +0.000 A 
ATOM     20  C   UNL     1      48.054   5.275  17.961  0.00  0.00    +0.000 A 
ATOM     21  C   UNL     1      48.507   5.870  16.772  0.00  0.00    +0.000 A 
BRANCH  20  22
ATOM     22  C   UNL     1      48.484   5.794  19.297  0.00  0.00    +0.000 C 
ATOM     23  F   UNL     1      49.403   5.010  19.923  0.00  0.00    +0.000 F 
ATOM     24  F   UNL     1      49.041   7.034  19.214  0.00  0.00    +0.000 F 
ATOM     25  F   UNL     1      47.441   5.914  20.166  0.00  0.00    +0.000 F 
ENDBRANCH  20  22
ENDBRANCH  15  16
ENDBRANCH  14  15
ENDBRANCH   3  14
TORSDOF 5
ENDMDL
MODEL 8
REMARK VINA RESULT:    -6.598      4.344      5.866
REMARK INTER + INTRA:          -9.424
REMARK INTER:                  -8.542
REMARK INTRA:                  -0.882
REMARK UNBOUND:                -0.897
REMARK  Name = 
REMARK  5 active torsions:
REMARK  status: ('A' for Active; 'I' for Inactive)
REMARK    1  A    between atoms: C_6  and  C_7
REMARK    2  A    between atoms: C_9  and  C_10
REMARK    3  A    between atoms: C_10  and  O_11
REMARK    4  A    between atoms: O_11  and  C_12
REMARK    5  A    between atoms: C_16  and  C_17
REMARK                            x       y       z     vdW  Elec       q    Type
REMARK                         _______ _______ _______ _____ _____    ______ ____
ROOT
ATOM      1  C   UNL     1      46.091   6.562  12.152  0.00  0.00    +0.000 A 
ATOM      2  C   UNL     1      47.360   6.552  12.734  0.00  0.00    +0.000 A 
ATOM      3  C   UNL     1      47.802   7.663  13.462  0.00  0.00    +0.000 A 
ATOM      4  C   UNL     1      46.969   8.778  13.545  0.00  0.00    +0.000 A 
ATOM      5  C   UNL     1      45.734   8.721  12.924  0.00  0.00    +0.000 A 
ATOM      6  N   UNL     1      45.282   7.648  12.240  0.00  0.00    +0.000 NA
ENDROOT
BRANCH   1  12
ATOM      7  F   UNL     1      44.890   4.258   8.024  0.00  0.00    +0.000 F 
ATOM      8  C   UNL     1      44.943   4.256   9.363  0.00  0.00    +0.000 A 
ATOM      9  C   UNL     1      44.487   3.150  10.063  0.00  0.00    +0.000 A 
ATOM     10  C   UNL     1      44.554   3.152  11.453  0.00  0.00    +0.000 A 
ATOM     11  C   UNL     1      45.075   4.264  12.125  0.00  0.00    +0.000 A 
ATOM     12  C   UNL     1      45.535   5.400  11.428  0.00  0.00    +0.000 A 
ATOM     13  C   UNL     1      45.461   5.368  10.025  0.00  0.00    +0.000 A 
ENDBRANCH   1  12
BRANCH   3  14
ATOM     14  C   UNL     1      49.152   7.648  14.130  0.00  0.00    +0.000 C 
BRANCH  14  15
ATOM     15  O   UNL     1      48.966   7.647  15.543  0.00  0.00    +0.000 OA
BRANCH  15  16
ATOM     16  C   UNL     1      49.314   6.504  16.203  0.00  0.00    +0.000 A 
ATOM     17  C   UNL     1      50.634   6.412  16.627  0.00  0.00    +0.000 A 
ATOM     18  N   UNL     1      51.153   5.353  17.296  0.00  0.00    +0.000 NA
ATOM     19  C   UNL     1      50.316   4.325  17.553  0.00  0.00    +0.000 A 
ATOM     20  C   UNL     1      48.981   4.309  17.176  0.00  0.00    +0.000 A 
ATOM     21  C   UNL     1      48.479   5.426  16.489  0.00  0.00    +0.000 A 
BRANCH  20  22
ATOM     22  C   UNL     1      48.106   3.135  17.487  0.00  0.00    +0.000 C 
ATOM     23  F   UNL     1      48.400   2.021  16.764  0.00  0.00    +0.000 F 
ATOM     24  F   UNL     1      48.185   2.766  18.795  0.00  0.00    +0.000 F 
ATOM     25  F   UNL     1      46.789   3.396  17.254  0.00  0.00    +0.000 F 
ENDBRANCH  20  22
ENDBRANCH  15  16
ENDBRANCH  14  15
ENDBRANCH   3  14
TORSDOF 5
ENDMDL
MODEL 9
REMARK VINA RESULT:    -6.327      3.341      8.078
REMARK INTER + INTRA:          -9.072
REMARK INTER:                  -8.274
REMARK INTRA:                  -0.798
REMARK UNBOUND:                -0.897
REMARK  Name = 
REMARK  5 active torsions:
REMARK  status: ('A' for Active; 'I' for Inactive)
REMARK    1  A    between atoms: C_6  and  C_7
REMARK    2  A    between atoms: C_9  and  C_10
REMARK    3  A    between atoms: C_10  and  O_11
REMARK    4  A    between atoms: O_11  and  C_12
REMARK    5  A    between atoms: C_16  and  C_17
REMARK                            x       y       z     vdW  Elec       q    Type
REMARK                         _______ _______ _______ _____ _____    ______ ____
ROOT
ATOM      1  C   UNL     1      48.701   7.154  14.480  0.00  0.00    +0.000 A 
ATOM      2  C   UNL     1      47.497   7.010  13.789  0.00  0.00    +0.000 A 
ATOM      3  C   UNL     1      47.463   7.195  12.401  0.00  0.00    +0.000 A 
ATOM      4  C   UNL     1      48.638   7.567  11.751  0.00  0.00    +0.000 A 
ATOM      5  C   UNL     1      49.788   7.712  12.507  0.00  0.00    +0.000 A 
ATOM      6  N   UNL     1      49.844   7.511  13.841  0.00  0.00    +0.000 NA
ENDROOT
BRANCH   1  12
ATOM      7  F   UNL     1      48.919   4.146  18.313  0.00  0.00    +0.000 F 
ATOM      8  C   UNL     1      48.936   5.398  17.838  0.00  0.00    +0.000 A 
ATOM      9  C   UNL     1      49.084   6.460  18.717  0.00  0.00    +0.000 A 
ATOM     10  C   UNL     1      49.108   7.758  18.214  0.00  0.00    +0.000 A 
ATOM     11  C   UNL     1      48.982   7.976  16.837  0.00  0.00    +0.000 A 
ATOM     12  C   UNL     1      48.823   6.908  15.932  0.00  0.00    +0.000 A 
ATOM     13  C   UNL     1      48.807   5.607  16.466  0.00  0.00    +0.000 A 
ENDBRANCH   1  12
BRANCH   3  14
ATOM     14  C   UNL     1      46.179   7.002  11.639  0.00  0.00    +0.000 C 
BRANCH  14  15
ATOM     15  O   UNL     1      45.232   6.356  12.488  0.00  0.00    +0.000 OA
BRANCH  15  16
ATOM     16  C   UNL     1      44.781   5.134  12.079  0.00  0.00    +0.000 A 
ATOM     17  C   UNL     1      44.008   4.424  12.992  0.00  0.00    +0.000 A 
ATOM     18  N   UNL     1      43.478   3.200  12.757  0.00  0.00    +0.000 NA
ATOM     19  C   UNL     1      43.733   2.645  11.553  0.00  0.00    +0.000 A 
ATOM     20  C   UNL     1      44.492   3.261  10.569  0.00  0.00    +0.000 A 
ATOM     21  C   UNL     1      45.021   4.532  10.847  0.00  0.00    +0.000 A 
BRANCH  20  22
ATOM     22  C   UNL     1      44.743   2.589   9.255  0.00  0.00    +0.000 C 
ATOM     23  F   UNL     1      44.193   1.350   9.155  0.00  0.00    +0.000 F 
ATOM     24  F   UNL     1      44.249   3.306   8.208  0.00  0.00    +0.000 F 
ATOM     25  F   UNL     1      46.072   2.431   9.001  0.00  0.00    +0.000 F 
ENDBRANCH  20  22
ENDBRANCH  15  16
ENDBRANCH  14  15
ENDBRANCH   3  14
TORSDOF 5
ENDMDL
