MODEL 1
REMARK VINA RESULT:    -7.517      0.000      0.000
REMARK INTER + INTRA:         -10.310
REMARK INTER:                  -9.275
REMARK INTRA:                  -1.035
REMARK UNBOUND:                -1.035
REMARK  Name = 
REMARK  4 active torsions:
REMARK  status: ('A' for Active; 'I' for Inactive)
REMARK    1  A    between atoms: C_4  and  O_5
REMARK    2  A    between atoms: O_5  and  C_6
REMARK    3  A    between atoms: C_10  and  C_11
REMARK    4  A    between atoms: C_11  and  C_12
REMARK                            x       y       z     vdW  Elec       q    Type
REMARK                         _______ _______ _______ _____ _____    ______ ____
ROOT
ATOM      1  C   UNL     1      47.136   4.209  13.801  0.00  0.00    +0.000 A 
ATOM      2  C   UNL     1      48.056   5.240  13.624  0.00  0.00    +0.000 A 
ATOM      3  C   UNL     1      47.726   6.333  12.830  0.00  0.00    +0.000 A 
ATOM      4  C   UNL     1      46.547   6.317  12.086  0.00  0.00    +0.000 A 
ATOM      5  C   UNL     1      45.694   5.204  12.080  0.00  0.00    +0.000 A 
ATOM      6  C   UNL     1      45.951   4.202  13.050  0.00  0.00    +0.000 A 
ENDROOT
BRANCH   5   7
ATOM      7  C   UNL     1      44.625   4.974  10.960  0.00  0.00    +0.000 C 
ATOM      8  C   UNL     1      44.138   6.387  10.469  0.00  0.00    +0.000 C 
ATOM      9  C   UNL     1      43.196   7.120  11.423  0.00  0.00    +0.000 C 
ATOM     10  N   UNL     1      42.028   6.325  11.782  0.00  0.00    +0.000 NA
ATOM     11  C   UNL     1      42.412   5.054  12.379  0.00  0.00    +0.000 C 
ATOM     12  C   UNL     1      43.335   4.235  11.469  0.00  0.00    +0.000 C 
ATOM     13  H   UNL     1      41.466   6.152  10.950  0.00  0.00    +0.000 HD
BRANCH   7  14
ATOM     14  C   UNL     1      45.223   4.182   9.760  0.00  0.00    +0.000 A 
ATOM     15  C   UNL     1      45.185   2.778   9.692  0.00  0.00    +0.000 A 
ATOM     16  C   UNL     1      45.670   2.093   8.578  0.00  0.00    +0.000 A 
ATOM     17  C   UNL     1      46.228   2.828   7.551  0.00  0.00    +0.000 A 
ATOM     18  N   UNL     1      46.350   4.167   7.587  0.00  0.00    +0.000 NA
ATOM     19  C   UNL     1      45.839   4.807   8.672  0.00  0.00    +0.000 A 
ENDBRANCH   7  14
ENDBRANCH   5   7
BRANCH   1  20
ATOM     20  O   UNL     1      47.387   3.125  14.627  0.00  0.00    +0.000 OA
BRANCH  20  24
ATOM     21  C   UNL     1      48.570   3.812  18.513  0.00  0.00    +0.000 A 
ATOM     22  C   UNL     1      47.426   4.451  18.035  0.00  0.00    +0.000 A 
ATOM     23  C   UNL     1      47.014   4.232  16.712  0.00  0.00    +0.000 A 
ATOM     24  C   UNL     1      47.803   3.401  15.918  0.00  0.00    +0.000 A 
ATOM     25  N   UNL     1      48.947   2.833  16.367  0.00  0.00    +0.000 NA
ATOM     26  C   UNL     1      49.282   3.008  17.642  0.00  0.00    +0.000 A 
ENDBRANCH  20  24
ENDBRANCH   1  20
TORSDOF 4
ENDMDL
MODEL 2
REMARK VINA RESULT:    -7.218      2.996      7.074
REMARK INTER + INTRA:          -9.941
REMARK INTER:                  -9.478
REMARK INTRA:                  -0.463
REMARK UNBOUND:                -1.035
REMARK  Name = 
REMARK  4 active torsions:
REMARK  status: ('A' for Active; 'I' for Inactive)
REMARK    1  A    between atoms: C_4  and  O_5
REMARK    2  A    between atoms: O_5  and  C_6
REMARK    3  A    between atoms: C_10  and  C_11
REMARK    4  A    between atoms: C_11  and  C_12
REMARK                            x       y       z     vdW  Elec       q    Type
REMARK                         _______ _______ _______ _____ _____    ______ ____
ROOT
ATOM      1  C   UNL     1      45.051   5.122  11.116  0.00  0.00    +0.000 A 
ATOM      2  C   UNL     1      45.183   4.151  12.106  0.00  0.00    +0.000 A 
ATOM      3  C   UNL     1      45.651   4.508  13.367  0.00  0.00    +0.000 A 
ATOM      4  C   UNL     1      46.138   5.795  13.585  0.00  0.00    +0.000 A 
ATOM      5  C   UNL     1      46.211   6.742  12.552  0.00  0.00    +0.000 A 
ATOM      6  C   UNL     1      45.541   6.416  11.345  0.00  0.00    +0.000 A 
ENDROOT
BRANCH   5   7
ATOM      7  C   UNL     1      47.125   8.009  12.641  0.00  0.00    +0.000 C 
ATOM      8  C   UNL     1      48.334   7.795  11.658  0.00  0.00    +0.000 C 
ATOM      9  C   UNL     1      49.399   6.812  12.138  0.00  0.00    +0.000 C 
ATOM     10  N   UNL     1      49.926   7.150  13.453  0.00  0.00    +0.000 NA
ATOM     11  C   UNL     1      48.867   7.224  14.449  0.00  0.00    +0.000 C 
ATOM     12  C   UNL     1      47.766   8.219  14.060  0.00  0.00    +0.000 C 
ATOM     13  H   UNL     1      50.409   8.047  13.406  0.00  0.00    +0.000 HD
BRANCH   7  14
ATOM     14  C   UNL     1      46.348   9.298  12.240  0.00  0.00    +0.000 A 
ATOM     15  C   UNL     1      46.985  10.412  11.664  0.00  0.00    +0.000 A 
ATOM     16  C   UNL     1      46.259  11.530  11.256  0.00  0.00    +0.000 A 
ATOM     17  C   UNL     1      44.895  11.536  11.467  0.00  0.00    +0.000 A 
ATOM     18  N   UNL     1      44.239  10.529  12.070  0.00  0.00    +0.000 NA
ATOM     19  C   UNL     1      44.971   9.440  12.427  0.00  0.00    +0.000 A 
ENDBRANCH   7  14
ENDBRANCH   5   7
BRANCH   1  20
ATOM     20  O   UNL     1      44.535   4.836   9.862  0.00  0.00    +0.000 OA
BRANCH  20  24
ATOM     21  C   UNL     1      46.660   2.377   7.331  0.00  0.00    +0.000 A 
ATOM     22  C   UNL     1      45.888   1.800   8.339  0.00  0.00    +0.000 A 
ATOM     23  C   UNL     1      45.164   2.624   9.212  0.00  0.00    +0.000 A 
ATOM     24  C   UNL     1      45.283   4.003   9.049  0.00  0.00    +0.000 A 
ATOM     25  N   UNL     1      46.083   4.560   8.109  0.00  0.00    +0.000 NA
ATOM     26  C   UNL     1      46.711   3.757   7.256  0.00  0.00    +0.000 A 
ENDBRANCH  20  24
ENDBRANCH   1  20
TORSDOF 4
ENDMDL
MODEL 3
REMARK VINA RESULT:    -7.033      3.579      6.109
REMARK INTER + INTRA:          -9.713
REMARK INTER:                  -9.084
REMARK INTRA:                  -0.629
REMARK UNBOUND:                -1.035
REMARK  Name = 
REMARK  4 active torsions:
REMARK  status: ('A' for Active; 'I' for Inactive)
REMARK    1  A    between atoms: C_4  and  O_5
REMARK    2  A    between atoms: O_5  and  C_6
REMARK    3  A    between atoms: C_10  and  C_11
REMARK    4  A    between atoms: C_11  and  C_12
REMARK                            x       y       z     vdW  Elec       q    Type
REMARK                         _______ _______ _______ _____ _____    ______ ____
ROOT
ATOM      1  C   UNL     1      45.389   8.685  12.027  0.00  0.00    +0.000 A 
ATOM      2  C   UNL     1      46.698   8.585  12.494  0.00  0.00    +0.000 A 
ATOM      3  C   UNL     1      47.451   7.451  12.207  0.00  0.00    +0.000 A 
ATOM      4  C   UNL     1      46.844   6.355  11.597  0.00  0.00    +0.000 A 
ATOM      5  C   UNL     1      45.474   6.341  11.297  0.00  0.00    +0.000 A 
ATOM      6  C   UNL     1      44.788   7.577  11.412  0.00  0.00    +0.000 A 
ENDROOT
BRANCH   5   7
ATOM      7  C   UNL     1      44.689   5.015  11.026  0.00  0.00    +0.000 C 
ATOM      8  C   UNL     1      43.176   5.391  10.819  0.00  0.00    +0.000 C 
ATOM      9  C   UNL     1      42.413   5.754  12.091  0.00  0.00    +0.000 C 
ATOM     10  N   UNL     1      42.499   4.720  13.114  0.00  0.00    +0.000 NA
ATOM     11  C   UNL     1      43.882   4.425  13.459  0.00  0.00    +0.000 C 
ATOM     12  C   UNL     1      44.714   4.015  12.238  0.00  0.00    +0.000 C 
ATOM     13  H   UNL     1      42.045   3.872  12.778  0.00  0.00    +0.000 HD
BRANCH   7  14
ATOM     14  C   UNL     1      45.225   4.288   9.758  0.00  0.00    +0.000 A 
ATOM     15  C   UNL     1      45.163   2.891   9.609  0.00  0.00    +0.000 A 
ATOM     16  C   UNL     1      45.593   2.267   8.437  0.00  0.00    +0.000 A 
ATOM     17  C   UNL     1      46.119   3.054   7.434  0.00  0.00    +0.000 A 
ATOM     18  N   UNL     1      46.263   4.388   7.542  0.00  0.00    +0.000 NA
ATOM     19  C   UNL     1      45.806   4.968   8.684  0.00  0.00    +0.000 A 
ENDBRANCH   7  14
ENDBRANCH   5   7
BRANCH   1  20
ATOM     20  O   UNL     1      44.613   9.815  12.232  0.00  0.00    +0.000 OA
BRANCH  20  24
ATOM     21  C   UNL     1      42.846  11.359   8.847  0.00  0.00    +0.000 A 
ATOM     22  C   UNL     1      44.204  11.593   9.063  0.00  0.00    +0.000 A 
ATOM     23  C   UNL     1      44.818  11.079  10.215  0.00  0.00    +0.000 A 
ATOM     24  C   UNL     1      44.019  10.380  11.118  0.00  0.00    +0.000 A 
ATOM     25  N   UNL     1      42.688  10.209  10.934  0.00  0.00    +0.000 NA
ATOM     26  C   UNL     1      42.143  10.653   9.806  0.00  0.00    +0.000 A 
ENDBRANCH  20  24
ENDBRANCH   1  20
TORSDOF 4
ENDMDL
MODEL 4
REMARK VINA RESULT:    -6.926      2.379      6.848
REMARK INTER + INTRA:          -9.581
REMARK INTER:                  -9.300
REMARK INTRA:                  -0.281
REMARK UNBOUND:                -1.035
REMARK  Name = 
REMARK  4 active torsions:
REMARK  status: ('A' for Active; 'I' for Inactive)
REMARK    1  A    between atoms: C_4  and  O_5
REMARK    2  A    between atoms: O_5  and  C_6
REMARK    3  A    between atoms: C_10  and  C_11
REMARK    4  A    between atoms: C_11  and  C_12
REMARK                            x       y       z     vdW  Elec       q    Type
REMARK                         _______ _______ _______ _____ _____    ______ ____
ROOT
ATOM      1  C   UNL     1      45.159   5.263   9.816  0.00  0.00    +0.000 A 
ATOM      2  C   UNL     1      44.006   4.753  10.409  0.00  0.00    +0.000 A 
ATOM      3  C   UNL     1      43.695   5.091  11.722  0.00  0.00    +0.000 A 
ATOM      4  C   UNL     1      44.615   5.803  12.489  0.00  0.00    +0.000 A 
ATOM      5  C   UNL     1      45.877   6.157  11.988  0.00  0.00    +0.000 A 
ATOM      6  C   UNL     1      46.078   5.980  10.595  0.00  0.00    +0.000 A 
ENDROOT
BRANCH   5   7
ATOM      7  C   UNL     1      47.067   6.555  12.923  0.00  0.00    +0.000 C 
ATOM      8  C   UNL     1      46.689   7.911  13.625  0.00  0.00    +0.000 C 
ATOM      9  C   UNL     1      46.776   9.152  12.739  0.00  0.00    +0.000 C 
ATOM     10  N   UNL     1      48.082   9.304  12.110  0.00  0.00    +0.000 NA
ATOM     11  C   UNL     1      48.432   8.132  11.320  0.00  0.00    +0.000 C 
ATOM     12  C   UNL     1      48.403   6.840  12.146  0.00  0.00    +0.000 C 
ATOM     13  H   UNL     1      48.790   9.453  12.828  0.00  0.00    +0.000 HD
BRANCH   7  14
ATOM     14  C   UNL     1      47.331   5.464  14.002  0.00  0.00    +0.000 A 
ATOM     15  C   UNL     1      47.787   5.779  15.294  0.00  0.00    +0.000 A 
ATOM     16  C   UNL     1      47.956   4.790  16.263  0.00  0.00    +0.000 A 
ATOM     17  C   UNL     1      47.701   3.481  15.912  0.00  0.00    +0.000 A 
ATOM     18  N   UNL     1      47.325   3.110  14.675  0.00  0.00    +0.000 NA
ATOM     19  C   UNL     1      47.138   4.101  13.762  0.00  0.00    +0.000 A 
ENDBRANCH   7  14
ENDBRANCH   5   7
BRANCH   1  20
ATOM     20  O   UNL     1      45.488   5.007   8.494  0.00  0.00    +0.000 OA
BRANCH  20  24
ATOM     21  C   UNL     1      46.725   1.160   7.696  0.00  0.00    +0.000 A 
ATOM     22  C   UNL     1      47.335   2.216   7.021  0.00  0.00    +0.000 A 
ATOM     23  C   UNL     1      46.921   3.532   7.277  0.00  0.00    +0.000 A 
ATOM     24  C   UNL     1      45.877   3.716   8.182  0.00  0.00    +0.000 A 
ATOM     25  N   UNL     1      45.244   2.683   8.788  0.00  0.00    +0.000 NA
ATOM     26  C   UNL     1      45.697   1.452   8.573  0.00  0.00    +0.000 A 
ENDBRANCH  20  24
ENDBRANCH   1  20
TORSDOF 4
ENDMDL
MODEL 5
REMARK VINA RESULT:    -6.790      2.629      4.599
REMARK INTER + INTRA:          -9.413
REMARK INTER:                  -8.642
REMARK INTRA:                  -0.771
REMARK UNBOUND:                -1.035
REMARK  Name = 
REMARK  4 active torsions:
REMARK  status: ('A' for Active; 'I' for Inactive)
REMARK    1  A    between atoms: C_4  and  O_5
REMARK    2  A    between atoms: O_5  and  C_6
REMARK    3  A    between atoms: C_10  and  C_11
REMARK    4  A    between atoms: C_11  and  C_12
REMARK                            x       y       z     vdW  Elec       q    Type
REMARK                         _______ _______ _______ _____ _____    ______ ____
ROOT
ATOM      1  C   UNL     1      47.372   6.642  12.829  0.00  0.00    +0.000 A 
ATOM      2  C   UNL     1      47.371   5.954  14.040  0.00  0.00    +0.000 A 
ATOM      3  C   UNL     1      46.760   4.706  14.126  0.00  0.00    +0.000 A 
ATOM      4  C   UNL     1      46.016   4.225  13.051  0.00  0.00    +0.000 A 
ATOM      5  C   UNL     1      45.824   4.984  11.887  0.00  0.00    +0.000 A 
ATOM      6  C   UNL     1      46.623   6.149  11.751  0.00  0.00    +0.000 A 
ENDROOT
BRANCH   5   7
ATOM      7  C   UNL     1      44.675   4.681  10.869  0.00  0.00    +0.000 C 
ATOM      8  C   UNL     1      44.124   6.059  10.348  0.00  0.00    +0.000 C 
ATOM      9  C   UNL     1      43.248   6.828  11.335  0.00  0.00    +0.000 C 
ATOM     10  N   UNL     1      42.128   6.037  11.828  0.00  0.00    +0.000 NA
ATOM     11  C   UNL     1      42.580   4.805  12.456  0.00  0.00    +0.000 C 
ATOM     12  C   UNL     1      43.443   3.951  11.518  0.00  0.00    +0.000 C 
ATOM     13  H   UNL     1      41.504   5.813  11.053  0.00  0.00    +0.000 HD
BRANCH   7  14
ATOM     14  C   UNL     1      45.189   3.836   9.667  0.00  0.00    +0.000 A 
ATOM     15  C   UNL     1      45.733   4.425   8.511  0.00  0.00    +0.000 A 
ATOM     16  C   UNL     1      46.245   3.646   7.474  0.00  0.00    +0.000 A 
ATOM     17  C   UNL     1      46.170   2.273   7.590  0.00  0.00    +0.000 A 
ATOM     18  N   UNL     1      45.604   1.652   8.641  0.00  0.00    +0.000 NA
ATOM     19  C   UNL     1      45.144   2.439   9.649  0.00  0.00    +0.000 A 
ENDBRANCH   7  14
ENDBRANCH   5   7
BRANCH   1  20
ATOM     20  O   UNL     1      48.015   7.860  12.669  0.00  0.00    +0.000 OA
BRANCH  20  24
ATOM     21  C   UNL     1      45.605  11.047  11.668  0.00  0.00    +0.000 A 
ATOM     22  C   UNL     1      46.977  11.142  11.436  0.00  0.00    +0.000 A 
ATOM     23  C   UNL     1      47.811  10.067  11.778  0.00  0.00    +0.000 A 
ATOM     24  C   UNL     1      47.222   8.955  12.375  0.00  0.00    +0.000 A 
ATOM     25  N   UNL     1      45.898   8.892  12.656  0.00  0.00    +0.000 NA
ATOM     26  C   UNL     1      45.121   9.898  12.267  0.00  0.00    +0.000 A 
ENDBRANCH  20  24
ENDBRANCH   1  20
TORSDOF 4
ENDMDL
MODEL 6
REMARK VINA RESULT:    -6.712      3.086      7.249
REMARK INTER + INTRA:          -9.317
REMARK INTER:                  -8.815
REMARK INTRA:                  -0.502
REMARK UNBOUND:                -1.035
REMARK  Name = 
REMARK  4 active torsions:
REMARK  status: ('A' for Active; 'I' for Inactive)
REMARK    1  A    between atoms: C_4  and  O_5
REMARK    2  A    between atoms: O_5  and  C_6
REMARK    3  A    between atoms: C_10  and  C_11
REMARK    4  A    between atoms: C_11  and  C_12
REMARK                            x       y       z     vdW  Elec       q    Type
REMARK                         _______ _______ _______ _____ _____    ______ ____
ROOT
ATOM      1  C   UNL     1      45.758   4.465   8.523  0.00  0.00    +0.000 A 
ATOM      2  C   UNL     1      44.805   3.454   8.623  0.00  0.00    +0.000 A 
ATOM      3  C   UNL     1      43.825   3.522   9.608  0.00  0.00    +0.000 A 
ATOM      4  C   UNL     1      43.897   4.511  10.588  0.00  0.00    +0.000 A 
ATOM      5  C   UNL     1      44.961   5.424  10.638  0.00  0.00    +0.000 A 
ATOM      6  C   UNL     1      45.822   5.457   9.511  0.00  0.00    +0.000 A 
ENDROOT
BRANCH   5   7
ATOM      7  C   UNL     1      45.303   6.241  11.929  0.00  0.00    +0.000 C 
ATOM      8  C   UNL     1      46.791   5.911  12.320  0.00  0.00    +0.000 C 
ATOM      9  C   UNL     1      47.011   4.538  12.952  0.00  0.00    +0.000 C 
ATOM     10  N   UNL     1      46.164   4.312  14.116  0.00  0.00    +0.000 NA
ATOM     11  C   UNL     1      44.754   4.460  13.786  0.00  0.00    +0.000 C 
ATOM     12  C   UNL     1      44.438   5.831  13.175  0.00  0.00    +0.000 C 
ATOM     13  H   UNL     1      46.412   4.973  14.851  0.00  0.00    +0.000 HD
BRANCH   7  14
ATOM     14  C   UNL     1      45.153   7.771  11.688  0.00  0.00    +0.000 A 
ATOM     15  C   UNL     1      44.041   8.324  11.028  0.00  0.00    +0.000 A 
ATOM     16  C   UNL     1      43.898   9.703  10.880  0.00  0.00    +0.000 A 
ATOM     17  C   UNL     1      44.899  10.519  11.366  0.00  0.00    +0.000 A 
ATOM     18  N   UNL     1      46.016  10.048  11.948  0.00  0.00    +0.000 NA
ATOM     19  C   UNL     1      46.110   8.700  12.106  0.00  0.00    +0.000 A 
ENDBRANCH   7  14
ENDBRANCH   5   7
BRANCH   1  20
ATOM     20  O   UNL     1      46.721   4.479   7.526  0.00  0.00    +0.000 OA
BRANCH  20  24
ATOM     21  C   UNL     1      47.238   0.929   5.503  0.00  0.00    +0.000 A 
ATOM     22  C   UNL     1      47.378   0.939   6.890  0.00  0.00    +0.000 A 
ATOM     23  C   UNL     1      47.211   2.142   7.592  0.00  0.00    +0.000 A 
ATOM     24  C   UNL     1      46.946   3.292   6.852  0.00  0.00    +0.000 A 
ATOM     25  N   UNL     1      46.873   3.289   5.500  0.00  0.00    +0.000 NA
ATOM     26  C   UNL     1      46.975   2.126   4.864  0.00  0.00    +0.000 A 
ENDBRANCH  20  24
ENDBRANCH   1  20
TORSDOF 4
ENDMDL
MODEL 7
REMARK VINA RESULT:    -6.675      2.297      3.743
REMARK INTER + INTRA:          -9.271
REMARK INTER:                  -8.349
REMARK INTRA:                  -0.922
REMARK UNBOUND:                -1.035
REMARK  Name = 
REMARK  4 active torsions:
REMARK  status: ('A' for Active; 'I' for Inactive)
REMARK    1  A    between atoms: C_4  and  O_5
REMARK    2  A    between atoms: O_5  and  C_6
REMARK    3  A    between atoms: C_10  and  C_11
REMARK    4  A    between atoms: C_11  and  C_12
REMARK                            x       y       z     vdW  Elec       q    Type
REMARK                         _______ _______ _______ _____ _____    ______ ____
ROOT
ATOM      1  C   UNL     1      47.246   6.527  13.234  0.00  0.00    +0.000 A 
ATOM      2  C   UNL     1      47.311   5.613  14.283  0.00  0.00    +0.000 A 
ATOM      3  C   UNL     1      46.820   4.324  14.109  0.00  0.00    +0.000 A 
ATOM      4  C   UNL     1      46.121   4.000  12.947  0.00  0.00    +0.000 A 
ATOM      5  C   UNL     1      45.858   4.956  11.954  0.00  0.00    +0.000 A 
ATOM      6  C   UNL     1      46.543   6.193  12.067  0.00  0.00    +0.000 A 
ENDROOT
BRANCH   5   7
ATOM      7  C   UNL     1      44.739   4.759  10.878  0.00  0.00    +0.000 C 
ATOM      8  C   UNL     1      44.237   6.185  10.446  0.00  0.00    +0.000 C 
ATOM      9  C   UNL     1      43.342   6.897  11.459  0.00  0.00    +0.000 C 
ATOM     10  N   UNL     1      42.188   6.098  11.850  0.00  0.00    +0.000 NA
ATOM     11  C   UNL     1      42.592   4.811  12.397  0.00  0.00    +0.000 C 
ATOM     12  C   UNL     1      43.469   4.011  11.426  0.00  0.00    +0.000 C 
ATOM     13  H   UNL     1      41.588   5.948  11.040  0.00  0.00    +0.000 HD
BRANCH   7  14
ATOM     14  C   UNL     1      45.278   3.996   9.633  0.00  0.00    +0.000 A 
ATOM     15  C   UNL     1      45.258   2.592   9.543  0.00  0.00    +0.000 A 
ATOM     16  C   UNL     1      45.689   1.933   8.392  0.00  0.00    +0.000 A 
ATOM     17  C   UNL     1      46.175   2.693   7.348  0.00  0.00    +0.000 A 
ATOM     18  N   UNL     1      46.280   4.033   7.399  0.00  0.00    +0.000 NA
ATOM     19  C   UNL     1      45.822   4.647   8.522  0.00  0.00    +0.000 A 
ENDBRANCH   7  14
ENDBRANCH   5   7
BRANCH   1  20
ATOM     20  O   UNL     1      47.772   7.806  13.331  0.00  0.00    +0.000 OA
BRANCH  20  24
ATOM     21  C   UNL     1      51.720   8.433  12.339  0.00  0.00    +0.000 A 
ATOM     22  C   UNL     1      50.802   8.183  11.319  0.00  0.00    +0.000 A 
ATOM     23  C   UNL     1      49.455   7.962  11.642  0.00  0.00    +0.000 A 
ATOM     24  C   UNL     1      49.103   7.966  12.991  0.00  0.00    +0.000 A 
ATOM     25  N   UNL     1      50.009   8.146  13.981  0.00  0.00    +0.000 NA
ATOM     26  C   UNL     1      51.267   8.414  13.646  0.00  0.00    +0.000 A 
ENDBRANCH  20  24
ENDBRANCH   1  20
TORSDOF 4
ENDMDL
MODEL 8
REMARK VINA RESULT:    -6.526      2.170      2.752
REMARK INTER + INTRA:          -9.087
REMARK INTER:                  -8.182
REMARK INTRA:                  -0.905
REMARK UNBOUND:                -1.035
REMARK  Name = 
REMARK  4 active torsions:
REMARK  status: ('A' for Active; 'I' for Inactive)
REMARK    1  A    between atoms: C_4  and  O_5
REMARK    2  A    between atoms: O_5  and  C_6
REMARK    3  A    between atoms: C_10  and  C_11
REMARK    4  A    between atoms: C_11  and  C_12
REMARK                            x       y       z     vdW  Elec       q    Type
REMARK                         _______ _______ _______ _____ _____    ______ ____
ROOT
ATOM      1  C   UNL     1      47.775   6.796  12.467  0.00  0.00    +0.000 A 
ATOM      2  C   UNL     1      47.495   8.093  12.041  0.00  0.00    +0.000 A 
ATOM      3  C   UNL     1      46.212   8.417  11.610  0.00  0.00    +0.000 A 
ATOM      4  C   UNL     1      45.260   7.412  11.453  0.00  0.00    +0.000 A 
ATOM      5  C   UNL     1      45.569   6.062  11.677  0.00  0.00    +0.000 A 
ATOM      6  C   UNL     1      46.811   5.792  12.307  0.00  0.00    +0.000 A 
ENDROOT
BRANCH   5   7
ATOM      7  C   UNL     1      44.691   4.897  11.109  0.00  0.00    +0.000 C 
ATOM      8  C   UNL     1      43.261   5.479  10.812  0.00  0.00    +0.000 C 
ATOM      9  C   UNL     1      42.391   5.733  12.041  0.00  0.00    +0.000 C 
ATOM     10  N   UNL     1      42.245   4.552  12.881  0.00  0.00    +0.000 NA
ATOM     11  C   UNL     1      43.538   4.043  13.314  0.00  0.00    +0.000 C 
ATOM     12  C   UNL     1      44.466   3.727  12.135  0.00  0.00    +0.000 C 
ATOM     13  H   UNL     1      41.750   3.826  12.364  0.00  0.00    +0.000 HD
BRANCH   7  14
ATOM     14  C   UNL     1      45.301   4.313   9.801  0.00  0.00    +0.000 A 
ATOM     15  C   UNL     1      45.233   2.944   9.485  0.00  0.00    +0.000 A 
ATOM     16  C   UNL     1      45.731   2.454   8.278  0.00  0.00    +0.000 A 
ATOM     17  C   UNL     1      46.330   3.343   7.409  0.00  0.00    +0.000 A 
ATOM     18  N   UNL     1      46.482   4.652   7.683  0.00  0.00    +0.000 NA
ATOM     19  C   UNL     1      45.958   5.103   8.854  0.00  0.00    +0.000 A 
ENDBRANCH   7  14
ENDBRANCH   5   7
BRANCH   1  20
ATOM     20  O   UNL     1      49.018   6.431  12.960  0.00  0.00    +0.000 OA
BRANCH  20  24
ATOM     21  C   UNL     1      49.796   7.697  16.802  0.00  0.00    +0.000 A 
ATOM     22  C   UNL     1      50.459   8.316  15.743  0.00  0.00    +0.000 A 
ATOM     23  C   UNL     1      50.209   7.891  14.430  0.00  0.00    +0.000 A 
ATOM     24  C   UNL     1      49.324   6.830  14.249  0.00  0.00    +0.000 A 
ATOM     25  N   UNL     1      48.730   6.191  15.285  0.00  0.00    +0.000 NA
ATOM     26  C   UNL     1      48.937   6.652  16.515  0.00  0.00    +0.000 A 
ENDBRANCH  20  24
ENDBRANCH   1  20
TORSDOF 4
ENDMDL
MODEL 9
REMARK VINA RESULT:    -6.216      2.281      7.699
REMARK INTER + INTRA:          -8.704
REMARK INTER:                  -8.077
REMARK INTRA:                  -0.627
REMARK UNBOUND:                -1.035
REMARK  Name = 
REMARK  4 active torsions:
REMARK  status: ('A' for Active; 'I' for Inactive)
REMARK    1  A    between atoms: C_4  and  O_5
REMARK    2  A    between atoms: O_5  and  C_6
REMARK    3  A    between atoms: C_10  and  C_11
REMARK    4  A    between atoms: C_11  and  C_12
REMARK                            x       y       z     vdW  Elec       q    Type
REMARK                         _______ _______ _______ _____ _____    ______ ____
ROOT
ATOM      1  C   UNL     1      46.806   4.768  14.160  0.00  0.00    +0.000 A 
ATOM      2  C   UNL     1      46.995   6.051  13.652  0.00  0.00    +0.000 A 
ATOM      3  C   UNL     1      48.020   6.849  14.151  0.00  0.00    +0.000 A 
ATOM      4  C   UNL     1      48.746   6.427  15.263  0.00  0.00    +0.000 A 
ATOM      5  C   UNL     1      48.446   5.229  15.929  0.00  0.00    +0.000 A 
ATOM      6  C   UNL     1      47.543   4.351  15.277  0.00  0.00    +0.000 A 
ENDROOT
BRANCH   5   7
ATOM      7  C   UNL     1      48.927   4.940  17.390  0.00  0.00    +0.000 C 
ATOM      8  C   UNL     1      47.671   4.495  18.226  0.00  0.00    +0.000 C 
ATOM      9  C   UNL     1      46.709   5.618  18.607  0.00  0.00    +0.000 C 
ATOM     10  N   UNL     1      47.369   6.711  19.309  0.00  0.00    +0.000 NA
ATOM     11  C   UNL     1      48.459   7.268  18.522  0.00  0.00    +0.000 C 
ATOM     12  C   UNL     1      49.494   6.210  18.123  0.00  0.00    +0.000 C 
ATOM     13  H   UNL     1      47.732   6.373  20.199  0.00  0.00    +0.000 HD
BRANCH   7  14
ATOM     14  C   UNL     1      50.001   3.814  17.421  0.00  0.00    +0.000 A 
ATOM     15  C   UNL     1      51.345   4.066  17.753  0.00  0.00    +0.000 A 
ATOM     16  C   UNL     1      52.277   3.031  17.835  0.00  0.00    +0.000 A 
ATOM     17  C   UNL     1      51.856   1.749  17.546  0.00  0.00    +0.000 A 
ATOM     18  N   UNL     1      50.601   1.455  17.161  0.00  0.00    +0.000 NA
ATOM     19  C   UNL     1      49.710   2.481  17.121  0.00  0.00    +0.000 A 
ENDBRANCH   7  14
ENDBRANCH   5   7
BRANCH   1  20
ATOM     20  O   UNL     1      45.840   3.908  13.661  0.00  0.00    +0.000 OA
BRANCH  20  24
ATOM     21  C   UNL     1      42.852   5.428  11.267  0.00  0.00    +0.000 A 
ATOM     22  C   UNL     1      44.007   4.929  10.666  0.00  0.00    +0.000 A 
ATOM     23  C   UNL     1      45.036   4.414  11.468  0.00  0.00    +0.000 A 
ATOM     24  C   UNL     1      44.865   4.461  12.851  0.00  0.00    +0.000 A 
ATOM     25  N   UNL     1      43.769   5.005  13.432  0.00  0.00    +0.000 NA
ATOM     26  C   UNL     1      42.783   5.430  12.648  0.00  0.00    +0.000 A 
ENDBRANCH  20  24
ENDBRANCH   1  20
TORSDOF 4
ENDMDL
