MODEL 1
REMARK VINA RESULT:    -7.053      0.000      0.000
REMARK INTER + INTRA:         -11.371
REMARK INTER:                 -10.352
REMARK INTRA:                  -1.019
REMARK UNBOUND:                -1.019
REMARK  Name = 
REMARK  9 active torsions:
REMARK  status: ('A' for Active; 'I' for Inactive)
REMARK    1  A    between atoms: C_1  and  N_2
REMARK    2  A    between atoms: N_2  and  C_3
REMARK    3  A    between atoms: N_2  and  C_19
REMARK    4  A    between atoms: C_3  and  C_4
REMARK    5  A    between atoms: C_7  and  C_8
REMARK    6  A    between atoms: C_8  and  N_9
REMARK    7  A    between atoms: N_9  and  C_10
REMARK    8  A    between atoms: C_10  and  C_11
REMARK    9  A    between atoms: C_19  and  C_20
REMARK                            x       y       z     vdW  Elec       q    Type
REMARK                         _______ _______ _______ _____ _____    ______ ____
ROOT
ATOM      1  C   UNL     1      47.232   6.109  12.627  0.00  0.00    +0.000 A 
ATOM      2  C   UNL     1      46.849   6.658  11.394  0.00  0.00    +0.000 A 
ATOM      3  C   UNL     1      45.687   6.227  10.756  0.00  0.00    +0.000 A 
ATOM      4  C   UNL     1      44.901   5.211  11.314  0.00  0.00    +0.000 A 
ATOM      5  C   UNL     1      45.293   4.647  12.536  0.00  0.00    +0.000 A 
ATOM      6  C   UNL     1      46.443   5.097  13.190  0.00  0.00    +0.000 A 
ENDROOT
BRANCH   1   7
ATOM      7  C   UNL     1      48.452   6.642  13.350  0.00  0.00    +0.000 C 
BRANCH   7   9
ATOM      8  C   UNL     1      48.050   8.569  14.789  0.00  0.00    +0.000 C 
ATOM      9  N   UNL     1      48.186   7.105  14.730  0.00  0.00    +0.000 NA
BRANCH   9  10
ATOM     10  C   UNL     1      49.287   6.652  15.604  0.00  0.00    +0.000 C 
BRANCH  10  11
ATOM     11  C   UNL     1      48.909   5.539  16.550  0.00  0.00    +0.000 A 
ATOM     12  C   UNL     1      47.773   4.751  16.343  0.00  0.00    +0.000 A 
ATOM     13  C   UNL     1      47.472   3.727  17.236  0.00  0.00    +0.000 A 
ATOM     14  C   UNL     1      48.320   3.522  18.310  0.00  0.00    +0.000 A 
ATOM     15  N   UNL     1      49.422   4.266  18.550  0.00  0.00    +0.000 NA
ATOM     16  C   UNL     1      49.688   5.254  17.668  0.00  0.00    +0.000 A 
ENDBRANCH  10  11
ENDBRANCH   9  10
ENDBRANCH   7   9
ENDBRANCH   1   7
BRANCH   4  17
ATOM     17  C   UNL     1      43.650   4.746  10.606  0.00  0.00    +0.000 C 
BRANCH  17  18
ATOM     18  N   UNL     1      43.984   4.202   9.293  0.00  0.00    +0.000 NA
ATOM     19  H   UNL     1      44.768   4.735   8.914  0.00  0.00    +0.000 HD
BRANCH  18  20
ATOM     20  C   UNL     1      44.376   2.794   9.381  0.00  0.00    +0.000 C 
BRANCH  20  21
ATOM     21  C   UNL     1      45.524   2.473   8.453  0.00  0.00    +0.000 A 
ATOM     22  C   UNL     1      46.098   3.454   7.653  0.00  0.00    +0.000 A 
ATOM     23  C   UNL     1      47.157   3.109   6.826  0.00  0.00    +0.000 A 
ATOM     24  C   UNL     1      47.588   1.798   6.840  0.00  0.00    +0.000 A 
ATOM     25  N   UNL     1      47.021   0.857   7.620  0.00  0.00    +0.000 NA
ATOM     26  N   UNL     1      45.980   1.197   8.435  0.00  0.00    +0.000 NA
ENDBRANCH  20  21
ENDBRANCH  18  20
ENDBRANCH  17  18
ENDBRANCH   4  17
TORSDOF 8
ENDMDL
MODEL 2
REMARK VINA RESULT:    -6.973      2.675      4.803
REMARK INTER + INTRA:         -11.254
REMARK INTER:                  -9.902
REMARK INTRA:                  -1.352
REMARK UNBOUND:                -1.019
REMARK  Name = 
REMARK  9 active torsions:
REMARK  status: ('A' for Active; 'I' for Inactive)
REMARK    1  A    between atoms: C_1  and  N_2
REMARK    2  A    between atoms: N_2  and  C_3
REMARK    3  A    between atoms: N_2  and  C_19
REMARK    4  A    between atoms: C_3  and  C_4
REMARK    5  A    between atoms: C_7  and  C_8
REMARK    6  A    between atoms: C_8  and  N_9
REMARK    7  A    between atoms: N_9  and  C_10
REMARK    8  A    between atoms: C_10  and  C_11
REMARK    9  A    between atoms: C_19  and  C_20
REMARK                            x       y       z     vdW  Elec       q    Type
REMARK                         _______ _______ _______ _____ _____    ______ ____
ROOT
ATOM      1  C   UNL     1      46.880   6.059  12.611  0.00  0.00    +0.000 A 
ATOM      2  C   UNL     1      46.347   5.026  13.398  0.00  0.00    +0.000 A 
ATOM      3  C   UNL     1      45.340   4.202  12.899  0.00  0.00    +0.000 A 
ATOM      4  C   UNL     1      44.814   4.412  11.618  0.00  0.00    +0.000 A 
ATOM      5  C   UNL     1      45.330   5.456  10.838  0.00  0.00    +0.000 A 
ATOM      6  C   UNL     1      46.359   6.266  11.327  0.00  0.00    +0.000 A 
ENDROOT
BRANCH   1   7
ATOM      7  C   UNL     1      48.030   6.896  13.132  0.00  0.00    +0.000 C 
BRANCH   7   9
ATOM      8  C   UNL     1      49.728   8.355  12.168  0.00  0.00    +0.000 C 
ATOM      9  N   UNL     1      48.287   8.127  12.354  0.00  0.00    +0.000 NA
BRANCH   9  10
ATOM     10  C   UNL     1      47.669   9.271  13.056  0.00  0.00    +0.000 C 
BRANCH  10  11
ATOM     11  C   UNL     1      46.600   9.981  12.262  0.00  0.00    +0.000 A 
ATOM     12  C   UNL     1      45.259   9.590  12.318  0.00  0.00    +0.000 A 
ATOM     13  C   UNL     1      44.307  10.283  11.576  0.00  0.00    +0.000 A 
ATOM     14  C   UNL     1      44.727  11.351  10.802  0.00  0.00    +0.000 A 
ATOM     15  N   UNL     1      46.013  11.754  10.714  0.00  0.00    +0.000 NA
ATOM     16  C   UNL     1      46.916  11.061  11.442  0.00  0.00    +0.000 A 
ENDBRANCH  10  11
ENDBRANCH   9  10
ENDBRANCH   7   9
ENDBRANCH   1   7
BRANCH   4  17
ATOM     17  C   UNL     1      43.714   3.518  11.095  0.00  0.00    +0.000 C 
BRANCH  17  18
ATOM     18  N   UNL     1      43.855   3.333   9.654  0.00  0.00    +0.000 NA
ATOM     19  H   UNL     1      44.441   4.085   9.289  0.00  0.00    +0.000 HD
BRANCH  18  20
ATOM     20  C   UNL     1      44.490   2.052   9.338  0.00  0.00    +0.000 C 
BRANCH  20  21
ATOM     21  C   UNL     1      45.633   2.218   8.363  0.00  0.00    +0.000 A 
ATOM     22  C   UNL     1      45.871   3.435   7.735  0.00  0.00    +0.000 A 
ATOM     23  C   UNL     1      46.940   3.538   6.857  0.00  0.00    +0.000 A 
ATOM     24  C   UNL     1      47.717   2.416   6.651  0.00  0.00    +0.000 A 
ATOM     25  N   UNL     1      47.474   1.242   7.267  0.00  0.00    +0.000 NA
ATOM     26  N   UNL     1      46.423   1.143   8.131  0.00  0.00    +0.000 NA
ENDBRANCH  20  21
ENDBRANCH  18  20
ENDBRANCH  17  18
ENDBRANCH   4  17
TORSDOF 8
ENDMDL
MODEL 3
REMARK VINA RESULT:    -6.910      1.493      8.460
REMARK INTER + INTRA:         -11.161
REMARK INTER:                 -10.187
REMARK INTRA:                  -0.974
REMARK UNBOUND:                -1.019
REMARK  Name = 
REMARK  9 active torsions:
REMARK  status: ('A' for Active; 'I' for Inactive)
REMARK    1  A    between atoms: C_1  and  N_2
REMARK    2  A    between atoms: N_2  and  C_3
REMARK    3  A    between atoms: N_2  and  C_19
REMARK    4  A    between atoms: C_3  and  C_4
REMARK    5  A    between atoms: C_7  and  C_8
REMARK    6  A    between atoms: C_8  and  N_9
REMARK    7  A    between atoms: N_9  and  C_10
REMARK    8  A    between atoms: C_10  and  C_11
REMARK    9  A    between atoms: C_19  and  C_20
REMARK                            x       y       z     vdW  Elec       q    Type
REMARK                         _______ _______ _______ _____ _____    ______ ____
ROOT
ATOM      1  C   UNL     1      45.933   4.549  12.793  0.00  0.00    +0.000 A 
ATOM      2  C   UNL     1      46.527   4.263  14.032  0.00  0.00    +0.000 A 
ATOM      3  C   UNL     1      47.404   5.170  14.624  0.00  0.00    +0.000 A 
ATOM      4  C   UNL     1      47.739   6.366  13.977  0.00  0.00    +0.000 A 
ATOM      5  C   UNL     1      47.163   6.645  12.730  0.00  0.00    +0.000 A 
ATOM      6  C   UNL     1      46.262   5.748  12.148  0.00  0.00    +0.000 A 
ENDROOT
BRANCH   1   7
ATOM      7  C   UNL     1      44.920   3.593  12.198  0.00  0.00    +0.000 C 
BRANCH   7   9
ATOM      8  C   UNL     1      42.895   4.664  11.362  0.00  0.00    +0.000 C 
ATOM      9  N   UNL     1      44.215   4.119  11.008  0.00  0.00    +0.000 NA
BRANCH   9  10
ATOM     10  C   UNL     1      44.077   3.032  10.017  0.00  0.00    +0.000 C 
BRANCH  10  11
ATOM     11  C   UNL     1      45.164   3.005   8.972  0.00  0.00    +0.000 A 
ATOM     12  C   UNL     1      45.763   1.809   8.564  0.00  0.00    +0.000 A 
ATOM     13  C   UNL     1      46.754   1.833   7.587  0.00  0.00    +0.000 A 
ATOM     14  C   UNL     1      47.114   3.055   7.046  0.00  0.00    +0.000 A 
ATOM     15  N   UNL     1      46.566   4.232   7.419  0.00  0.00    +0.000 NA
ATOM     16  C   UNL     1      45.609   4.179   8.371  0.00  0.00    +0.000 A 
ENDBRANCH  10  11
ENDBRANCH   9  10
ENDBRANCH   7   9
ENDBRANCH   1   7
BRANCH   4  17
ATOM     17  C   UNL     1      48.700   7.335  14.626  0.00  0.00    +0.000 C 
BRANCH  17  18
ATOM     18  N   UNL     1      48.295   7.603  16.003  0.00  0.00    +0.000 NA
ATOM     19  H   UNL     1      47.480   7.026  16.217  0.00  0.00    +0.000 HD
BRANCH  18  20
ATOM     20  C   UNL     1      49.363   7.273  16.949  0.00  0.00    +0.000 C 
BRANCH  20  21
ATOM     21  C   UNL     1      49.342   5.810  17.328  0.00  0.00    +0.000 A 
ATOM     22  C   UNL     1      48.357   5.299  18.165  0.00  0.00    +0.000 A 
ATOM     23  C   UNL     1      48.377   3.946  18.474  0.00  0.00    +0.000 A 
ATOM     24  C   UNL     1      49.383   3.174  17.930  0.00  0.00    +0.000 A 
ATOM     25  N   UNL     1      50.332   3.684  17.121  0.00  0.00    +0.000 NA
ATOM     26  N   UNL     1      50.311   5.014  16.816  0.00  0.00    +0.000 NA
ENDBRANCH  20  21
ENDBRANCH  18  20
ENDBRANCH  17  18
ENDBRANCH   4  17
TORSDOF 8
ENDMDL
MODEL 4
REMARK VINA RESULT:    -6.072      2.177      8.443
REMARK INTER + INTRA:          -9.930
REMARK INTER:                  -9.717
REMARK INTRA:                  -0.214
REMARK UNBOUND:                -1.019
REMARK  Name = 
REMARK  9 active torsions:
REMARK  status: ('A' for Active; 'I' for Inactive)
REMARK    1  A    between atoms: C_1  and  N_2
REMARK    2  A    between atoms: N_2  and  C_3
REMARK    3  A    between atoms: N_2  and  C_19
REMARK    4  A    between atoms: C_3  and  C_4
REMARK    5  A    between atoms: C_7  and  C_8
REMARK    6  A    between atoms: C_8  and  N_9
REMARK    7  A    between atoms: N_9  and  C_10
REMARK    8  A    between atoms: C_10  and  C_11
REMARK    9  A    between atoms: C_19  and  C_20
REMARK                            x       y       z     vdW  Elec       q    Type
REMARK                         _______ _______ _______ _____ _____    ______ ____
ROOT
ATOM      1  C   UNL     1      46.661   4.940  13.519  0.00  0.00    +0.000 A 
ATOM      2  C   UNL     1      47.393   6.110  13.267  0.00  0.00    +0.000 A 
ATOM      3  C   UNL     1      48.265   6.621  14.227  0.00  0.00    +0.000 A 
ATOM      4  C   UNL     1      48.400   5.998  15.474  0.00  0.00    +0.000 A 
ATOM      5  C   UNL     1      47.654   4.840  15.735  0.00  0.00    +0.000 A 
ATOM      6  C   UNL     1      46.799   4.312  14.763  0.00  0.00    +0.000 A 
ENDROOT
BRANCH   1   7
ATOM      7  C   UNL     1      45.778   4.349  12.439  0.00  0.00    +0.000 C 
BRANCH   7   9
ATOM      8  C   UNL     1      43.442   3.844  12.921  0.00  0.00    +0.000 C 
ATOM      9  N   UNL     1      44.390   4.861  12.441  0.00  0.00    +0.000 NA
BRANCH   9  10
ATOM     10  C   UNL     1      44.039   5.291  11.073  0.00  0.00    +0.000 C 
BRANCH  10  11
ATOM     11  C   UNL     1      44.635   4.435   9.982  0.00  0.00    +0.000 A 
ATOM     12  C   UNL     1      44.317   3.080   9.853  0.00  0.00    +0.000 A 
ATOM     13  C   UNL     1      44.883   2.334   8.824  0.00  0.00    +0.000 A 
ATOM     14  C   UNL     1      45.751   2.970   7.952  0.00  0.00    +0.000 A 
ATOM     15  N   UNL     1      46.089   4.274   8.048  0.00  0.00    +0.000 NA
ATOM     16  C   UNL     1      45.527   4.972   9.058  0.00  0.00    +0.000 A 
ENDBRANCH  10  11
ENDBRANCH   9  10
ENDBRANCH   7   9
ENDBRANCH   1   7
BRANCH   4  17
ATOM     17  C   UNL     1      49.341   6.569  16.509  0.00  0.00    +0.000 C 
BRANCH  17  18
ATOM     18  N   UNL     1      50.560   5.768  16.581  0.00  0.00    +0.000 NA
ATOM     19  H   UNL     1      51.361   6.390  16.457  0.00  0.00    +0.000 HD
BRANCH  18  20
ATOM     20  C   UNL     1      50.685   5.098  17.877  0.00  0.00    +0.000 C 
BRANCH  20  21
ATOM     21  C   UNL     1      51.172   3.676  17.727  0.00  0.00    +0.000 A 
ATOM     22  C   UNL     1      52.411   3.284  18.222  0.00  0.00    +0.000 A 
ATOM     23  C   UNL     1      52.806   1.964  18.067  0.00  0.00    +0.000 A 
ATOM     24  C   UNL     1      51.942   1.101  17.424  0.00  0.00    +0.000 A 
ATOM     25  N   UNL     1      50.745   1.495  16.948  0.00  0.00    +0.000 NA
ATOM     26  N   UNL     1      50.355   2.794  17.102  0.00  0.00    +0.000 NA
ENDBRANCH  20  21
ENDBRANCH  18  20
ENDBRANCH  17  18
ENDBRANCH   4  17
TORSDOF 8
ENDMDL
MODEL 5
REMARK VINA RESULT:    -6.029      2.058      2.968
REMARK INTER + INTRA:          -9.868
REMARK INTER:                  -8.757
REMARK INTRA:                  -1.112
REMARK UNBOUND:                -1.019
REMARK  Name = 
REMARK  9 active torsions:
REMARK  status: ('A' for Active; 'I' for Inactive)
REMARK    1  A    between atoms: C_1  and  N_2
REMARK    2  A    between atoms: N_2  and  C_3
REMARK    3  A    between atoms: N_2  and  C_19
REMARK    4  A    between atoms: C_3  and  C_4
REMARK    5  A    between atoms: C_7  and  C_8
REMARK    6  A    between atoms: C_8  and  N_9
REMARK    7  A    between atoms: N_9  and  C_10
REMARK    8  A    between atoms: C_10  and  C_11
REMARK    9  A    between atoms: C_19  and  C_20
REMARK                            x       y       z     vdW  Elec       q    Type
REMARK                         _______ _______ _______ _____ _____    ______ ____
ROOT
ATOM      1  C   UNL     1      48.652   7.604  13.887  0.00  0.00    +0.000 A 
ATOM      2  C   UNL     1      47.690   8.608  14.079  0.00  0.00    +0.000 A 
ATOM      3  C   UNL     1      46.487   8.581  13.378  0.00  0.00    +0.000 A 
ATOM      4  C   UNL     1      46.229   7.572  12.440  0.00  0.00    +0.000 A 
ATOM      5  C   UNL     1      47.196   6.580  12.232  0.00  0.00    +0.000 A 
ATOM      6  C   UNL     1      48.393   6.591  12.954  0.00  0.00    +0.000 A 
ENDROOT
BRANCH   1   7
ATOM      7  C   UNL     1      49.921   7.599  14.713  0.00  0.00    +0.000 C 
BRANCH   7   9
ATOM      8  C   UNL     1      50.283   8.594  16.910  0.00  0.00    +0.000 C 
ATOM      9  N   UNL     1      49.698   7.465  16.170  0.00  0.00    +0.000 NA
BRANCH   9  10
ATOM     10  C   UNL     1      50.283   6.188  16.626  0.00  0.00    +0.000 C 
BRANCH  10  11
ATOM     11  C   UNL     1      49.266   5.138  16.999  0.00  0.00    +0.000 A 
ATOM     12  C   UNL     1      48.051   5.015  16.319  0.00  0.00    +0.000 A 
ATOM     13  C   UNL     1      47.150   4.023  16.691  0.00  0.00    +0.000 A 
ATOM     14  C   UNL     1      47.494   3.181  17.735  0.00  0.00    +0.000 A 
ATOM     15  N   UNL     1      48.652   3.272  18.422  0.00  0.00    +0.000 NA
ATOM     16  C   UNL     1      49.507   4.246  18.041  0.00  0.00    +0.000 A 
ENDBRANCH  10  11
ENDBRANCH   9  10
ENDBRANCH   7   9
ENDBRANCH   1   7
BRANCH   4  17
ATOM     17  C   UNL     1      44.924   7.561  11.679  0.00  0.00    +0.000 C 
BRANCH  17  18
ATOM     18  N   UNL     1      44.014   6.571  12.248  0.00  0.00    +0.000 NA
ATOM     19  H   UNL     1      43.477   7.018  12.992  0.00  0.00    +0.000 HD
BRANCH  18  20
ATOM     20  C   UNL     1      43.082   6.059  11.241  0.00  0.00    +0.000 C 
BRANCH  20  21
ATOM     21  C   UNL     1      43.534   4.729  10.685  0.00  0.00    +0.000 A 
ATOM     22  C   UNL     1      44.355   4.660   9.565  0.00  0.00    +0.000 A 
ATOM     23  C   UNL     1      44.750   3.414   9.101  0.00  0.00    +0.000 A 
ATOM     24  C   UNL     1      44.303   2.299   9.781  0.00  0.00    +0.000 A 
ATOM     25  N   UNL     1      43.507   2.381  10.864  0.00  0.00    +0.000 NA
ATOM     26  N   UNL     1      43.119   3.608  11.321  0.00  0.00    +0.000 NA
ENDBRANCH  20  21
ENDBRANCH  18  20
ENDBRANCH  17  18
ENDBRANCH   4  17
TORSDOF 8
ENDMDL
MODEL 6
REMARK VINA RESULT:    -5.781      1.910      2.725
REMARK INTER + INTRA:          -9.504
REMARK INTER:                  -8.327
REMARK INTRA:                  -1.177
REMARK UNBOUND:                -1.019
REMARK  Name = 
REMARK  9 active torsions:
REMARK  status: ('A' for Active; 'I' for Inactive)
REMARK    1  A    between atoms: C_1  and  N_2
REMARK    2  A    between atoms: N_2  and  C_3
REMARK    3  A    between atoms: N_2  and  C_19
REMARK    4  A    between atoms: C_3  and  C_4
REMARK    5  A    between atoms: C_7  and  C_8
REMARK    6  A    between atoms: C_8  and  N_9
REMARK    7  A    between atoms: N_9  and  C_10
REMARK    8  A    between atoms: C_10  and  C_11
REMARK    9  A    between atoms: C_19  and  C_20
REMARK                            x       y       z     vdW  Elec       q    Type
REMARK                         _______ _______ _______ _____ _____    ______ ____
ROOT
ATOM      1  C   UNL     1      48.315   8.628  12.475  0.00  0.00    +0.000 A 
ATOM      2  C   UNL     1      47.101   9.149  12.949  0.00  0.00    +0.000 A 
ATOM      3  C   UNL     1      45.914   8.435  12.794  0.00  0.00    +0.000 A 
ATOM      4  C   UNL     1      45.904   7.203  12.128  0.00  0.00    +0.000 A 
ATOM      5  C   UNL     1      47.111   6.690  11.636  0.00  0.00    +0.000 A 
ATOM      6  C   UNL     1      48.307   7.392  11.815  0.00  0.00    +0.000 A 
ENDROOT
BRANCH   1   7
ATOM      7  C   UNL     1      49.610   9.374  12.721  0.00  0.00    +0.000 C 
BRANCH   7   9
ATOM      8  C   UNL     1      51.036  10.341  14.446  0.00  0.00    +0.000 C 
ATOM      9  N   UNL     1      50.145   9.225  14.092  0.00  0.00    +0.000 NA
BRANCH   9  10
ATOM     10  C   UNL     1      50.866   7.939  14.185  0.00  0.00    +0.000 C 
BRANCH  10  11
ATOM     11  C   UNL     1      50.439   7.072  15.344  0.00  0.00    +0.000 A 
ATOM     12  C   UNL     1      49.098   6.741  15.561  0.00  0.00    +0.000 A 
ATOM     13  C   UNL     1      48.754   5.928  16.636  0.00  0.00    +0.000 A 
ATOM     14  C   UNL     1      49.766   5.468  17.462  0.00  0.00    +0.000 A 
ATOM     15  N   UNL     1      51.070   5.772  17.291  0.00  0.00    +0.000 NA
ATOM     16  C   UNL     1      51.375   6.565  16.241  0.00  0.00    +0.000 A 
ENDBRANCH  10  11
ENDBRANCH   9  10
ENDBRANCH   7   9
ENDBRANCH   1   7
BRANCH   4  17
ATOM     17  C   UNL     1      44.608   6.445  11.958  0.00  0.00    +0.000 C 
BRANCH  17  18
ATOM     18  N   UNL     1      44.877   5.034  11.694  0.00  0.00    +0.000 NA
ATOM     19  H   UNL     1      44.658   4.502  12.538  0.00  0.00    +0.000 HD
BRANCH  18  20
ATOM     20  C   UNL     1      44.051   4.528  10.596  0.00  0.00    +0.000 C 
BRANCH  20  21
ATOM     21  C   UNL     1      44.895   3.967   9.475  0.00  0.00    +0.000 A 
ATOM     22  C   UNL     1      44.999   2.595   9.270  0.00  0.00    +0.000 A 
ATOM     23  C   UNL     1      45.778   2.133   8.220  0.00  0.00    +0.000 A 
ATOM     24  C   UNL     1      46.414   3.066   7.426  0.00  0.00    +0.000 A 
ATOM     25  N   UNL     1      46.305   4.393   7.637  0.00  0.00    +0.000 NA
ATOM     26  N   UNL     1      45.537   4.847   8.671  0.00  0.00    +0.000 NA
ENDBRANCH  20  21
ENDBRANCH  18  20
ENDBRANCH  17  18
ENDBRANCH   4  17
TORSDOF 8
ENDMDL
MODEL 7
REMARK VINA RESULT:    -5.746      3.468      5.242
REMARK INTER + INTRA:          -9.452
REMARK INTER:                  -8.463
REMARK INTRA:                  -0.989
REMARK UNBOUND:                -1.019
REMARK  Name = 
REMARK  9 active torsions:
REMARK  status: ('A' for Active; 'I' for Inactive)
REMARK    1  A    between atoms: C_1  and  N_2
REMARK    2  A    between atoms: N_2  and  C_3
REMARK    3  A    between atoms: N_2  and  C_19
REMARK    4  A    between atoms: C_3  and  C_4
REMARK    5  A    between atoms: C_7  and  C_8
REMARK    6  A    between atoms: C_8  and  N_9
REMARK    7  A    between atoms: N_9  and  C_10
REMARK    8  A    between atoms: C_10  and  C_11
REMARK    9  A    between atoms: C_19  and  C_20
REMARK                            x       y       z     vdW  Elec       q    Type
REMARK                         _______ _______ _______ _____ _____    ______ ____
ROOT
ATOM      1  C   UNL     1      47.773   8.537  12.406  0.00  0.00    +0.000 A 
ATOM      2  C   UNL     1      46.471   8.980  12.683  0.00  0.00    +0.000 A 
ATOM      3  C   UNL     1      45.370   8.180  12.385  0.00  0.00    +0.000 A 
ATOM      4  C   UNL     1      45.539   6.933  11.768  0.00  0.00    +0.000 A 
ATOM      5  C   UNL     1      46.838   6.497  11.471  0.00  0.00    +0.000 A 
ATOM      6  C   UNL     1      47.944   7.288  11.794  0.00  0.00    +0.000 A 
ENDROOT
BRANCH   1   7
ATOM      7  C   UNL     1      48.965   9.380  12.808  0.00  0.00    +0.000 C 
BRANCH   7   9
ATOM      8  C   UNL     1      50.816   8.321  13.991  0.00  0.00    +0.000 C 
ATOM      9  N   UNL     1      50.268   8.691  12.677  0.00  0.00    +0.000 NA
BRANCH   9  10
ATOM     10  C   UNL     1      51.205   9.579  11.958  0.00  0.00    +0.000 C 
BRANCH  10  11
ATOM     11  C   UNL     1      51.822   8.961  10.728  0.00  0.00    +0.000 A 
ATOM     12  C   UNL     1      51.803   7.580  10.507  0.00  0.00    +0.000 A 
ATOM     13  C   UNL     1      52.375   7.058   9.351  0.00  0.00    +0.000 A 
ATOM     14  C   UNL     1      52.949   7.936   8.448  0.00  0.00    +0.000 A 
ATOM     15  N   UNL     1      52.996   9.274   8.628  0.00  0.00    +0.000 NA
ATOM     16  C   UNL     1      52.435   9.753   9.760  0.00  0.00    +0.000 A 
ENDBRANCH  10  11
ENDBRANCH   9  10
ENDBRANCH   7   9
ENDBRANCH   1   7
BRANCH   4  17
ATOM     17  C   UNL     1      44.336   6.081  11.440  0.00  0.00    +0.000 C 
BRANCH  17  18
ATOM     18  N   UNL     1      44.724   4.677  11.336  0.00  0.00    +0.000 NA
ATOM     19  H   UNL     1      44.495   4.214  12.217  0.00  0.00    +0.000 HD
BRANCH  18  20
ATOM     20  C   UNL     1      44.005   4.002  10.254  0.00  0.00    +0.000 C 
BRANCH  20  21
ATOM     21  C   UNL     1      44.953   3.394   9.246  0.00  0.00    +0.000 A 
ATOM     22  C   UNL     1      45.601   4.183   8.302  0.00  0.00    +0.000 A 
ATOM     23  C   UNL     1      46.469   3.576   7.406  0.00  0.00    +0.000 A 
ATOM     24  C   UNL     1      46.646   2.211   7.500  0.00  0.00    +0.000 A 
ATOM     25  N   UNL     1      46.010   1.459   8.420  0.00  0.00    +0.000 NA
ATOM     26  N   UNL     1      45.156   2.056   9.302  0.00  0.00    +0.000 NA
ENDBRANCH  20  21
ENDBRANCH  18  20
ENDBRANCH  17  18
ENDBRANCH   4  17
TORSDOF 8
ENDMDL
MODEL 8
REMARK VINA RESULT:    -5.582      2.900      4.427
REMARK INTER + INTRA:          -9.211
REMARK INTER:                  -8.069
REMARK INTRA:                  -1.142
REMARK UNBOUND:                -1.019
REMARK  Name = 
REMARK  9 active torsions:
REMARK  status: ('A' for Active; 'I' for Inactive)
REMARK    1  A    between atoms: C_1  and  N_2
REMARK    2  A    between atoms: N_2  and  C_3
REMARK    3  A    between atoms: N_2  and  C_19
REMARK    4  A    between atoms: C_3  and  C_4
REMARK    5  A    between atoms: C_7  and  C_8
REMARK    6  A    between atoms: C_8  and  N_9
REMARK    7  A    between atoms: N_9  and  C_10
REMARK    8  A    between atoms: C_10  and  C_11
REMARK    9  A    between atoms: C_19  and  C_20
REMARK                            x       y       z     vdW  Elec       q    Type
REMARK                         _______ _______ _______ _____ _____    ______ ____
ROOT
ATOM      1  C   UNL     1      48.986   7.919  16.206  0.00  0.00    +0.000 A 
ATOM      2  C   UNL     1      49.187   6.785  15.405  0.00  0.00    +0.000 A 
ATOM      3  C   UNL     1      48.685   6.737  14.106  0.00  0.00    +0.000 A 
ATOM      4  C   UNL     1      47.937   7.802  13.589  0.00  0.00    +0.000 A 
ATOM      5  C   UNL     1      47.718   8.928  14.394  0.00  0.00    +0.000 A 
ATOM      6  C   UNL     1      48.244   8.989  15.688  0.00  0.00    +0.000 A 
ENDROOT
BRANCH   1   7
ATOM      7  C   UNL     1      49.605   7.994  17.586  0.00  0.00    +0.000 C 
BRANCH   7   9
ATOM      8  C   UNL     1      48.639   8.482  19.771  0.00  0.00    +0.000 C 
ATOM      9  N   UNL     1      48.728   7.507  18.673  0.00  0.00    +0.000 NA
BRANCH   9  10
ATOM     10  C   UNL     1      49.254   6.218  19.168  0.00  0.00    +0.000 C 
BRANCH  10  11
ATOM     11  C   UNL     1      48.752   5.013  18.412  0.00  0.00    +0.000 A 
ATOM     12  C   UNL     1      49.614   3.994  17.994  0.00  0.00    +0.000 A 
ATOM     13  C   UNL     1      49.103   2.896  17.310  0.00  0.00    +0.000 A 
ATOM     14  C   UNL     1      47.741   2.849  17.066  0.00  0.00    +0.000 A 
ATOM     15  N   UNL     1      46.877   3.816  17.445  0.00  0.00    +0.000 NA
ATOM     16  C   UNL     1      47.401   4.871  18.105  0.00  0.00    +0.000 A 
ENDBRANCH  10  11
ENDBRANCH   9  10
ENDBRANCH   7   9
ENDBRANCH   1   7
BRANCH   4  17
ATOM     17  C   UNL     1      47.390   7.731  12.182  0.00  0.00    +0.000 C 
BRANCH  17  18
ATOM     18  N   UNL     1      46.788   6.423  11.939  0.00  0.00    +0.000 NA
ATOM     19  H   UNL     1      47.446   5.705  12.243  0.00  0.00    +0.000 HD
BRANCH  18  20
ATOM     20  C   UNL     1      45.541   6.260  12.689  0.00  0.00    +0.000 C 
BRANCH  20  21
ATOM     21  C   UNL     1      44.797   5.012  12.273  0.00  0.00    +0.000 A 
ATOM     22  C   UNL     1      44.596   4.708  10.932  0.00  0.00    +0.000 A 
ATOM     23  C   UNL     1      43.916   3.545  10.604  0.00  0.00    +0.000 A 
ATOM     24  C   UNL     1      43.470   2.744  11.636  0.00  0.00    +0.000 A 
ATOM     25  N   UNL     1      43.670   3.052  12.932  0.00  0.00    +0.000 NA
ATOM     26  N   UNL     1      44.341   4.197  13.254  0.00  0.00    +0.000 NA
ENDBRANCH  20  21
ENDBRANCH  18  20
ENDBRANCH  17  18
ENDBRANCH   4  17
TORSDOF 8
ENDMDL
MODEL 9
REMARK VINA RESULT:    -5.425      3.666      5.824
REMARK INTER + INTRA:          -8.982
REMARK INTER:                  -7.448
REMARK INTRA:                  -1.534
REMARK UNBOUND:                -1.019
REMARK  Name = 
REMARK  9 active torsions:
REMARK  status: ('A' for Active; 'I' for Inactive)
REMARK    1  A    between atoms: C_1  and  N_2
REMARK    2  A    between atoms: N_2  and  C_3
REMARK    3  A    between atoms: N_2  and  C_19
REMARK    4  A    between atoms: C_3  and  C_4
REMARK    5  A    between atoms: C_7  and  C_8
REMARK    6  A    between atoms: C_8  and  N_9
REMARK    7  A    between atoms: N_9  and  C_10
REMARK    8  A    between atoms: C_10  and  C_11
REMARK    9  A    between atoms: C_19  and  C_20
REMARK                            x       y       z     vdW  Elec       q    Type
REMARK                         _______ _______ _______ _____ _____    ______ ____
ROOT
ATOM      1  C   UNL     1      49.854   6.974  18.052  0.00  0.00    +0.000 A 
ATOM      2  C   UNL     1      50.991   6.621  17.308  0.00  0.00    +0.000 A 
ATOM      3  C   UNL     1      51.034   6.839  15.932  0.00  0.00    +0.000 A 
ATOM      4  C   UNL     1      49.929   7.378  15.260  0.00  0.00    +0.000 A 
ATOM      5  C   UNL     1      48.786   7.712  15.997  0.00  0.00    +0.000 A 
ATOM      6  C   UNL     1      48.752   7.519  17.382  0.00  0.00    +0.000 A 
ENDROOT
BRANCH   1   7
ATOM      7  C   UNL     1      49.850   6.808  19.557  0.00  0.00    +0.000 C 
BRANCH   7   9
ATOM      8  C   UNL     1      48.335   6.618  21.458  0.00  0.00    +0.000 C 
ATOM      9  N   UNL     1      48.635   6.157  20.094  0.00  0.00    +0.000 NA
BRANCH   9  10
ATOM     10  C   UNL     1      48.832   4.693  20.074  0.00  0.00    +0.000 C 
BRANCH  10  11
ATOM     11  C   UNL     1      48.524   4.044  18.747  0.00  0.00    +0.000 A 
ATOM     12  C   UNL     1      49.461   3.248  18.081  0.00  0.00    +0.000 A 
ATOM     13  C   UNL     1      49.127   2.661  16.865  0.00  0.00    +0.000 A 
ATOM     14  C   UNL     1      47.862   2.887  16.352  0.00  0.00    +0.000 A 
ATOM     15  N   UNL     1      46.932   3.655  16.959  0.00  0.00    +0.000 NA
ATOM     16  C   UNL     1      47.284   4.215  18.137  0.00  0.00    +0.000 A 
ENDBRANCH  10  11
ENDBRANCH   9  10
ENDBRANCH   7   9
ENDBRANCH   1   7
BRANCH   4  17
ATOM     17  C   UNL     1      49.986   7.598  13.766  0.00  0.00    +0.000 C 
BRANCH  17  18
ATOM     18  N   UNL     1      49.235   6.556  13.072  0.00  0.00    +0.000 NA
ATOM     19  H   UNL     1      48.935   5.864  13.760  0.00  0.00    +0.000 HD
BRANCH  18  20
ATOM     20  C   UNL     1      48.049   7.101  12.410  0.00  0.00    +0.000 C 
BRANCH  20  21
ATOM     21  C   UNL     1      46.813   6.286  12.714  0.00  0.00    +0.000 A 
ATOM     22  C   UNL     1      45.551   6.720  12.325  0.00  0.00    +0.000 A 
ATOM     23  C   UNL     1      44.451   5.928  12.620  0.00  0.00    +0.000 A 
ATOM     24  C   UNL     1      44.669   4.742  13.291  0.00  0.00    +0.000 A 
ATOM     25  N   UNL     1      45.898   4.335  13.663  0.00  0.00    +0.000 NA
ATOM     26  N   UNL     1      46.981   5.113  13.372  0.00  0.00    +0.000 NA
ENDBRANCH  20  21
ENDBRANCH  18  20
ENDBRANCH  17  18
ENDBRANCH   4  17
TORSDOF 8
ENDMDL
