MODEL 1
REMARK VINA RESULT:    -5.874      0.000      0.000
REMARK INTER + INTRA:          -7.863
REMARK INTER:                  -7.420
REMARK INTRA:                  -0.443
REMARK UNBOUND:                -0.443
REMARK  Name = 
REMARK  6 active torsions:
REMARK  status: ('A' for Active; 'I' for Inactive)
REMARK    1  A    between atoms: C_1  and  O_2
REMARK    2  A    between atoms: O_2  and  C_3
REMARK    3  A    between atoms: C_8  and  C_9
REMARK    4  A    between atoms: C_10  and  C_11
REMARK    5  A    between atoms: C_15  and  C_16
REMARK    6  A    between atoms: C_16  and  N_17
REMARK                            x       y       z     vdW  Elec       q    Type
REMARK                         _______ _______ _______ _____ _____    ______ ____
ROOT
ATOM      1  C   UNL     1      46.954   4.118  15.197  0.00  0.00    +0.000 C 
ATOM      2  C   UNL     1      47.055   5.129  14.316  0.00  0.00    +0.000 C 
ENDROOT
BRANCH   1   8
ATOM      3  C   UNL     1      47.969   5.011  18.751  0.00  0.00    +0.000 A 
ATOM      4  C   UNL     1      48.826   3.952  19.053  0.00  0.00    +0.000 A 
ATOM      5  C   UNL     1      49.062   2.957  18.103  0.00  0.00    +0.000 A 
ATOM      6  C   UNL     1      48.452   3.029  16.853  0.00  0.00    +0.000 A 
ATOM      7  F   UNL     1      48.699   2.050  15.969  0.00  0.00    +0.000 F 
ATOM      8  C   UNL     1      47.605   4.091  16.515  0.00  0.00    +0.000 A 
ATOM      9  C   UNL     1      47.361   5.069  17.490  0.00  0.00    +0.000 A 
BRANCH   3  11
ATOM     10  C   UNL     1      47.653   7.350  19.027  0.00  0.00    +0.000 C 
ATOM     11  O   UNL     1      47.639   6.043  19.585  0.00  0.00    +0.000 OA
ENDBRANCH   3  11
ENDBRANCH   1   8
BRANCH   2  12
ATOM     12  C   UNL     1      46.388   5.139  13.005  0.00  0.00    +0.000 A 
ATOM     13  C   UNL     1      46.671   6.145  12.086  0.00  0.00    +0.000 A 
ATOM     14  C   UNL     1      46.025   6.126  10.854  0.00  0.00    +0.000 A 
ATOM     15  C   UNL     1      45.125   5.104  10.573  0.00  0.00    +0.000 A 
ATOM     16  C   UNL     1      44.892   4.130  11.539  0.00  0.00    +0.000 A 
ATOM     17  N   UNL     1      45.508   4.145  12.748  0.00  0.00    +0.000 NA
BRANCH  16  18
ATOM     18  C   UNL     1      43.947   2.981  11.266  0.00  0.00    +0.000 C 
BRANCH  18  19
ATOM     19  N   UNL     1      43.548   2.259  12.479  0.00  0.00    +0.000 NA
ATOM     20  H   UNL     1      43.131   1.374  12.188  0.00  0.00    +0.000 HD
ATOM     21  H   UNL     1      42.800   2.782  12.931  0.00  0.00    +0.000 HD
ENDBRANCH  18  19
ENDBRANCH  16  18
ENDBRANCH   2  12
TORSDOF 5
ENDMDL
MODEL 2
REMARK VINA RESULT:    -5.864      3.780      7.491
REMARK INTER + INTRA:          -7.850
REMARK INTER:                  -7.451
REMARK INTRA:                  -0.400
REMARK UNBOUND:                -0.443
REMARK  Name = 
REMARK  6 active torsions:
REMARK  status: ('A' for Active; 'I' for Inactive)
REMARK    1  A    between atoms: C_1  and  O_2
REMARK    2  A    between atoms: O_2  and  C_3
REMARK    3  A    between atoms: C_8  and  C_9
REMARK    4  A    between atoms: C_10  and  C_11
REMARK    5  A    between atoms: C_15  and  C_16
REMARK    6  A    between atoms: C_16  and  N_17
REMARK                            x       y       z     vdW  Elec       q    Type
REMARK                         _______ _______ _______ _____ _____    ______ ____
ROOT
ATOM      1  C   UNL     1      46.254   4.659  14.186  0.00  0.00    +0.000 C 
ATOM      2  C   UNL     1      46.916   3.572  14.620  0.00  0.00    +0.000 C 
ENDROOT
BRANCH   1   8
ATOM      3  C   UNL     1      44.401   3.667  11.017  0.00  0.00    +0.000 A 
ATOM      4  C   UNL     1      43.982   4.916  10.556  0.00  0.00    +0.000 A 
ATOM      5  C   UNL     1      44.302   6.065  11.281  0.00  0.00    +0.000 A 
ATOM      6  C   UNL     1      45.045   5.966  12.453  0.00  0.00    +0.000 A 
ATOM      7  F   UNL     1      45.327   7.094  13.124  0.00  0.00    +0.000 F 
ATOM      8  C   UNL     1      45.496   4.729  12.927  0.00  0.00    +0.000 A 
ATOM      9  C   UNL     1      45.147   3.582  12.200  0.00  0.00    +0.000 A 
BRANCH   3  11
ATOM     10  C   UNL     1      44.682   2.270   9.116  0.00  0.00    +0.000 C 
ATOM     11  O   UNL     1      44.151   2.463  10.420  0.00  0.00    +0.000 OA
ENDBRANCH   3  11
ENDBRANCH   1   8
BRANCH   2  12
ATOM     12  C   UNL     1      47.660   3.521  15.888  0.00  0.00    +0.000 A 
ATOM     13  C   UNL     1      47.237   4.276  16.976  0.00  0.00    +0.000 A 
ATOM     14  C   UNL     1      47.960   4.204  18.162  0.00  0.00    +0.000 A 
ATOM     15  C   UNL     1      49.078   3.379  18.229  0.00  0.00    +0.000 A 
ATOM     16  C   UNL     1      49.442   2.652  17.100  0.00  0.00    +0.000 A 
ATOM     17  N   UNL     1      48.750   2.721  15.936  0.00  0.00    +0.000 NA
BRANCH  16  18
ATOM     18  C   UNL     1      50.631   1.716  17.134  0.00  0.00    +0.000 C 
BRANCH  18  19
ATOM     19  N   UNL     1      51.659   2.121  18.099  0.00  0.00    +0.000 NA
ATOM     20  H   UNL     1      51.498   1.598  18.960  0.00  0.00    +0.000 HD
ATOM     21  H   UNL     1      51.505   3.099  18.337  0.00  0.00    +0.000 HD
ENDBRANCH  18  19
ENDBRANCH  16  18
ENDBRANCH   2  12
TORSDOF 5
ENDMDL
MODEL 3
REMARK VINA RESULT:    -5.855      3.619      7.220
REMARK INTER + INTRA:          -7.839
REMARK INTER:                  -7.433
REMARK INTRA:                  -0.406
REMARK UNBOUND:                -0.443
REMARK  Name = 
REMARK  6 active torsions:
REMARK  status: ('A' for Active; 'I' for Inactive)
REMARK    1  A    between atoms: C_1  and  O_2
REMARK    2  A    between atoms: O_2  and  C_3
REMARK    3  A    between atoms: C_8  and  C_9
REMARK    4  A    between atoms: C_10  and  C_11
REMARK    5  A    between atoms: C_15  and  C_16
REMARK    6  A    between atoms: C_16  and  N_17
REMARK                            x       y       z     vdW  Elec       q    Type
REMARK                         _______ _______ _______ _____ _____    ______ ____
ROOT
ATOM      1  C   UNL     1      45.968   4.867  13.554  0.00  0.00    +0.000 C 
ATOM      2  C   UNL     1      47.124   5.531  13.726  0.00  0.00    +0.000 C 
ENDROOT
BRANCH   1   8
ATOM      3  C   UNL     1      45.083   4.904   9.856  0.00  0.00    +0.000 A 
ATOM      4  C   UNL     1      43.709   4.665   9.912  0.00  0.00    +0.000 A 
ATOM      5  C   UNL     1      43.086   4.490  11.149  0.00  0.00    +0.000 A 
ATOM      6  C   UNL     1      43.832   4.565  12.322  0.00  0.00    +0.000 A 
ATOM      7  F   UNL     1      43.196   4.385  13.491  0.00  0.00    +0.000 F 
ATOM      8  C   UNL     1      45.207   4.825  12.296  0.00  0.00    +0.000 A 
ATOM      9  C   UNL     1      45.821   4.975  11.045  0.00  0.00    +0.000 A 
BRANCH   3  11
ATOM     10  C   UNL     1      45.927   3.970   7.841  0.00  0.00    +0.000 C 
ATOM     11  O   UNL     1      45.824   5.081   8.721  0.00  0.00    +0.000 OA
ENDBRANCH   3  11
ENDBRANCH   1   8
BRANCH   2  12
ATOM     12  C   UNL     1      47.874   5.553  14.991  0.00  0.00    +0.000 A 
ATOM     13  C   UNL     1      48.725   6.614  15.279  0.00  0.00    +0.000 A 
ATOM     14  C   UNL     1      49.419   6.607  16.485  0.00  0.00    +0.000 A 
ATOM     15  C   UNL     1      49.239   5.548  17.368  0.00  0.00    +0.000 A 
ATOM     16  C   UNL     1      48.370   4.520  17.013  0.00  0.00    +0.000 A 
ATOM     17  N   UNL     1      47.696   4.512  15.836  0.00  0.00    +0.000 NA
BRANCH  16  18
ATOM     18  C   UNL     1      48.116   3.364  17.955  0.00  0.00    +0.000 C 
BRANCH  18  19
ATOM     19  N   UNL     1      46.784   2.770  17.797  0.00  0.00    +0.000 NA
ATOM     20  H   UNL     1      46.905   1.760  17.706  0.00  0.00    +0.000 HD
ATOM     21  H   UNL     1      46.399   3.082  16.908  0.00  0.00    +0.000 HD
ENDBRANCH  18  19
ENDBRANCH  16  18
ENDBRANCH   2  12
TORSDOF 5
ENDMDL
MODEL 4
REMARK VINA RESULT:    -5.808      3.700      7.469
REMARK INTER + INTRA:          -7.780
REMARK INTER:                  -7.356
REMARK INTRA:                  -0.424
REMARK UNBOUND:                -0.443
REMARK  Name = 
REMARK  6 active torsions:
REMARK  status: ('A' for Active; 'I' for Inactive)
REMARK    1  A    between atoms: C_1  and  O_2
REMARK    2  A    between atoms: O_2  and  C_3
REMARK    3  A    between atoms: C_8  and  C_9
REMARK    4  A    between atoms: C_10  and  C_11
REMARK    5  A    between atoms: C_15  and  C_16
REMARK    6  A    between atoms: C_16  and  N_17
REMARK                            x       y       z     vdW  Elec       q    Type
REMARK                         _______ _______ _______ _____ _____    ______ ____
ROOT
ATOM      1  C   UNL     1      46.599   4.934  13.656  0.00  0.00    +0.000 C 
ATOM      2  C   UNL     1      46.546   4.275  14.826  0.00  0.00    +0.000 C 
ENDROOT
BRANCH   1   8
ATOM      3  C   UNL     1      44.108   3.801  11.015  0.00  0.00    +0.000 A 
ATOM      4  C   UNL     1      43.414   4.989  10.783  0.00  0.00    +0.000 A 
ATOM      5  C   UNL     1      43.758   6.143  11.488  0.00  0.00    +0.000 A 
ATOM      6  C   UNL     1      44.799   6.111  12.412  0.00  0.00    +0.000 A 
ATOM      7  F   UNL     1      45.095   7.240  13.074  0.00  0.00    +0.000 F 
ATOM      8  C   UNL     1      45.526   4.939  12.650  0.00  0.00    +0.000 A 
ATOM      9  C   UNL     1      45.152   3.783  11.950  0.00  0.00    +0.000 A 
BRANCH   3  11
ATOM     10  C   UNL     1      44.616   2.315   9.232  0.00  0.00    +0.000 C 
ATOM     11  O   UNL     1      43.872   2.598  10.410  0.00  0.00    +0.000 OA
ENDBRANCH   3  11
ENDBRANCH   1   8
BRANCH   2  12
ATOM     12  C   UNL     1      47.628   4.291  15.823  0.00  0.00    +0.000 A 
ATOM     13  C   UNL     1      47.757   3.244  16.729  0.00  0.00    +0.000 A 
ATOM     14  C   UNL     1      48.792   3.287  17.657  0.00  0.00    +0.000 A 
ATOM     15  C   UNL     1      49.668   4.367  17.651  0.00  0.00    +0.000 A 
ATOM     16  C   UNL     1      49.478   5.379  16.714  0.00  0.00    +0.000 A 
ATOM     17  N   UNL     1      48.467   5.352  15.811  0.00  0.00    +0.000 NA
BRANCH  16  18
ATOM     18  C   UNL     1      50.426   6.557  16.647  0.00  0.00    +0.000 C 
BRANCH  18  19
ATOM     19  N   UNL     1      50.821   6.904  15.277  0.00  0.00    +0.000 NA
ATOM     20  H   UNL     1      51.709   6.439  15.085  0.00  0.00    +0.000 HD
ATOM     21  H   UNL     1      51.019   7.902  15.245  0.00  0.00    +0.000 HD
ENDBRANCH  18  19
ENDBRANCH  16  18
ENDBRANCH   2  12
TORSDOF 5
ENDMDL
MODEL 5
REMARK VINA RESULT:    -5.699      2.092      2.845
REMARK INTER + INTRA:          -7.641
REMARK INTER:                  -7.202
REMARK INTRA:                  -0.439
REMARK UNBOUND:                -0.443
REMARK  Name = 
REMARK  6 active torsions:
REMARK  status: ('A' for Active; 'I' for Inactive)
REMARK    1  A    between atoms: C_1  and  O_2
REMARK    2  A    between atoms: O_2  and  C_3
REMARK    3  A    between atoms: C_8  and  C_9
REMARK    4  A    between atoms: C_10  and  C_11
REMARK    5  A    between atoms: C_15  and  C_16
REMARK    6  A    between atoms: C_16  and  N_17
REMARK                            x       y       z     vdW  Elec       q    Type
REMARK                         _______ _______ _______ _____ _____    ______ ____
ROOT
ATOM      1  C   UNL     1      46.961   4.274  15.441  0.00  0.00    +0.000 C 
ATOM      2  C   UNL     1      47.121   4.964  14.297  0.00  0.00    +0.000 C 
ENDROOT
BRANCH   1   8
ATOM      3  C   UNL     1      49.802   2.504  17.244  0.00  0.00    +0.000 A 
ATOM      4  C   UNL     1      50.151   3.466  18.193  0.00  0.00    +0.000 A 
ATOM      5  C   UNL     1      49.463   4.680  18.234  0.00  0.00    +0.000 A 
ATOM      6  C   UNL     1      48.426   4.924  17.339  0.00  0.00    +0.000 A 
ATOM      7  F   UNL     1      47.794   6.107  17.407  0.00  0.00    +0.000 F 
ATOM      8  C   UNL     1      48.041   3.969  16.391  0.00  0.00    +0.000 A 
ATOM      9  C   UNL     1      48.757   2.764  16.348  0.00  0.00    +0.000 A 
BRANCH   3  11
ATOM     10  C   UNL     1      51.770   1.184  17.422  0.00  0.00    +0.000 C 
ATOM     11  O   UNL     1      50.394   1.282  17.081  0.00  0.00    +0.000 OA
ENDBRANCH   3  11
ENDBRANCH   1   8
BRANCH   2  12
ATOM     12  C   UNL     1      46.025   5.265  13.365  0.00  0.00    +0.000 A 
ATOM     13  C   UNL     1      45.894   6.544  12.832  0.00  0.00    +0.000 A 
ATOM     14  C   UNL     1      44.848   6.797  11.951  0.00  0.00    +0.000 A 
ATOM     15  C   UNL     1      43.969   5.770  11.624  0.00  0.00    +0.000 A 
ATOM     16  C   UNL     1      44.162   4.516  12.194  0.00  0.00    +0.000 A 
ATOM     17  N   UNL     1      45.173   4.260  13.062  0.00  0.00    +0.000 NA
BRANCH  16  18
ATOM     18  C   UNL     1      43.252   3.359  11.842  0.00  0.00    +0.000 C 
BRANCH  18  19
ATOM     19  N   UNL     1      43.623   2.107  12.511  0.00  0.00    +0.000 NA
ATOM     20  H   UNL     1      43.525   1.353  11.830  0.00  0.00    +0.000 HD
ATOM     21  H   UNL     1      42.934   1.916  13.236  0.00  0.00    +0.000 HD
ENDBRANCH  18  19
ENDBRANCH  16  18
ENDBRANCH   2  12
TORSDOF 5
ENDMDL
MODEL 6
REMARK VINA RESULT:    -5.646      1.421      1.436
REMARK INTER + INTRA:          -7.575
REMARK INTER:                  -7.191
REMARK INTRA:                  -0.384
REMARK UNBOUND:                -0.443
REMARK  Name = 
REMARK  6 active torsions:
REMARK  status: ('A' for Active; 'I' for Inactive)
REMARK    1  A    between atoms: C_1  and  O_2
REMARK    2  A    between atoms: O_2  and  C_3
REMARK    3  A    between atoms: C_8  and  C_9
REMARK    4  A    between atoms: C_10  and  C_11
REMARK    5  A    between atoms: C_15  and  C_16
REMARK    6  A    between atoms: C_16  and  N_17
REMARK                            x       y       z     vdW  Elec       q    Type
REMARK                         _______ _______ _______ _____ _____    ______ ____
ROOT
ATOM      1  C   UNL     1      47.057   4.365  15.552  0.00  0.00    +0.000 C 
ATOM      2  C   UNL     1      47.239   5.094  14.437  0.00  0.00    +0.000 C 
ENDROOT
BRANCH   1   8
ATOM      3  C   UNL     1      49.644   5.507  18.094  0.00  0.00    +0.000 A 
ATOM      4  C   UNL     1      49.509   4.518  19.068  0.00  0.00    +0.000 A 
ATOM      5  C   UNL     1      48.578   3.493  18.892  0.00  0.00    +0.000 A 
ATOM      6  C   UNL     1      47.794   3.454  17.742  0.00  0.00    +0.000 A 
ATOM      7  F   UNL     1      46.906   2.456  17.613  0.00  0.00    +0.000 F 
ATOM      8  C   UNL     1      47.923   4.421  16.739  0.00  0.00    +0.000 A 
ATOM      9  C   UNL     1      48.847   5.456  16.942  0.00  0.00    +0.000 A 
BRANCH   3  11
ATOM     10  C   UNL     1      50.363   7.462  19.237  0.00  0.00    +0.000 C 
ATOM     11  O   UNL     1      50.502   6.571  18.139  0.00  0.00    +0.000 OA
ENDBRANCH   3  11
ENDBRANCH   1   8
BRANCH   2  12
ATOM     12  C   UNL     1      46.356   5.029  13.264  0.00  0.00    +0.000 A 
ATOM     13  C   UNL     1      46.534   5.914  12.206  0.00  0.00    +0.000 A 
ATOM     14  C   UNL     1      45.683   5.826  11.109  0.00  0.00    +0.000 A 
ATOM     15  C   UNL     1      44.686   4.856  11.097  0.00  0.00    +0.000 A 
ATOM     16  C   UNL     1      44.567   4.003  12.191  0.00  0.00    +0.000 A 
ATOM     17  N   UNL     1      45.385   4.087  13.269  0.00  0.00    +0.000 NA
BRANCH  16  18
ATOM     18  C   UNL     1      43.520   2.911  12.208  0.00  0.00    +0.000 C 
BRANCH  18  19
ATOM     19  N   UNL     1      43.497   2.112  10.978  0.00  0.00    +0.000 NA
ATOM     20  H   UNL     1      43.789   1.164  11.221  0.00  0.00    +0.000 HD
ATOM     21  H   UNL     1      44.215   2.470  10.351  0.00  0.00    +0.000 HD
ENDBRANCH  18  19
ENDBRANCH  16  18
ENDBRANCH   2  12
TORSDOF 5
ENDMDL
MODEL 7
REMARK VINA RESULT:    -5.537      5.793      8.269
REMARK INTER + INTRA:          -7.436
REMARK INTER:                  -7.065
REMARK INTRA:                  -0.371
REMARK UNBOUND:                -0.443
REMARK  Name = 
REMARK  6 active torsions:
REMARK  status: ('A' for Active; 'I' for Inactive)
REMARK    1  A    between atoms: C_1  and  O_2
REMARK    2  A    between atoms: O_2  and  C_3
REMARK    3  A    between atoms: C_8  and  C_9
REMARK    4  A    between atoms: C_10  and  C_11
REMARK    5  A    between atoms: C_15  and  C_16
REMARK    6  A    between atoms: C_16  and  N_17
REMARK                            x       y       z     vdW  Elec       q    Type
REMARK                         _______ _______ _______ _____ _____    ______ ____
ROOT
ATOM      1  C   UNL     1      45.345   5.375   9.691  0.00  0.00    +0.000 C 
ATOM      2  C   UNL     1      45.698   5.688  10.950  0.00  0.00    +0.000 C 
ENDROOT
BRANCH   1   8
ATOM      3  C   UNL     1      46.512   2.463   7.543  0.00  0.00    +0.000 A 
ATOM      4  C   UNL     1      45.715   1.432   8.042  0.00  0.00    +0.000 A 
ATOM      5  C   UNL     1      44.810   1.692   9.072  0.00  0.00    +0.000 A 
ATOM      6  C   UNL     1      44.697   2.979   9.592  0.00  0.00    +0.000 A 
ATOM      7  F   UNL     1      43.820   3.187  10.587  0.00  0.00    +0.000 F 
ATOM      8  C   UNL     1      45.469   4.035   9.096  0.00  0.00    +0.000 A 
ATOM      9  C   UNL     1      46.389   3.752   8.077  0.00  0.00    +0.000 A 
BRANCH   3  11
ATOM     10  C   UNL     1      47.004   2.608   5.222  0.00  0.00    +0.000 C 
ATOM     11  O   UNL     1      47.445   2.350   6.549  0.00  0.00    +0.000 OA
ENDBRANCH   3  11
ENDBRANCH   1   8
BRANCH   2  12
ATOM     12  C   UNL     1      45.557   7.033  11.528  0.00  0.00    +0.000 A 
ATOM     13  C   UNL     1      46.407   7.446  12.548  0.00  0.00    +0.000 A 
ATOM     14  C   UNL     1      46.250   8.725  13.072  0.00  0.00    +0.000 A 
ATOM     15  C   UNL     1      45.257   9.554  12.561  0.00  0.00    +0.000 A 
ATOM     16  C   UNL     1      44.444   9.073  11.538  0.00  0.00    +0.000 A 
ATOM     17  N   UNL     1      44.582   7.825  11.026  0.00  0.00    +0.000 NA
BRANCH  16  18
ATOM     18  C   UNL     1      43.373   9.950  10.927  0.00  0.00    +0.000 C 
BRANCH  18  19
ATOM     19  N   UNL     1      42.738  10.849  11.896  0.00  0.00    +0.000 NA
ATOM     20  H   UNL     1      43.269  11.721  11.902  0.00  0.00    +0.000 HD
ATOM     21  H   UNL     1      42.853  10.449  12.825  0.00  0.00    +0.000 HD
ENDBRANCH  18  19
ENDBRANCH  16  18
ENDBRANCH   2  12
TORSDOF 5
ENDMDL
MODEL 8
REMARK VINA RESULT:    -5.301      3.318      6.841
REMARK INTER + INTRA:          -7.139
REMARK INTER:                  -6.708
REMARK INTRA:                  -0.431
REMARK UNBOUND:                -0.443
REMARK  Name = 
REMARK  6 active torsions:
REMARK  status: ('A' for Active; 'I' for Inactive)
REMARK    1  A    between atoms: C_1  and  O_2
REMARK    2  A    between atoms: O_2  and  C_3
REMARK    3  A    between atoms: C_8  and  C_9
REMARK    4  A    between atoms: C_10  and  C_11
REMARK    5  A    between atoms: C_15  and  C_16
REMARK    6  A    between atoms: C_16  and  N_17
REMARK                            x       y       z     vdW  Elec       q    Type
REMARK                         _______ _______ _______ _____ _____    ______ ____
ROOT
ATOM      1  C   UNL     1      46.964   4.309  14.222  0.00  0.00    +0.000 C 
ATOM      2  C   UNL     1      46.793   4.649  15.511  0.00  0.00    +0.000 C 
ENDROOT
BRANCH   1   8
ATOM      3  C   UNL     1      45.015   6.432  11.742  0.00  0.00    +0.000 A 
ATOM      4  C   UNL     1      44.414   5.441  10.963  0.00  0.00    +0.000 A 
ATOM      5  C   UNL     1      44.652   4.096  11.249  0.00  0.00    +0.000 A 
ATOM      6  C   UNL     1      45.477   3.745  12.314  0.00  0.00    +0.000 A 
ATOM      7  F   UNL     1      45.685   2.440  12.552  0.00  0.00    +0.000 F 
ATOM      8  C   UNL     1      46.075   4.717  13.124  0.00  0.00    +0.000 A 
ATOM      9  C   UNL     1      45.844   6.063  12.809  0.00  0.00    +0.000 A 
BRANCH   3  11
ATOM     10  C   UNL     1      45.527   8.617  12.523  0.00  0.00    +0.000 C 
ATOM     11  O   UNL     1      44.882   7.782  11.570  0.00  0.00    +0.000 OA
ENDBRANCH   3  11
ENDBRANCH   1   8
BRANCH   2  12
ATOM     12  C   UNL     1      47.700   4.237  16.593  0.00  0.00    +0.000 A 
ATOM     13  C   UNL     1      47.575   4.798  17.859  0.00  0.00    +0.000 A 
ATOM     14  C   UNL     1      48.447   4.386  18.862  0.00  0.00    +0.000 A 
ATOM     15  C   UNL     1      49.411   3.426  18.575  0.00  0.00    +0.000 A 
ATOM     16  C   UNL     1      49.476   2.907  17.285  0.00  0.00    +0.000 A 
ATOM     17  N   UNL     1      48.637   3.309  16.297  0.00  0.00    +0.000 NA
BRANCH  16  18
ATOM     18  C   UNL     1      50.485   1.836  16.933  0.00  0.00    +0.000 C 
BRANCH  18  19
ATOM     19  N   UNL     1      51.497   1.629  17.975  0.00  0.00    +0.000 NA
ATOM     20  H   UNL     1      51.848   2.548  18.249  0.00  0.00    +0.000 HD
ATOM     21  H   UNL     1      52.289   1.144  17.558  0.00  0.00    +0.000 HD
ENDBRANCH  18  19
ENDBRANCH  16  18
ENDBRANCH   2  12
TORSDOF 5
ENDMDL
MODEL 9
REMARK VINA RESULT:    -5.254      5.076      7.352
REMARK INTER + INTRA:          -7.079
REMARK INTER:                  -6.651
REMARK INTRA:                  -0.428
REMARK UNBOUND:                -0.443
REMARK  Name = 
REMARK  6 active torsions:
REMARK  status: ('A' for Active; 'I' for Inactive)
REMARK    1  A    between atoms: C_1  and  O_2
REMARK    2  A    between atoms: O_2  and  C_3
REMARK    3  A    between atoms: C_8  and  C_9
REMARK    4  A    between atoms: C_10  and  C_11
REMARK    5  A    between atoms: C_15  and  C_16
REMARK    6  A    between atoms: C_16  and  N_17
REMARK                            x       y       z     vdW  Elec       q    Type
REMARK                         _______ _______ _______ _____ _____    ______ ____
ROOT
ATOM      1  C   UNL     1      46.416   6.673  12.245  0.00  0.00    +0.000 C 
ATOM      2  C   UNL     1      47.658   6.968  11.824  0.00  0.00    +0.000 C 
ENDROOT
BRANCH   1   8
ATOM      3  C   UNL     1      44.551   4.193  10.049  0.00  0.00    +0.000 A 
ATOM      4  C   UNL     1      44.203   3.220  10.987  0.00  0.00    +0.000 A 
ATOM      5  C   UNL     1      44.581   3.378  12.322  0.00  0.00    +0.000 A 
ATOM      6  C   UNL     1      45.293   4.508  12.715  0.00  0.00    +0.000 A 
ATOM      7  F   UNL     1      45.643   4.619  14.006  0.00  0.00    +0.000 F 
ATOM      8  C   UNL     1      45.636   5.508  11.799  0.00  0.00    +0.000 A 
ATOM      9  C   UNL     1      45.269   5.323  10.459  0.00  0.00    +0.000 A 
BRANCH   3  11
ATOM     10  C   UNL     1      45.217   3.552   7.860  0.00  0.00    +0.000 C 
ATOM     11  O   UNL     1      44.259   4.163   8.713  0.00  0.00    +0.000 OA
ENDBRANCH   3  11
ENDBRANCH   1   8
BRANCH   2  12
ATOM     12  C   UNL     1      48.423   8.134  12.290  0.00  0.00    +0.000 A 
ATOM     13  C   UNL     1      49.229   8.840  11.403  0.00  0.00    +0.000 A 
ATOM     14  C   UNL     1      49.939   9.940  11.874  0.00  0.00    +0.000 A 
ATOM     15  C   UNL     1      49.820  10.306  13.210  0.00  0.00    +0.000 A 
ATOM     16  C   UNL     1      48.993   9.555  14.040  0.00  0.00    +0.000 A 
ATOM     17  N   UNL     1      48.304   8.475  13.594  0.00  0.00    +0.000 NA
BRANCH  16  18
ATOM     18  C   UNL     1      48.805   9.935  15.492  0.00  0.00    +0.000 C 
BRANCH  18  19
ATOM     19  N   UNL     1      47.693   9.227  16.136  0.00  0.00    +0.000 NA
ATOM     20  H   UNL     1      47.772   9.379  17.143  0.00  0.00    +0.000 HD
ATOM     21  H   UNL     1      47.828   8.227  15.997  0.00  0.00    +0.000 HD
ENDBRANCH  18  19
ENDBRANCH  16  18
ENDBRANCH   2  12
TORSDOF 5
ENDMDL
