MODEL 1
REMARK VINA RESULT:    -7.500      0.000      0.000
REMARK INTER + INTRA:         -11.663
REMARK INTER:                 -10.788
REMARK INTRA:                  -0.874
REMARK UNBOUND:                -0.874
REMARK  Name = 
REMARK  8 active torsions:
REMARK  status: ('A' for Active; 'I' for Inactive)
REMARK    1  A    between atoms: N_1  and  C_2
REMARK    2  A    between atoms: C_2  and  C_3
REMARK    3  A    between atoms: C_2  and  C_10
REMARK    4  A    between atoms: C_3  and  C_4
REMARK    5  A    between atoms: C_13  and  C_14
REMARK    6  A    between atoms: C_14  and  N_15
REMARK    7  A    between atoms: N_15  and  C_16
REMARK    8  A    between atoms: C_16  and  C_17
REMARK                            x       y       z     vdW  Elec       q    Type
REMARK                         _______ _______ _______ _____ _____    ______ ____
ROOT
ATOM      1  C   UNL     1      45.150   4.465  11.578  0.00  0.00    +0.000 A 
ATOM      2  C   UNL     1      45.652   5.646  11.000  0.00  0.00    +0.000 A 
ATOM      3  C   UNL     1      46.492   6.505  11.707  0.00  0.00    +0.000 A 
ATOM      4  C   UNL     1      46.826   6.237  13.036  0.00  0.00    +0.000 A 
ATOM      5  C   UNL     1      46.273   5.108  13.650  0.00  0.00    +0.000 A 
ATOM      6  C   UNL     1      45.444   4.235  12.931  0.00  0.00    +0.000 A 
ENDROOT
BRANCH   1   7
ATOM      7  C   UNL     1      44.281   3.530  10.736  0.00  0.00    +0.000 C 
BRANCH   7   8
ATOM      8  N   UNL     1      42.877   3.604  11.190  0.00  0.00    +0.000 NA
ATOM      9  H   UNL     1      42.355   2.783  10.889  0.00  0.00    +0.000 HD
ATOM     10  H   UNL     1      42.432   4.414  10.761  0.00  0.00    +0.000 HD
ENDBRANCH   7   8
BRANCH   7  11
ATOM     11  C   UNL     1      44.347   3.788   9.203  0.00  0.00    +0.000 C 
BRANCH  11  12
ATOM     12  C   UNL     1      45.386   2.978   8.483  0.00  0.00    +0.000 A 
ATOM     13  C   UNL     1      45.545   1.620   8.680  0.00  0.00    +0.000 A 
ATOM     14  N   UNL     1      46.464   0.872   8.044  0.00  0.00    +0.000 NA
ATOM     15  C   UNL     1      47.242   1.524   7.165  0.00  0.00    +0.000 A 
ATOM     16  N   UNL     1      47.181   2.833   6.884  0.00  0.00    +0.000 NA
ATOM     17  C   UNL     1      46.247   3.531   7.549  0.00  0.00    +0.000 A 
ENDBRANCH  11  12
ENDBRANCH   7  11
ENDBRANCH   1   7
BRANCH   4  18
ATOM     18  C   UNL     1      47.777   7.142  13.779  0.00  0.00    +0.000 C 
BRANCH  18  19
ATOM     19  N   UNL     1      48.837   6.370  14.414  0.00  0.00    +0.000 NA
ATOM     20  H   UNL     1      49.736   6.673  14.039  0.00  0.00    +0.000 HD
BRANCH  19  21
ATOM     21  C   UNL     1      48.851   6.573  15.866  0.00  0.00    +0.000 C 
BRANCH  21  22
ATOM     22  C   UNL     1      48.729   5.256  16.606  0.00  0.00    +0.000 A 
ATOM     23  C   UNL     1      47.472   4.687  16.815  0.00  0.00    +0.000 A 
ATOM     24  C   UNL     1      47.387   3.453  17.450  0.00  0.00    +0.000 A 
ATOM     25  C   UNL     1      48.553   2.823  17.866  0.00  0.00    +0.000 A 
ATOM     26  C   UNL     1      49.761   3.457  17.627  0.00  0.00    +0.000 A 
ATOM     27  N   UNL     1      49.877   4.652  17.008  0.00  0.00    +0.000 NA
ENDBRANCH  21  22
ENDBRANCH  19  21
ENDBRANCH  18  19
ENDBRANCH   4  18
TORSDOF 8
ENDMDL
MODEL 2
REMARK VINA RESULT:    -7.274      0.910      1.446
REMARK INTER + INTRA:         -11.337
REMARK INTER:                 -10.435
REMARK INTRA:                  -0.902
REMARK UNBOUND:                -0.874
REMARK  Name = 
REMARK  8 active torsions:
REMARK  status: ('A' for Active; 'I' for Inactive)
REMARK    1  A    between atoms: N_1  and  C_2
REMARK    2  A    between atoms: C_2  and  C_3
REMARK    3  A    between atoms: C_2  and  C_10
REMARK    4  A    between atoms: C_3  and  C_4
REMARK    5  A    between atoms: C_13  and  C_14
REMARK    6  A    between atoms: C_14  and  N_15
REMARK    7  A    between atoms: N_15  and  C_16
REMARK    8  A    between atoms: C_16  and  C_17
REMARK                            x       y       z     vdW  Elec       q    Type
REMARK                         _______ _______ _______ _____ _____    ______ ____
ROOT
ATOM      1  C   UNL     1      45.243   4.281  11.753  0.00  0.00    +0.000 A 
ATOM      2  C   UNL     1      45.814   3.581  12.833  0.00  0.00    +0.000 A 
ATOM      3  C   UNL     1      46.709   4.194  13.708  0.00  0.00    +0.000 A 
ATOM      4  C   UNL     1      47.101   5.519  13.510  0.00  0.00    +0.000 A 
ATOM      5  C   UNL     1      46.603   6.205  12.396  0.00  0.00    +0.000 A 
ATOM      6  C   UNL     1      45.688   5.592  11.528  0.00  0.00    +0.000 A 
ENDROOT
BRANCH   1   7
ATOM      7  C   UNL     1      44.221   3.575  10.861  0.00  0.00    +0.000 C 
BRANCH   7   8
ATOM      8  N   UNL     1      42.852   3.885  11.322  0.00  0.00    +0.000 NA
ATOM      9  H   UNL     1      42.179   3.769  10.567  0.00  0.00    +0.000 HD
ATOM     10  H   UNL     1      42.812   4.862  11.609  0.00  0.00    +0.000 HD
ENDBRANCH   7   8
BRANCH   7  11
ATOM     11  C   UNL     1      44.346   3.903   9.345  0.00  0.00    +0.000 C 
BRANCH  11  12
ATOM     12  C   UNL     1      45.342   3.054   8.608  0.00  0.00    +0.000 A 
ATOM     13  C   UNL     1      45.451   1.690   8.804  0.00  0.00    +0.000 A 
ATOM     14  N   UNL     1      46.330   0.908   8.153  0.00  0.00    +0.000 NA
ATOM     15  C   UNL     1      47.118   1.530   7.260  0.00  0.00    +0.000 A 
ATOM     16  N   UNL     1      47.102   2.840   6.979  0.00  0.00    +0.000 NA
ATOM     17  C   UNL     1      46.207   3.574   7.660  0.00  0.00    +0.000 A 
ENDBRANCH  11  12
ENDBRANCH   7  11
ENDBRANCH   1   7
BRANCH   4  18
ATOM     18  C   UNL     1      48.029   6.193  14.490  0.00  0.00    +0.000 C 
BRANCH  18  19
ATOM     19  N   UNL     1      47.720   5.792  15.856  0.00  0.00    +0.000 NA
ATOM     20  H   UNL     1      47.405   4.821  15.852  0.00  0.00    +0.000 HD
BRANCH  19  21
ATOM     21  C   UNL     1      48.898   5.890  16.723  0.00  0.00    +0.000 C 
BRANCH  21  22
ATOM     22  C   UNL     1      49.498   4.524  16.991  0.00  0.00    +0.000 A 
ATOM     23  C   UNL     1      48.718   3.377  16.836  0.00  0.00    +0.000 A 
ATOM     24  C   UNL     1      49.303   2.131  17.036  0.00  0.00    +0.000 A 
ATOM     25  C   UNL     1      50.644   2.061  17.392  0.00  0.00    +0.000 A 
ATOM     26  C   UNL     1      51.347   3.247  17.532  0.00  0.00    +0.000 A 
ATOM     27  N   UNL     1      50.808   4.471  17.339  0.00  0.00    +0.000 NA
ENDBRANCH  21  22
ENDBRANCH  19  21
ENDBRANCH  18  19
ENDBRANCH   4  18
TORSDOF 8
ENDMDL
MODEL 3
REMARK VINA RESULT:    -7.082      2.397      7.811
REMARK INTER + INTRA:         -11.062
REMARK INTER:                 -10.049
REMARK INTRA:                  -1.013
REMARK UNBOUND:                -0.874
REMARK  Name = 
REMARK  8 active torsions:
REMARK  status: ('A' for Active; 'I' for Inactive)
REMARK    1  A    between atoms: N_1  and  C_2
REMARK    2  A    between atoms: C_2  and  C_3
REMARK    3  A    between atoms: C_2  and  C_10
REMARK    4  A    between atoms: C_3  and  C_4
REMARK    5  A    between atoms: C_13  and  C_14
REMARK    6  A    between atoms: C_14  and  N_15
REMARK    7  A    between atoms: N_15  and  C_16
REMARK    8  A    between atoms: C_16  and  C_17
REMARK                            x       y       z     vdW  Elec       q    Type
REMARK                         _______ _______ _______ _____ _____    ______ ____
ROOT
ATOM      1  C   UNL     1      46.870   5.901  12.772  0.00  0.00    +0.000 A 
ATOM      2  C   UNL     1      46.326   6.241  11.520  0.00  0.00    +0.000 A 
ATOM      3  C   UNL     1      45.288   5.505  10.950  0.00  0.00    +0.000 A 
ATOM      4  C   UNL     1      44.785   4.373  11.593  0.00  0.00    +0.000 A 
ATOM      5  C   UNL     1      45.368   3.976  12.802  0.00  0.00    +0.000 A 
ATOM      6  C   UNL     1      46.398   4.729  13.382  0.00  0.00    +0.000 A 
ENDROOT
BRANCH   1   7
ATOM      7  C   UNL     1      47.966   6.780  13.376  0.00  0.00    +0.000 C 
BRANCH   7   8
ATOM      8  N   UNL     1      48.378   6.240  14.688  0.00  0.00    +0.000 NA
ATOM      9  H   UNL     1      48.894   6.936  15.222  0.00  0.00    +0.000 HD
ATOM     10  H   UNL     1      49.007   5.452  14.540  0.00  0.00    +0.000 HD
ENDBRANCH   7   8
BRANCH   7  11
ATOM     11  C   UNL     1      49.219   6.966  12.473  0.00  0.00    +0.000 C 
BRANCH  11  12
ATOM     12  C   UNL     1      49.403   8.362  11.949  0.00  0.00    +0.000 A 
ATOM     13  C   UNL     1      50.610   8.824  11.460  0.00  0.00    +0.000 A 
ATOM     14  N   UNL     1      50.799  10.066  10.981  0.00  0.00    +0.000 NA
ATOM     15  C   UNL     1      49.719  10.865  10.986  0.00  0.00    +0.000 A 
ATOM     16  N   UNL     1      48.499  10.531  11.427  0.00  0.00    +0.000 NA
ATOM     17  C   UNL     1      48.368   9.280  11.896  0.00  0.00    +0.000 A 
ENDBRANCH  11  12
ENDBRANCH   7  11
ENDBRANCH   1   7
BRANCH   4  18
ATOM     18  C   UNL     1      43.627   3.611  10.998  0.00  0.00    +0.000 C 
BRANCH  18  19
ATOM     19  N   UNL     1      43.870   3.315   9.592  0.00  0.00    +0.000 NA
ATOM     20  H   UNL     1      44.457   4.050   9.196  0.00  0.00    +0.000 HD
BRANCH  19  21
ATOM     21  C   UNL     1      44.563   2.034   9.427  0.00  0.00    +0.000 C 
BRANCH  21  22
ATOM     22  C   UNL     1      45.655   2.131   8.379  0.00  0.00    +0.000 A 
ATOM     23  C   UNL     1      45.907   3.349   7.746  0.00  0.00    +0.000 A 
ATOM     24  C   UNL     1      46.947   3.429   6.826  0.00  0.00    +0.000 A 
ATOM     25  C   UNL     1      47.702   2.294   6.557  0.00  0.00    +0.000 A 
ATOM     26  C   UNL     1      47.384   1.122   7.223  0.00  0.00    +0.000 A 
ATOM     27  N   UNL     1      46.384   1.015   8.126  0.00  0.00    +0.000 NA
ENDBRANCH  21  22
ENDBRANCH  19  21
ENDBRANCH  18  19
ENDBRANCH   4  18
TORSDOF 8
ENDMDL
MODEL 4
REMARK VINA RESULT:    -7.039      3.527      5.975
REMARK INTER + INTRA:         -11.000
REMARK INTER:                 -10.204
REMARK INTRA:                  -0.796
REMARK UNBOUND:                -0.874
REMARK  Name = 
REMARK  8 active torsions:
REMARK  status: ('A' for Active; 'I' for Inactive)
REMARK    1  A    between atoms: N_1  and  C_2
REMARK    2  A    between atoms: C_2  and  C_3
REMARK    3  A    between atoms: C_2  and  C_10
REMARK    4  A    between atoms: C_3  and  C_4
REMARK    5  A    between atoms: C_13  and  C_14
REMARK    6  A    between atoms: C_14  and  N_15
REMARK    7  A    between atoms: N_15  and  C_16
REMARK    8  A    between atoms: C_16  and  C_17
REMARK                            x       y       z     vdW  Elec       q    Type
REMARK                         _______ _______ _______ _____ _____    ______ ____
ROOT
ATOM      1  C   UNL     1      45.022   4.383  11.329  0.00  0.00    +0.000 A 
ATOM      2  C   UNL     1      45.055   5.570  10.573  0.00  0.00    +0.000 A 
ATOM      3  C   UNL     1      45.435   6.786  11.138  0.00  0.00    +0.000 A 
ATOM      4  C   UNL     1      45.755   6.870  12.495  0.00  0.00    +0.000 A 
ATOM      5  C   UNL     1      45.652   5.715  13.278  0.00  0.00    +0.000 A 
ATOM      6  C   UNL     1      45.288   4.489  12.703  0.00  0.00    +0.000 A 
ENDROOT
BRANCH   1   7
ATOM      7  C   UNL     1      44.655   3.067  10.643  0.00  0.00    +0.000 C 
BRANCH   7   8
ATOM      8  N   UNL     1      43.423   2.514  11.243  0.00  0.00    +0.000 NA
ATOM      9  H   UNL     1      43.554   1.540  11.506  0.00  0.00    +0.000 HD
ATOM     10  H   UNL     1      42.677   2.538  10.549  0.00  0.00    +0.000 HD
ENDBRANCH   7   8
BRANCH   7  11
ATOM     11  C   UNL     1      44.483   3.166   9.100  0.00  0.00    +0.000 C 
BRANCH  11  12
ATOM     12  C   UNL     1      45.612   2.566   8.312  0.00  0.00    +0.000 A 
ATOM     13  C   UNL     1      46.422   3.313   7.478  0.00  0.00    +0.000 A 
ATOM     14  N   UNL     1      47.441   2.800   6.766  0.00  0.00    +0.000 NA
ATOM     15  C   UNL     1      47.655   1.482   6.917  0.00  0.00    +0.000 A 
ATOM     16  N   UNL     1      46.945   0.657   7.697  0.00  0.00    +0.000 NA
ATOM     17  C   UNL     1      45.938   1.222   8.383  0.00  0.00    +0.000 A 
ENDBRANCH  11  12
ENDBRANCH   7  11
ENDBRANCH   1   7
BRANCH   4  18
ATOM     18  C   UNL     1      46.216   8.177  13.088  0.00  0.00    +0.000 C 
BRANCH  18  19
ATOM     19  N   UNL     1      45.152   9.170  13.043  0.00  0.00    +0.000 NA
ATOM     20  H   UNL     1      45.135   9.678  13.929  0.00  0.00    +0.000 HD
BRANCH  19  21
ATOM     21  C   UNL     1      45.367  10.138  11.963  0.00  0.00    +0.000 C 
BRANCH  21  22
ATOM     22  C   UNL     1      44.051  10.674  11.435  0.00  0.00    +0.000 A 
ATOM     23  C   UNL     1      43.231   9.860  10.653  0.00  0.00    +0.000 A 
ATOM     24  C   UNL     1      42.004  10.354  10.222  0.00  0.00    +0.000 A 
ATOM     25  C   UNL     1      41.631  11.645  10.576  0.00  0.00    +0.000 A 
ATOM     26  C   UNL     1      42.506  12.390  11.349  0.00  0.00    +0.000 A 
ATOM     27  N   UNL     1      43.701  11.937  11.787  0.00  0.00    +0.000 NA
ENDBRANCH  21  22
ENDBRANCH  19  21
ENDBRANCH  18  19
ENDBRANCH   4  18
TORSDOF 8
ENDMDL
MODEL 5
REMARK VINA RESULT:    -6.883      1.273      2.014
REMARK INTER + INTRA:         -10.775
REMARK INTER:                  -9.596
REMARK INTRA:                  -1.180
REMARK UNBOUND:                -0.874
REMARK  Name = 
REMARK  8 active torsions:
REMARK  status: ('A' for Active; 'I' for Inactive)
REMARK    1  A    between atoms: N_1  and  C_2
REMARK    2  A    between atoms: C_2  and  C_3
REMARK    3  A    between atoms: C_2  and  C_10
REMARK    4  A    between atoms: C_3  and  C_4
REMARK    5  A    between atoms: C_13  and  C_14
REMARK    6  A    between atoms: C_14  and  N_15
REMARK    7  A    between atoms: N_15  and  C_16
REMARK    8  A    between atoms: C_16  and  C_17
REMARK                            x       y       z     vdW  Elec       q    Type
REMARK                         _______ _______ _______ _____ _____    ______ ____
ROOT
ATOM      1  C   UNL     1      44.997   5.288  12.721  0.00  0.00    +0.000 A 
ATOM      2  C   UNL     1      45.860   4.428  13.426  0.00  0.00    +0.000 A 
ATOM      3  C   UNL     1      47.055   4.886  13.980  0.00  0.00    +0.000 A 
ATOM      4  C   UNL     1      47.454   6.213  13.810  0.00  0.00    +0.000 A 
ATOM      5  C   UNL     1      46.646   7.061  13.045  0.00  0.00    +0.000 A 
ATOM      6  C   UNL     1      45.435   6.604  12.506  0.00  0.00    +0.000 A 
ENDROOT
BRANCH   1   7
ATOM      7  C   UNL     1      43.671   4.745  12.188  0.00  0.00    +0.000 C 
BRANCH   7   8
ATOM      8  N   UNL     1      42.548   5.318  12.956  0.00  0.00    +0.000 NA
ATOM      9  H   UNL     1      41.741   5.478  12.357  0.00  0.00    +0.000 HD
ATOM     10  H   UNL     1      42.828   6.226  13.326  0.00  0.00    +0.000 HD
ENDBRANCH   7   8
BRANCH   7  11
ATOM     11  C   UNL     1      43.437   4.982  10.668  0.00  0.00    +0.000 C 
BRANCH  11  12
ATOM     12  C   UNL     1      44.313   4.156   9.770  0.00  0.00    +0.000 A 
ATOM     13  C   UNL     1      45.140   4.713   8.814  0.00  0.00    +0.000 A 
ATOM     14  N   UNL     1      45.937   3.996   8.002  0.00  0.00    +0.000 NA
ATOM     15  C   UNL     1      45.904   2.664   8.177  0.00  0.00    +0.000 A 
ATOM     16  N   UNL     1      45.151   2.009   9.071  0.00  0.00    +0.000 NA
ATOM     17  C   UNL     1      44.373   2.774   9.854  0.00  0.00    +0.000 A 
ENDBRANCH  11  12
ENDBRANCH   7  11
ENDBRANCH   1   7
BRANCH   4  18
ATOM     18  C   UNL     1      48.721   6.715  14.455  0.00  0.00    +0.000 C 
BRANCH  18  19
ATOM     19  N   UNL     1      48.433   7.367  15.726  0.00  0.00    +0.000 NA
ATOM     20  H   UNL     1      47.451   7.213  15.961  0.00  0.00    +0.000 HD
BRANCH  19  21
ATOM     21  C   UNL     1      49.256   6.820  16.808  0.00  0.00    +0.000 C 
BRANCH  21  22
ATOM     22  C   UNL     1      48.890   5.378  17.101  0.00  0.00    +0.000 A 
ATOM     23  C   UNL     1      47.583   5.050  17.463  0.00  0.00    +0.000 A 
ATOM     24  C   UNL     1      47.257   3.715  17.677  0.00  0.00    +0.000 A 
ATOM     25  C   UNL     1      48.241   2.745  17.531  0.00  0.00    +0.000 A 
ATOM     26  C   UNL     1      49.516   3.154  17.176  0.00  0.00    +0.000 A 
ATOM     27  N   UNL     1      49.862   4.442  16.956  0.00  0.00    +0.000 NA
ENDBRANCH  21  22
ENDBRANCH  19  21
ENDBRANCH  18  19
ENDBRANCH   4  18
TORSDOF 8
ENDMDL
MODEL 6
REMARK VINA RESULT:    -6.873      1.279      8.152
REMARK INTER + INTRA:         -10.761
REMARK INTER:                  -9.802
REMARK INTRA:                  -0.959
REMARK UNBOUND:                -0.874
REMARK  Name = 
REMARK  8 active torsions:
REMARK  status: ('A' for Active; 'I' for Inactive)
REMARK    1  A    between atoms: N_1  and  C_2
REMARK    2  A    between atoms: C_2  and  C_3
REMARK    3  A    between atoms: C_2  and  C_10
REMARK    4  A    between atoms: C_3  and  C_4
REMARK    5  A    between atoms: C_13  and  C_14
REMARK    6  A    between atoms: C_14  and  N_15
REMARK    7  A    between atoms: N_15  and  C_16
REMARK    8  A    between atoms: C_16  and  C_17
REMARK                            x       y       z     vdW  Elec       q    Type
REMARK                         _______ _______ _______ _____ _____    ______ ____
ROOT
ATOM      1  C   UNL     1      47.290   5.891  13.151  0.00  0.00    +0.000 A 
ATOM      2  C   UNL     1      47.050   6.489  11.900  0.00  0.00    +0.000 A 
ATOM      3  C   UNL     1      45.831   6.340  11.240  0.00  0.00    +0.000 A 
ATOM      4  C   UNL     1      44.821   5.547  11.787  0.00  0.00    +0.000 A 
ATOM      5  C   UNL     1      45.071   4.881  12.992  0.00  0.00    +0.000 A 
ATOM      6  C   UNL     1      46.291   5.049  13.663  0.00  0.00    +0.000 A 
ENDROOT
BRANCH   1   7
ATOM      7  C   UNL     1      48.624   6.138  13.856  0.00  0.00    +0.000 C 
BRANCH   7   8
ATOM      8  N   UNL     1      49.527   6.901  12.970  0.00  0.00    +0.000 NA
ATOM      9  H   UNL     1      49.366   6.661  11.994  0.00  0.00    +0.000 HD
ATOM     10  H   UNL     1      50.491   6.648  13.183  0.00  0.00    +0.000 HD
ENDBRANCH   7   8
BRANCH   7  11
ATOM     11  C   UNL     1      48.508   6.862  15.228  0.00  0.00    +0.000 C 
BRANCH  11  12
ATOM     12  C   UNL     1      48.892   6.017  16.409  0.00  0.00    +0.000 A 
ATOM     13  C   UNL     1      48.052   5.062  16.949  0.00  0.00    +0.000 A 
ATOM     14  N   UNL     1      48.374   4.290  18.001  0.00  0.00    +0.000 NA
ATOM     15  C   UNL     1      49.600   4.484  18.517  0.00  0.00    +0.000 A 
ATOM     16  N   UNL     1      50.502   5.372  18.079  0.00  0.00    +0.000 NA
ATOM     17  C   UNL     1      50.127   6.118  17.027  0.00  0.00    +0.000 A 
ENDBRANCH  11  12
ENDBRANCH   7  11
ENDBRANCH   1   7
BRANCH   4  18
ATOM     18  C   UNL     1      43.486   5.431  11.094  0.00  0.00    +0.000 C 
BRANCH  18  19
ATOM     19  N   UNL     1      43.635   4.814   9.783  0.00  0.00    +0.000 NA
ATOM     20  H   UNL     1      44.358   5.313   9.263  0.00  0.00    +0.000 HD
BRANCH  19  21
ATOM     21  C   UNL     1      44.035   3.409   9.894  0.00  0.00    +0.000 C 
BRANCH  21  22
ATOM     22  C   UNL     1      45.107   3.061   8.880  0.00  0.00    +0.000 A 
ATOM     23  C   UNL     1      45.684   4.066   8.103  0.00  0.00    +0.000 A 
ATOM     24  C   UNL     1      46.702   3.732   7.216  0.00  0.00    +0.000 A 
ATOM     25  C   UNL     1      47.112   2.408   7.122  0.00  0.00    +0.000 A 
ATOM     26  C   UNL     1      46.484   1.469   7.923  0.00  0.00    +0.000 A 
ATOM     27  N   UNL     1      45.496   1.763   8.798  0.00  0.00    +0.000 NA
ENDBRANCH  21  22
ENDBRANCH  19  21
ENDBRANCH  18  19
ENDBRANCH   4  18
TORSDOF 8
ENDMDL
MODEL 7
REMARK VINA RESULT:    -6.863      2.024      8.556
REMARK INTER + INTRA:         -10.746
REMARK INTER:                  -9.852
REMARK INTRA:                  -0.894
REMARK UNBOUND:                -0.874
REMARK  Name = 
REMARK  8 active torsions:
REMARK  status: ('A' for Active; 'I' for Inactive)
REMARK    1  A    between atoms: N_1  and  C_2
REMARK    2  A    between atoms: C_2  and  C_3
REMARK    3  A    between atoms: C_2  and  C_10
REMARK    4  A    between atoms: C_3  and  C_4
REMARK    5  A    between atoms: C_13  and  C_14
REMARK    6  A    between atoms: C_14  and  N_15
REMARK    7  A    between atoms: N_15  and  C_16
REMARK    8  A    between atoms: C_16  and  C_17
REMARK                            x       y       z     vdW  Elec       q    Type
REMARK                         _______ _______ _______ _____ _____    ______ ____
ROOT
ATOM      1  C   UNL     1      47.063   6.105  12.911  0.00  0.00    +0.000 A 
ATOM      2  C   UNL     1      46.824   6.553  11.598  0.00  0.00    +0.000 A 
ATOM      3  C   UNL     1      45.699   6.148  10.881  0.00  0.00    +0.000 A 
ATOM      4  C   UNL     1      44.792   5.243  11.436  0.00  0.00    +0.000 A 
ATOM      5  C   UNL     1      45.055   4.728  12.710  0.00  0.00    +0.000 A 
ATOM      6  C   UNL     1      46.177   5.152  13.436  0.00  0.00    +0.000 A 
ENDROOT
BRANCH   1   7
ATOM      7  C   UNL     1      48.281   6.629  13.671  0.00  0.00    +0.000 C 
BRANCH   7   8
ATOM      8  N   UNL     1      49.472   6.592  12.798  0.00  0.00    +0.000 NA
ATOM      9  H   UNL     1      50.129   7.329  13.047  0.00  0.00    +0.000 HD
ATOM     10  H   UNL     1      49.183   6.763  11.836  0.00  0.00    +0.000 HD
ENDBRANCH   7   8
BRANCH   7  11
ATOM     11  C   UNL     1      48.113   8.059  14.261  0.00  0.00    +0.000 C 
BRANCH  11  12
ATOM     12  C   UNL     1      48.526   8.188  15.699  0.00  0.00    +0.000 A 
ATOM     13  C   UNL     1      48.271   9.319  16.452  0.00  0.00    +0.000 A 
ATOM     14  N   UNL     1      48.627   9.457  17.741  0.00  0.00    +0.000 NA
ATOM     15  C   UNL     1      49.251   8.402  18.292  0.00  0.00    +0.000 A 
ATOM     16  N   UNL     1      49.548   7.254  17.669  0.00  0.00    +0.000 NA
ATOM     17  C   UNL     1      49.173   7.172  16.383  0.00  0.00    +0.000 A 
ENDBRANCH  11  12
ENDBRANCH   7  11
ENDBRANCH   1   7
BRANCH   4  18
ATOM     18  C   UNL     1      43.550   4.849  10.676  0.00  0.00    +0.000 C 
BRANCH  18  19
ATOM     19  N   UNL     1      43.894   4.283   9.379  0.00  0.00    +0.000 NA
ATOM     20  H   UNL     1      44.654   4.828   8.971  0.00  0.00    +0.000 HD
BRANCH  19  21
ATOM     21  C   UNL     1      44.341   2.893   9.502  0.00  0.00    +0.000 C 
BRANCH  21  22
ATOM     22  C   UNL     1      45.447   2.581   8.514  0.00  0.00    +0.000 A 
ATOM     23  C   UNL     1      45.954   3.590   7.694  0.00  0.00    +0.000 A 
ATOM     24  C   UNL     1      47.004   3.295   6.831  0.00  0.00    +0.000 A 
ATOM     25  C   UNL     1      47.516   2.003   6.804  0.00  0.00    +0.000 A 
ATOM     26  C   UNL     1      46.953   1.058   7.644  0.00  0.00    +0.000 A 
ATOM     27  N   UNL     1      45.936   1.315   8.497  0.00  0.00    +0.000 NA
ENDBRANCH  21  22
ENDBRANCH  19  21
ENDBRANCH  18  19
ENDBRANCH   4  18
TORSDOF 8
ENDMDL
MODEL 8
REMARK VINA RESULT:    -6.755      2.594      7.833
REMARK INTER + INTRA:         -10.592
REMARK INTER:                 -10.084
REMARK INTRA:                  -0.508
REMARK UNBOUND:                -0.874
REMARK  Name = 
REMARK  8 active torsions:
REMARK  status: ('A' for Active; 'I' for Inactive)
REMARK    1  A    between atoms: N_1  and  C_2
REMARK    2  A    between atoms: C_2  and  C_3
REMARK    3  A    between atoms: C_2  and  C_10
REMARK    4  A    between atoms: C_3  and  C_4
REMARK    5  A    between atoms: C_13  and  C_14
REMARK    6  A    between atoms: C_14  and  N_15
REMARK    7  A    between atoms: N_15  and  C_16
REMARK    8  A    between atoms: C_16  and  C_17
REMARK                            x       y       z     vdW  Elec       q    Type
REMARK                         _______ _______ _______ _____ _____    ______ ____
ROOT
ATOM      1  C   UNL     1      47.055   6.091  12.768  0.00  0.00    +0.000 A 
ATOM      2  C   UNL     1      46.919   6.350  11.392  0.00  0.00    +0.000 A 
ATOM      3  C   UNL     1      45.808   5.914  10.672  0.00  0.00    +0.000 A 
ATOM      4  C   UNL     1      44.809   5.162  11.295  0.00  0.00    +0.000 A 
ATOM      5  C   UNL     1      44.967   4.829  12.645  0.00  0.00    +0.000 A 
ATOM      6  C   UNL     1      46.077   5.285  13.371  0.00  0.00    +0.000 A 
ENDROOT
BRANCH   1   7
ATOM      7  C   UNL     1      48.266   6.645  13.519  0.00  0.00    +0.000 C 
BRANCH   7   8
ATOM      8  N   UNL     1      49.452   6.635  12.637  0.00  0.00    +0.000 NA
ATOM      9  H   UNL     1      50.304   6.492  13.175  0.00  0.00    +0.000 HD
ATOM     10  H   UNL     1      49.535   7.544  12.183  0.00  0.00    +0.000 HD
ENDBRANCH   7   8
BRANCH   7  11
ATOM     11  C   UNL     1      48.068   8.071  14.108  0.00  0.00    +0.000 C 
BRANCH  11  12
ATOM     12  C   UNL     1      47.296   9.006  13.221  0.00  0.00    +0.000 A 
ATOM     13  C   UNL     1      47.908   9.913  12.378  0.00  0.00    +0.000 A 
ATOM     14  N   UNL     1      47.240  10.756  11.571  0.00  0.00    +0.000 NA
ATOM     15  C   UNL     1      45.900  10.665  11.611  0.00  0.00    +0.000 A 
ATOM     16  N   UNL     1      45.194   9.825  12.380  0.00  0.00    +0.000 NA
ATOM     17  C   UNL     1      45.912   9.008  13.167  0.00  0.00    +0.000 A 
ENDBRANCH  11  12
ENDBRANCH   7  11
ENDBRANCH   1   7
BRANCH   4  18
ATOM     18  C   UNL     1      43.584   4.738  10.525  0.00  0.00    +0.000 C 
BRANCH  18  19
ATOM     19  N   UNL     1      43.954   4.170   9.235  0.00  0.00    +0.000 NA
ATOM     20  H   UNL     1      44.738   4.701   8.853  0.00  0.00    +0.000 HD
BRANCH  19  21
ATOM     21  C   UNL     1      44.366   2.770   9.364  0.00  0.00    +0.000 C 
BRANCH  21  22
ATOM     22  C   UNL     1      45.508   2.443   8.421  0.00  0.00    +0.000 A 
ATOM     23  C   UNL     1      46.079   3.451   7.644  0.00  0.00    +0.000 A 
ATOM     24  C   UNL     1      47.159   3.140   6.824  0.00  0.00    +0.000 A 
ATOM     25  C   UNL     1      47.635   1.835   6.796  0.00  0.00    +0.000 A 
ATOM     26  C   UNL     1      47.008   0.892   7.593  0.00  0.00    +0.000 A 
ATOM     27  N   UNL     1      45.961   1.164   8.404  0.00  0.00    +0.000 NA
ENDBRANCH  21  22
ENDBRANCH  19  21
ENDBRANCH  18  19
ENDBRANCH   4  18
TORSDOF 8
ENDMDL
MODEL 9
REMARK VINA RESULT:    -6.628      2.498      8.107
REMARK INTER + INTRA:         -10.409
REMARK INTER:                  -9.582
REMARK INTRA:                  -0.826
REMARK UNBOUND:                -0.874
REMARK  Name = 
REMARK  8 active torsions:
REMARK  status: ('A' for Active; 'I' for Inactive)
REMARK    1  A    between atoms: N_1  and  C_2
REMARK    2  A    between atoms: C_2  and  C_3
REMARK    3  A    between atoms: C_2  and  C_10
REMARK    4  A    between atoms: C_3  and  C_4
REMARK    5  A    between atoms: C_13  and  C_14
REMARK    6  A    between atoms: C_14  and  N_15
REMARK    7  A    between atoms: N_15  and  C_16
REMARK    8  A    between atoms: C_16  and  C_17
REMARK                            x       y       z     vdW  Elec       q    Type
REMARK                         _______ _______ _______ _____ _____    ______ ____
ROOT
ATOM      1  C   UNL     1      46.268   6.595  12.644  0.00  0.00    +0.000 A 
ATOM      2  C   UNL     1      45.889   5.461  13.387  0.00  0.00    +0.000 A 
ATOM      3  C   UNL     1      44.982   4.529  12.885  0.00  0.00    +0.000 A 
ATOM      4  C   UNL     1      44.386   4.719  11.637  0.00  0.00    +0.000 A 
ATOM      5  C   UNL     1      44.693   5.881  10.919  0.00  0.00    +0.000 A 
ATOM      6  C   UNL     1      45.620   6.807  11.418  0.00  0.00    +0.000 A 
ENDROOT
BRANCH   1   7
ATOM      7  C   UNL     1      47.312   7.553  13.220  0.00  0.00    +0.000 C 
BRANCH   7   8
ATOM      8  N   UNL     1      46.641   8.643  13.957  0.00  0.00    +0.000 NA
ATOM      9  H   UNL     1      47.252   9.026  14.675  0.00  0.00    +0.000 HD
ATOM     10  H   UNL     1      45.822   8.267  14.433  0.00  0.00    +0.000 HD
ENDBRANCH   7   8
BRANCH   7  11
ATOM     11  C   UNL     1      48.373   6.881  14.137  0.00  0.00    +0.000 C 
BRANCH  11  12
ATOM     12  C   UNL     1      49.755   7.455  14.010  0.00  0.00    +0.000 A 
ATOM     13  C   UNL     1      50.237   7.987  12.829  0.00  0.00    +0.000 A 
ATOM     14  N   UNL     1      51.468   8.511  12.691  0.00  0.00    +0.000 NA
ATOM     15  C   UNL     1      52.232   8.509  13.796  0.00  0.00    +0.000 A 
ATOM     16  N   UNL     1      51.876   8.029  14.995  0.00  0.00    +0.000 NA
ATOM     17  C   UNL     1      50.638   7.516  15.075  0.00  0.00    +0.000 A 
ENDBRANCH  11  12
ENDBRANCH   7  11
ENDBRANCH   1   7
BRANCH   4  18
ATOM     18  C   UNL     1      43.446   3.681  11.076  0.00  0.00    +0.000 C 
BRANCH  18  19
ATOM     19  N   UNL     1      43.845   3.295   9.730  0.00  0.00    +0.000 NA
ATOM     20  H   UNL     1      44.243   4.107   9.257  0.00  0.00    +0.000 HD
BRANCH  19  21
ATOM     21  C   UNL     1      44.858   2.236   9.754  0.00  0.00    +0.000 C 
BRANCH  21  22
ATOM     22  C   UNL     1      45.694   2.246   8.489  0.00  0.00    +0.000 A 
ATOM     23  C   UNL     1      45.794   3.412   7.729  0.00  0.00    +0.000 A 
ATOM     24  C   UNL     1      46.608   3.415   6.601  0.00  0.00    +0.000 A 
ATOM     25  C   UNL     1      47.294   2.256   6.258  0.00  0.00    +0.000 A 
ATOM     26  C   UNL     1      47.136   1.139   7.061  0.00  0.00    +0.000 A 
ATOM     27  N   UNL     1      46.358   1.107   8.166  0.00  0.00    +0.000 NA
ENDBRANCH  21  22
ENDBRANCH  19  21
ENDBRANCH  18  19
ENDBRANCH   4  18
TORSDOF 8
ENDMDL
