MODEL 1
REMARK VINA RESULT:    -8.944      0.000      0.000
REMARK INTER + INTRA:         -13.675
REMARK INTER:                 -13.127
REMARK INTRA:                  -0.548
REMARK UNBOUND:                -0.548
REMARK  Name = 
REMARK  9 active torsions:
REMARK  status: ('A' for Active; 'I' for Inactive)
REMARK    1  A    between atoms: C_1  and  C_2
REMARK    2  A    between atoms: C_2  and  C_20
REMARK    3  A    between atoms: C_3  and  C_4
REMARK    4  A    between atoms: C_4  and  N_5
REMARK    5  A    between atoms: C_8  and  C_9
REMARK    6  A    between atoms: C_9  and  N_10
REMARK    7  A    between atoms: N_10  and  C_11
REMARK    8  A    between atoms: C_11  and  C_12
REMARK    9  A    between atoms: C_20  and  C_22
REMARK                            x       y       z     vdW  Elec       q    Type
REMARK                         _______ _______ _______ _____ _____    ______ ____
ROOT
ATOM      1  C   UNL     1      46.763   4.963  13.393  0.00  0.00    +0.000 C 
ENDROOT
BRANCH   1   2
ATOM      2  N   UNL     1      45.384   4.776  12.910  0.00  0.00    +0.000 NA
ATOM      3  C   UNL     1      45.005   5.804  11.926  0.00  0.00    +0.000 C 
ATOM      4  C   UNL     1      43.604   5.570  11.365  0.00  0.00    +0.000 C 
ATOM      5  C   UNL     1      43.455   4.178  10.748  0.00  0.00    +0.000 C 
ATOM      6  C   UNL     1      43.867   3.139  11.798  0.00  0.00    +0.000 C 
ATOM      7  C   UNL     1      45.264   3.417  12.348  0.00  0.00    +0.000 C 
BRANCH   5   8
ATOM      8  C   UNL     1      44.254   4.055   9.428  0.00  0.00    +0.000 C 
BRANCH   8   9
ATOM      9  N   UNL     1      44.309   2.700   8.869  0.00  0.00    +0.000 NA
ATOM     10  H   UNL     1      44.008   2.704   7.896  0.00  0.00    +0.000 HD
BRANCH   9  11
ATOM     11  C   UNL     1      45.647   2.114   8.958  0.00  0.00    +0.000 C 
BRANCH  11  12
ATOM     12  C   UNL     1      46.358   2.168   7.638  0.00  0.00    +0.000 A 
ATOM     13  C   UNL     1      46.167   3.227   6.747  0.00  0.00    +0.000 A 
ATOM     14  C   UNL     1      46.833   3.223   5.527  0.00  0.00    +0.000 A 
ATOM     15  C   UNL     1      47.667   2.156   5.238  0.00  0.00    +0.000 A 
ATOM     16  N   UNL     1      47.879   1.117   6.072  0.00  0.00    +0.000 NA
ATOM     17  C   UNL     1      47.220   1.146   7.251  0.00  0.00    +0.000 A 
ENDBRANCH  11  12
ENDBRANCH   9  11
ENDBRANCH   8   9
ENDBRANCH   5   8
ENDBRANCH   1   2
BRANCH   1  20
ATOM     18  C   UNL     1      48.552   6.276  15.556  0.00  0.00    +0.000 C 
ATOM     19  C   UNL     1      47.747   5.016  15.752  0.00  0.00    +0.000 C 
ATOM     20  C   UNL     1      46.971   4.459  14.792  0.00  0.00    +0.000 C 
BRANCH  19  21
ATOM     21  C   UNL     1      47.930   4.427  17.142  0.00  0.00    +0.000 C 
ATOM     22  O   UNL     1      46.962   3.954  17.723  0.00  0.00    +0.000 OA
BRANCH  21  23
ATOM     23  C   UNL     1      49.284   4.398  17.709  0.00  0.00    +0.000 A 
ATOM     24  C   UNL     1      49.840   5.444  18.430  0.00  0.00    +0.000 A 
ATOM     25  S   UNL     1      51.402   5.111  19.024  0.00  0.00    +0.000 S 
ATOM     26  C   UNL     1      51.423   3.586  18.267  0.00  0.00    +0.000 A 
ATOM     27  N   UNL     1      52.498   2.764  18.402  0.00  0.00    +0.000 NA
ATOM     28  C   UNL     1      52.388   1.641  17.773  0.00  0.00    +0.000 A 
ATOM     29  N   UNL     1      51.311   1.277  17.009  0.00  0.00    +0.000 N 
ATOM     30  C   UNL     1      50.214   2.090  16.811  0.00  0.00    +0.000 A 
ATOM     31  O   UNL     1      49.311   1.731  16.066  0.00  0.00    +0.000 OA
ATOM     32  C   UNL     1      50.265   3.344  17.548  0.00  0.00    +0.000 A 
ATOM     33  H   UNL     1      51.298   0.399  16.513  0.00  0.00    +0.000 HD
ENDBRANCH  21  23
ENDBRANCH  19  21
ENDBRANCH   1  20
TORSDOF 8
ENDMDL
MODEL 2
REMARK VINA RESULT:    -8.452      4.337      6.475
REMARK INTER + INTRA:         -12.953
REMARK INTER:                 -11.689
REMARK INTRA:                  -1.264
REMARK UNBOUND:                -0.548
REMARK  Name = 
REMARK  9 active torsions:
REMARK  status: ('A' for Active; 'I' for Inactive)
REMARK    1  A    between atoms: C_1  and  C_2
REMARK    2  A    between atoms: C_2  and  C_20
REMARK    3  A    between atoms: C_3  and  C_4
REMARK    4  A    between atoms: C_4  and  N_5
REMARK    5  A    between atoms: C_8  and  C_9
REMARK    6  A    between atoms: C_9  and  N_10
REMARK    7  A    between atoms: N_10  and  C_11
REMARK    8  A    between atoms: C_11  and  C_12
REMARK    9  A    between atoms: C_20  and  C_22
REMARK                            x       y       z     vdW  Elec       q    Type
REMARK                         _______ _______ _______ _____ _____    ______ ____
ROOT
ATOM      1  C   UNL     1      46.799   4.816  13.863  0.00  0.00    +0.000 C 
ENDROOT
BRANCH   1   2
ATOM      2  N   UNL     1      45.457   4.279  13.584  0.00  0.00    +0.000 NA
ATOM      3  C   UNL     1      44.476   5.353  13.352  0.00  0.00    +0.000 C 
ATOM      4  C   UNL     1      43.099   4.801  12.986  0.00  0.00    +0.000 C 
ATOM      5  C   UNL     1      43.155   3.874  11.770  0.00  0.00    +0.000 C 
ATOM      6  C   UNL     1      44.191   2.779  12.046  0.00  0.00    +0.000 C 
ATOM      7  C   UNL     1      45.548   3.368  12.426  0.00  0.00    +0.000 C 
BRANCH   5   8
ATOM      8  C   UNL     1      43.438   4.664  10.469  0.00  0.00    +0.000 C 
BRANCH   8   9
ATOM      9  N   UNL     1      43.833   3.836   9.324  0.00  0.00    +0.000 NA
ATOM     10  H   UNL     1      43.090   3.816   8.626  0.00  0.00    +0.000 HD
BRANCH   9  11
ATOM     11  C   UNL     1      45.070   4.303   8.698  0.00  0.00    +0.000 C 
BRANCH  11  12
ATOM     12  C   UNL     1      45.849   3.165   8.108  0.00  0.00    +0.000 A 
ATOM     13  C   UNL     1      46.704   3.350   7.019  0.00  0.00    +0.000 A 
ATOM     14  C   UNL     1      47.390   2.261   6.495  0.00  0.00    +0.000 A 
ATOM     15  C   UNL     1      47.196   1.021   7.078  0.00  0.00    +0.000 A 
ATOM     16  N   UNL     1      46.382   0.801   8.132  0.00  0.00    +0.000 NA
ATOM     17  C   UNL     1      45.728   1.877   8.622  0.00  0.00    +0.000 A 
ENDBRANCH  11  12
ENDBRANCH   9  11
ENDBRANCH   8   9
ENDBRANCH   5   8
ENDBRANCH   1   2
BRANCH   1  20
ATOM     18  C   UNL     1      48.327   7.439  14.489  0.00  0.00    +0.000 C 
ATOM     19  C   UNL     1      47.914   6.990  13.108  0.00  0.00    +0.000 C 
ATOM     20  C   UNL     1      47.246   5.839  12.858  0.00  0.00    +0.000 C 
BRANCH  19  21
ATOM     21  C   UNL     1      48.307   7.993  12.036  0.00  0.00    +0.000 C 
ATOM     22  O   UNL     1      48.998   7.622  11.096  0.00  0.00    +0.000 OA
BRANCH  21  23
ATOM     23  C   UNL     1      47.789   9.362  12.143  0.00  0.00    +0.000 A 
ATOM     24  C   UNL     1      48.556  10.448  12.535  0.00  0.00    +0.000 A 
ATOM     25  S   UNL     1      47.712  11.928  12.508  0.00  0.00    +0.000 S 
ATOM     26  C   UNL     1      46.265  11.156  12.052  0.00  0.00    +0.000 A 
ATOM     27  N   UNL     1      45.134  11.880  11.838  0.00  0.00    +0.000 NA
ATOM     28  C   UNL     1      44.107  11.172  11.504  0.00  0.00    +0.000 A 
ATOM     29  N   UNL     1      44.107   9.808  11.381  0.00  0.00    +0.000 N 
ATOM     30  C   UNL     1      45.217   9.026  11.622  0.00  0.00    +0.000 A 
ATOM     31  O   UNL     1      45.134   7.806  11.556  0.00  0.00    +0.000 OA
ATOM     32  C   UNL     1      46.417   9.784  11.946  0.00  0.00    +0.000 A 
ATOM     33  H   UNL     1      43.263   9.307  11.149  0.00  0.00    +0.000 HD
ENDBRANCH  21  23
ENDBRANCH  19  21
ENDBRANCH   1  20
TORSDOF 8
ENDMDL
MODEL 3
REMARK VINA RESULT:    -8.256      2.319      2.933
REMARK INTER + INTRA:         -12.665
REMARK INTER:                 -11.781
REMARK INTRA:                  -0.884
REMARK UNBOUND:                -0.548
REMARK  Name = 
REMARK  9 active torsions:
REMARK  status: ('A' for Active; 'I' for Inactive)
REMARK    1  A    between atoms: C_1  and  C_2
REMARK    2  A    between atoms: C_2  and  C_20
REMARK    3  A    between atoms: C_3  and  C_4
REMARK    4  A    between atoms: C_4  and  N_5
REMARK    5  A    between atoms: C_8  and  C_9
REMARK    6  A    between atoms: C_9  and  N_10
REMARK    7  A    between atoms: N_10  and  C_11
REMARK    8  A    between atoms: C_11  and  C_12
REMARK    9  A    between atoms: C_20  and  C_22
REMARK                            x       y       z     vdW  Elec       q    Type
REMARK                         _______ _______ _______ _____ _____    ______ ____
ROOT
ATOM      1  C   UNL     1      45.588   7.479  12.337  0.00  0.00    +0.000 C 
ENDROOT
BRANCH   1   2
ATOM      2  N   UNL     1      44.458   6.541  12.446  0.00  0.00    +0.000 NA
ATOM      3  C   UNL     1      43.825   6.292  11.140  0.00  0.00    +0.000 C 
ATOM      4  C   UNL     1      42.703   5.261  11.235  0.00  0.00    +0.000 C 
ATOM      5  C   UNL     1      43.183   3.940  11.842  0.00  0.00    +0.000 C 
ATOM      6  C   UNL     1      43.842   4.243  13.193  0.00  0.00    +0.000 C 
ATOM      7  C   UNL     1      44.946   5.290  13.060  0.00  0.00    +0.000 C 
BRANCH   5   8
ATOM      8  C   UNL     1      44.114   3.176  10.870  0.00  0.00    +0.000 C 
BRANCH   8   9
ATOM      9  N   UNL     1      43.755   3.300   9.453  0.00  0.00    +0.000 NA
ATOM     10  H   UNL     1      42.874   3.800   9.351  0.00  0.00    +0.000 HD
BRANCH   9  11
ATOM     11  C   UNL     1      44.790   3.981   8.673  0.00  0.00    +0.000 C 
BRANCH  11  12
ATOM     12  C   UNL     1      45.752   3.002   8.067  0.00  0.00    +0.000 A 
ATOM     13  C   UNL     1      46.659   3.386   7.077  0.00  0.00    +0.000 A 
ATOM     14  C   UNL     1      47.518   2.439   6.531  0.00  0.00    +0.000 A 
ATOM     15  C   UNL     1      47.438   1.137   6.995  0.00  0.00    +0.000 A 
ATOM     16  N   UNL     1      46.578   0.727   7.951  0.00  0.00    +0.000 NA
ATOM     17  C   UNL     1      45.755   1.668   8.465  0.00  0.00    +0.000 A 
ENDBRANCH  11  12
ENDBRANCH   9  11
ENDBRANCH   8   9
ENDBRANCH   5   8
ENDBRANCH   1   2
BRANCH   1  20
ATOM     18  C   UNL     1      47.380   9.049  14.319  0.00  0.00    +0.000 C 
ATOM     19  C   UNL     1      47.640   7.637  13.854  0.00  0.00    +0.000 C 
ATOM     20  C   UNL     1      46.842   6.970  12.986  0.00  0.00    +0.000 C 
BRANCH  19  21
ATOM     21  C   UNL     1      48.915   7.062  14.448  0.00  0.00    +0.000 C 
ATOM     22  O   UNL     1      49.936   7.047  13.773  0.00  0.00    +0.000 OA
BRANCH  21  23
ATOM     23  C   UNL     1      48.883   6.598  15.841  0.00  0.00    +0.000 A 
ATOM     24  C   UNL     1      49.432   7.304  16.901  0.00  0.00    +0.000 A 
ATOM     25  S   UNL     1      49.191   6.561  18.416  0.00  0.00    +0.000 S 
ATOM     26  C   UNL     1      48.418   5.224  17.697  0.00  0.00    +0.000 A 
ATOM     27  N   UNL     1      47.939   4.211  18.465  0.00  0.00    +0.000 NA
ATOM     28  C   UNL     1      47.381   3.257  17.796  0.00  0.00    +0.000 A 
ATOM     29  N   UNL     1      47.277   3.220  16.431  0.00  0.00    +0.000 N 
ATOM     30  C   UNL     1      47.779   4.205  15.606  0.00  0.00    +0.000 A 
ATOM     31  O   UNL     1      47.709   4.082  14.390  0.00  0.00    +0.000 OA
ATOM     32  C   UNL     1      48.366   5.331  16.318  0.00  0.00    +0.000 A 
ATOM     33  H   UNL     1      46.860   2.431  15.962  0.00  0.00    +0.000 HD
ENDBRANCH  21  23
ENDBRANCH  19  21
ENDBRANCH   1  20
TORSDOF 8
ENDMDL
MODEL 4
REMARK VINA RESULT:    -8.105      1.975      2.550
REMARK INTER + INTRA:         -12.444
REMARK INTER:                 -11.508
REMARK INTRA:                  -0.935
REMARK UNBOUND:                -0.548
REMARK  Name = 
REMARK  9 active torsions:
REMARK  status: ('A' for Active; 'I' for Inactive)
REMARK    1  A    between atoms: C_1  and  C_2
REMARK    2  A    between atoms: C_2  and  C_20
REMARK    3  A    between atoms: C_3  and  C_4
REMARK    4  A    between atoms: C_4  and  N_5
REMARK    5  A    between atoms: C_8  and  C_9
REMARK    6  A    between atoms: C_9  and  N_10
REMARK    7  A    between atoms: N_10  and  C_11
REMARK    8  A    between atoms: C_11  and  C_12
REMARK    9  A    between atoms: C_20  and  C_22
REMARK                            x       y       z     vdW  Elec       q    Type
REMARK                         _______ _______ _______ _____ _____    ______ ____
ROOT
ATOM      1  C   UNL     1      46.954   3.601  14.463  0.00  0.00    +0.000 C 
ENDROOT
BRANCH   1   2
ATOM      2  N   UNL     1      45.799   4.087  13.688  0.00  0.00    +0.000 NA
ATOM      3  C   UNL     1      45.935   5.512  13.340  0.00  0.00    +0.000 C 
ATOM      4  C   UNL     1      44.778   6.002  12.472  0.00  0.00    +0.000 C 
ATOM      5  C   UNL     1      44.619   5.167  11.199  0.00  0.00    +0.000 C 
ATOM      6  C   UNL     1      44.491   3.693  11.603  0.00  0.00    +0.000 C 
ATOM      7  C   UNL     1      45.655   3.246  12.484  0.00  0.00    +0.000 C 
BRANCH   5   8
ATOM      8  C   UNL     1      45.777   5.425  10.205  0.00  0.00    +0.000 C 
BRANCH   8   9
ATOM      9  N   UNL     1      45.398   5.346   8.790  0.00  0.00    +0.000 NA
ATOM     10  H   UNL     1      46.217   5.461   8.195  0.00  0.00    +0.000 HD
BRANCH   9  11
ATOM     11  C   UNL     1      44.734   4.085   8.459  0.00  0.00    +0.000 C 
BRANCH  11  12
ATOM     12  C   UNL     1      45.714   3.064   7.961  0.00  0.00    +0.000 A 
ATOM     13  C   UNL     1      46.652   3.372   6.973  0.00  0.00    +0.000 A 
ATOM     14  C   UNL     1      47.527   2.387   6.530  0.00  0.00    +0.000 A 
ATOM     15  C   UNL     1      47.431   1.124   7.090  0.00  0.00    +0.000 A 
ATOM     16  N   UNL     1      46.541   0.788   8.047  0.00  0.00    +0.000 NA
ATOM     17  C   UNL     1      45.704   1.765   8.461  0.00  0.00    +0.000 A 
ENDBRANCH  11  12
ENDBRANCH   9  11
ENDBRANCH   8   9
ENDBRANCH   5   8
ENDBRANCH   1   2
BRANCH   1  20
ATOM     18  C   UNL     1      47.331   3.021  17.484  0.00  0.00    +0.000 C 
ATOM     19  C   UNL     1      47.595   4.351  16.821  0.00  0.00    +0.000 C 
ATOM     20  C   UNL     1      47.424   4.582  15.498  0.00  0.00    +0.000 C 
BRANCH  19  21
ATOM     21  C   UNL     1      48.049   5.408  17.815  0.00  0.00    +0.000 C 
ATOM     22  O   UNL     1      47.556   5.425  18.936  0.00  0.00    +0.000 OA
BRANCH  21  23
ATOM     23  C   UNL     1      49.110   6.336  17.405  0.00  0.00    +0.000 A 
ATOM     24  C   UNL     1      48.879   7.644  17.006  0.00  0.00    +0.000 A 
ATOM     25  S   UNL     1      50.301   8.512  16.648  0.00  0.00    +0.000 S 
ATOM     26  C   UNL     1      51.272   7.142  16.931  0.00  0.00    +0.000 A 
ATOM     27  N   UNL     1      52.624   7.219  16.812  0.00  0.00    +0.000 NA
ATOM     28  C   UNL     1      53.241   6.109  17.047  0.00  0.00    +0.000 A 
ATOM     29  N   UNL     1      52.625   4.929  17.372  0.00  0.00    +0.000 N 
ATOM     30  C   UNL     1      51.257   4.791  17.470  0.00  0.00    +0.000 A 
ATOM     31  O   UNL     1      50.766   3.693  17.703  0.00  0.00    +0.000 OA
ATOM     32  C   UNL     1      50.520   6.030  17.270  0.00  0.00    +0.000 A 
ATOM     33  H   UNL     1      53.160   4.086  17.512  0.00  0.00    +0.000 HD
ENDBRANCH  21  23
ENDBRANCH  19  21
ENDBRANCH   1  20
TORSDOF 8
ENDMDL
MODEL 5
REMARK VINA RESULT:    -8.077      1.500      1.860
REMARK INTER + INTRA:         -12.402
REMARK INTER:                 -11.968
REMARK INTRA:                  -0.434
REMARK UNBOUND:                -0.548
REMARK  Name = 
REMARK  9 active torsions:
REMARK  status: ('A' for Active; 'I' for Inactive)
REMARK    1  A    between atoms: C_1  and  C_2
REMARK    2  A    between atoms: C_2  and  C_20
REMARK    3  A    between atoms: C_3  and  C_4
REMARK    4  A    between atoms: C_4  and  N_5
REMARK    5  A    between atoms: C_8  and  C_9
REMARK    6  A    between atoms: C_9  and  N_10
REMARK    7  A    between atoms: N_10  and  C_11
REMARK    8  A    between atoms: C_11  and  C_12
REMARK    9  A    between atoms: C_20  and  C_22
REMARK                            x       y       z     vdW  Elec       q    Type
REMARK                         _______ _______ _______ _____ _____    ______ ____
ROOT
ATOM      1  C   UNL     1      47.045   5.030  13.390  0.00  0.00    +0.000 C 
ENDROOT
BRANCH   1   2
ATOM      2  N   UNL     1      45.743   5.344  12.779  0.00  0.00    +0.000 NA
ATOM      3  C   UNL     1      45.724   5.029  11.340  0.00  0.00    +0.000 C 
ATOM      4  C   UNL     1      44.352   5.281  10.717  0.00  0.00    +0.000 C 
ATOM      5  C   UNL     1      43.243   4.509  11.435  0.00  0.00    +0.000 C 
ATOM      6  C   UNL     1      43.302   4.856  12.927  0.00  0.00    +0.000 C 
ATOM      7  C   UNL     1      44.692   4.609  13.509  0.00  0.00    +0.000 C 
BRANCH   5   8
ATOM      8  C   UNL     1      43.343   2.989  11.162  0.00  0.00    +0.000 C 
BRANCH   8   9
ATOM      9  N   UNL     1      44.595   2.561  10.529  0.00  0.00    +0.000 NA
ATOM     10  H   UNL     1      45.063   1.861  11.102  0.00  0.00    +0.000 HD
BRANCH   9  11
ATOM     11  C   UNL     1      44.385   2.022   9.185  0.00  0.00    +0.000 C 
BRANCH  11  12
ATOM     12  C   UNL     1      45.583   2.249   8.311  0.00  0.00    +0.000 A 
ATOM     13  C   UNL     1      45.858   3.501   7.756  0.00  0.00    +0.000 A 
ATOM     14  C   UNL     1      46.970   3.657   6.936  0.00  0.00    +0.000 A 
ATOM     15  C   UNL     1      47.769   2.552   6.698  0.00  0.00    +0.000 A 
ATOM     16  N   UNL     1      47.540   1.328   7.216  0.00  0.00    +0.000 NA
ATOM     17  C   UNL     1      46.453   1.204   8.010  0.00  0.00    +0.000 A 
ENDBRANCH  11  12
ENDBRANCH   9  11
ENDBRANCH   8   9
ENDBRANCH   5   8
ENDBRANCH   1   2
BRANCH   1  20
ATOM     18  C   UNL     1      48.483   6.063  15.934  0.00  0.00    +0.000 C 
ATOM     19  C   UNL     1      47.541   4.884  15.894  0.00  0.00    +0.000 C 
ATOM     20  C   UNL     1      46.924   4.449  14.770  0.00  0.00    +0.000 C 
BRANCH  19  21
ATOM     21  C   UNL     1      47.390   4.223  17.255  0.00  0.00    +0.000 C 
ATOM     22  O   UNL     1      46.724   3.200  17.352  0.00  0.00    +0.000 OA
BRANCH  21  23
ATOM     23  C   UNL     1      48.103   4.811  18.395  0.00  0.00    +0.000 A 
ATOM     24  C   UNL     1      47.537   5.729  19.268  0.00  0.00    +0.000 A 
ATOM     25  S   UNL     1      48.574   6.194  20.537  0.00  0.00    +0.000 S 
ATOM     26  C   UNL     1      49.848   5.250  19.916  0.00  0.00    +0.000 A 
ATOM     27  N   UNL     1      51.042   5.193  20.562  0.00  0.00    +0.000 NA
ATOM     28  C   UNL     1      51.923   4.447  19.982  0.00  0.00    +0.000 A 
ATOM     29  N   UNL     1      51.720   3.770  18.808  0.00  0.00    +0.000 N 
ATOM     30  C   UNL     1      50.540   3.825  18.097  0.00  0.00    +0.000 A 
ATOM     31  O   UNL     1      50.444   3.246  17.022  0.00  0.00    +0.000 OA
ATOM     32  C   UNL     1      49.496   4.608  18.741  0.00  0.00    +0.000 A 
ATOM     33  H   UNL     1      52.459   3.229  18.386  0.00  0.00    +0.000 HD
ENDBRANCH  21  23
ENDBRANCH  19  21
ENDBRANCH   1  20
TORSDOF 8
ENDMDL
MODEL 6
REMARK VINA RESULT:    -7.941      2.617      3.263
REMARK INTER + INTRA:         -12.203
REMARK INTER:                 -11.476
REMARK INTRA:                  -0.727
REMARK UNBOUND:                -0.548
REMARK  Name = 
REMARK  9 active torsions:
REMARK  status: ('A' for Active; 'I' for Inactive)
REMARK    1  A    between atoms: C_1  and  C_2
REMARK    2  A    between atoms: C_2  and  C_20
REMARK    3  A    between atoms: C_3  and  C_4
REMARK    4  A    between atoms: C_4  and  N_5
REMARK    5  A    between atoms: C_8  and  C_9
REMARK    6  A    between atoms: C_9  and  N_10
REMARK    7  A    between atoms: N_10  and  C_11
REMARK    8  A    between atoms: C_11  and  C_12
REMARK    9  A    between atoms: C_20  and  C_22
REMARK                            x       y       z     vdW  Elec       q    Type
REMARK                         _______ _______ _______ _____ _____    ______ ____
ROOT
ATOM      1  C   UNL     1      46.993   5.699  13.259  0.00  0.00    +0.000 C 
ENDROOT
BRANCH   1   2
ATOM      2  N   UNL     1      45.670   5.054  13.307  0.00  0.00    +0.000 NA
ATOM      3  C   UNL     1      44.590   5.992  12.956  0.00  0.00    +0.000 C 
ATOM      4  C   UNL     1      43.224   5.309  12.929  0.00  0.00    +0.000 C 
ATOM      5  C   UNL     1      43.200   4.108  11.981  0.00  0.00    +0.000 C 
ATOM      6  C   UNL     1      44.341   3.162  12.372  0.00  0.00    +0.000 C 
ATOM      7  C   UNL     1      45.686   3.885  12.407  0.00  0.00    +0.000 C 
BRANCH   5   8
ATOM      8  C   UNL     1      43.262   4.554  10.500  0.00  0.00    +0.000 C 
BRANCH   8   9
ATOM      9  N   UNL     1      43.825   3.557   9.583  0.00  0.00    +0.000 NA
ATOM     10  H   UNL     1      43.083   3.101   9.054  0.00  0.00    +0.000 HD
BRANCH   9  11
ATOM     11  C   UNL     1      44.794   4.139   8.653  0.00  0.00    +0.000 C 
BRANCH  11  12
ATOM     12  C   UNL     1      45.698   3.090   8.077  0.00  0.00    +0.000 A 
ATOM     13  C   UNL     1      46.560   3.371   7.015  0.00  0.00    +0.000 A 
ATOM     14  C   UNL     1      47.365   2.360   6.501  0.00  0.00    +0.000 A 
ATOM     15  C   UNL     1      47.279   1.101   7.069  0.00  0.00    +0.000 A 
ATOM     16  N   UNL     1      46.461   0.790   8.097  0.00  0.00    +0.000 NA
ATOM     17  C   UNL     1      45.690   1.791   8.577  0.00  0.00    +0.000 A 
ENDBRANCH  11  12
ENDBRANCH   9  11
ENDBRANCH   8   9
ENDBRANCH   5   8
ENDBRANCH   1   2
BRANCH   1  20
ATOM     18  C   UNL     1      49.009   7.803  14.315  0.00  0.00    +0.000 C 
ATOM     19  C   UNL     1      48.608   6.548  15.050  0.00  0.00    +0.000 C 
ATOM     20  C   UNL     1      47.724   5.642  14.570  0.00  0.00    +0.000 C 
BRANCH  19  21
ATOM     21  C   UNL     1      49.332   6.405  16.379  0.00  0.00    +0.000 C 
ATOM     22  O   UNL     1      50.390   5.791  16.420  0.00  0.00    +0.000 OA
BRANCH  21  23
ATOM     23  C   UNL     1      48.757   7.066  17.557  0.00  0.00    +0.000 A 
ATOM     24  C   UNL     1      48.530   8.431  17.641  0.00  0.00    +0.000 A 
ATOM     25  S   UNL     1      47.793   8.914  19.100  0.00  0.00    +0.000 S 
ATOM     26  C   UNL     1      47.829   7.324  19.707  0.00  0.00    +0.000 A 
ATOM     27  N   UNL     1      47.318   7.043  20.935  0.00  0.00    +0.000 NA
ATOM     28  C   UNL     1      47.414   5.801  21.277  0.00  0.00    +0.000 A 
ATOM     29  N   UNL     1      47.990   4.823  20.510  0.00  0.00    +0.000 N 
ATOM     30  C   UNL     1      48.554   5.064  19.275  0.00  0.00    +0.000 A 
ATOM     31  O   UNL     1      49.109   4.157  18.667  0.00  0.00    +0.000 OA
ATOM     32  C   UNL     1      48.419   6.440  18.820  0.00  0.00    +0.000 A 
ATOM     33  H   UNL     1      48.066   3.876  20.847  0.00  0.00    +0.000 HD
ENDBRANCH  21  23
ENDBRANCH  19  21
ENDBRANCH   1  20
TORSDOF 8
ENDMDL
MODEL 7
REMARK VINA RESULT:    -7.698      2.159      3.702
REMARK INTER + INTRA:         -11.846
REMARK INTER:                 -10.685
REMARK INTRA:                  -1.161
REMARK UNBOUND:                -0.548
REMARK  Name = 
REMARK  9 active torsions:
REMARK  status: ('A' for Active; 'I' for Inactive)
REMARK    1  A    between atoms: C_1  and  C_2
REMARK    2  A    between atoms: C_2  and  C_20
REMARK    3  A    between atoms: C_3  and  C_4
REMARK    4  A    between atoms: C_4  and  N_5
REMARK    5  A    between atoms: C_8  and  C_9
REMARK    6  A    between atoms: C_9  and  N_10
REMARK    7  A    between atoms: N_10  and  C_11
REMARK    8  A    between atoms: C_11  and  C_12
REMARK    9  A    between atoms: C_20  and  C_22
REMARK                            x       y       z     vdW  Elec       q    Type
REMARK                         _______ _______ _______ _____ _____    ______ ____
ROOT
ATOM      1  C   UNL     1      49.638   8.037  14.751  0.00  0.00    +0.000 C 
ENDROOT
BRANCH   1   2
ATOM      2  N   UNL     1      48.709   8.140  13.613  0.00  0.00    +0.000 NA
ATOM      3  C   UNL     1      48.624   6.877  12.860  0.00  0.00    +0.000 C 
ATOM      4  C   UNL     1      47.605   6.955  11.725  0.00  0.00    +0.000 C 
ATOM      5  C   UNL     1      46.216   7.359  12.224  0.00  0.00    +0.000 C 
ATOM      6  C   UNL     1      46.349   8.670  13.009  0.00  0.00    +0.000 C 
ATOM      7  C   UNL     1      47.389   8.558  14.122  0.00  0.00    +0.000 C 
BRANCH   5   8
ATOM      8  C   UNL     1      45.558   6.224  13.046  0.00  0.00    +0.000 C 
BRANCH   8   9
ATOM      9  N   UNL     1      44.109   6.092  12.856  0.00  0.00    +0.000 NA
ATOM     10  H   UNL     1      43.614   6.810  13.383  0.00  0.00    +0.000 HD
BRANCH   9  11
ATOM     11  C   UNL     1      43.721   6.171  11.448  0.00  0.00    +0.000 C 
BRANCH  11  12
ATOM     12  C   UNL     1      44.075   4.914  10.710  0.00  0.00    +0.000 A 
ATOM     13  C   UNL     1      44.944   4.928   9.616  0.00  0.00    +0.000 A 
ATOM     14  C   UNL     1      45.226   3.740   8.952  0.00  0.00    +0.000 A 
ATOM     15  C   UNL     1      44.628   2.577   9.406  0.00  0.00    +0.000 A 
ATOM     16  N   UNL     1      43.786   2.521  10.458  0.00  0.00    +0.000 NA
ATOM     17  C   UNL     1      43.529   3.690  11.086  0.00  0.00    +0.000 A 
ENDBRANCH  11  12
ENDBRANCH   9  11
ENDBRANCH   8   9
ENDBRANCH   5   8
ENDBRANCH   1   2
BRANCH   1  20
ATOM     18  C   UNL     1      48.514   7.444  17.578  0.00  0.00    +0.000 C 
ATOM     19  C   UNL     1      49.115   6.413  16.655  0.00  0.00    +0.000 C 
ATOM     20  C   UNL     1      49.600   6.694  15.423  0.00  0.00    +0.000 C 
BRANCH  19  21
ATOM     21  C   UNL     1      49.138   5.027  17.280  0.00  0.00    +0.000 C 
ATOM     22  O   UNL     1      48.115   4.355  17.282  0.00  0.00    +0.000 OA
BRANCH  21  23
ATOM     23  C   UNL     1      50.414   4.526  17.806  0.00  0.00    +0.000 A 
ATOM     24  C   UNL     1      51.320   5.309  18.506  0.00  0.00    +0.000 A 
ATOM     25  S   UNL     1      52.686   4.450  19.054  0.00  0.00    +0.000 S 
ATOM     26  C   UNL     1      52.154   3.018  18.302  0.00  0.00    +0.000 A 
ATOM     27  N   UNL     1      52.880   1.873  18.409  0.00  0.00    +0.000 NA
ATOM     28  C   UNL     1      52.369   0.863  17.787  0.00  0.00    +0.000 A 
ATOM     29  N   UNL     1      51.210   0.901  17.057  0.00  0.00    +0.000 N 
ATOM     30  C   UNL     1      50.458   2.044  16.889  0.00  0.00    +0.000 A 
ATOM     31  O   UNL     1      49.466   2.026  16.173  0.00  0.00    +0.000 OA
ATOM     32  C   UNL     1      50.963   3.198  17.620  0.00  0.00    +0.000 A 
ATOM     33  H   UNL     1      50.879   0.085  16.565  0.00  0.00    +0.000 HD
ENDBRANCH  21  23
ENDBRANCH  19  21
ENDBRANCH   1  20
TORSDOF 8
ENDMDL
MODEL 8
REMARK VINA RESULT:    -7.683      1.787      2.672
REMARK INTER + INTRA:         -11.824
REMARK INTER:                 -10.781
REMARK INTRA:                  -1.043
REMARK UNBOUND:                -0.548
REMARK  Name = 
REMARK  9 active torsions:
REMARK  status: ('A' for Active; 'I' for Inactive)
REMARK    1  A    between atoms: C_1  and  C_2
REMARK    2  A    between atoms: C_2  and  C_20
REMARK    3  A    between atoms: C_3  and  C_4
REMARK    4  A    between atoms: C_4  and  N_5
REMARK    5  A    between atoms: C_8  and  C_9
REMARK    6  A    between atoms: C_9  and  N_10
REMARK    7  A    between atoms: N_10  and  C_11
REMARK    8  A    between atoms: C_11  and  C_12
REMARK    9  A    between atoms: C_20  and  C_22
REMARK                            x       y       z     vdW  Elec       q    Type
REMARK                         _______ _______ _______ _____ _____    ______ ____
ROOT
ATOM      1  C   UNL     1      46.817   5.763  13.214  0.00  0.00    +0.000 C 
ENDROOT
BRANCH   1   2
ATOM      2  N   UNL     1      45.464   5.750  12.631  0.00  0.00    +0.000 NA
ATOM      3  C   UNL     1      45.498   5.518  11.177  0.00  0.00    +0.000 C 
ATOM      4  C   UNL     1      44.096   5.427  10.579  0.00  0.00    +0.000 C 
ATOM      5  C   UNL     1      43.249   4.349  11.259  0.00  0.00    +0.000 C 
ATOM      6  C   UNL     1      43.246   4.619  12.769  0.00  0.00    +0.000 C 
ATOM      7  C   UNL     1      44.665   4.722  13.326  0.00  0.00    +0.000 C 
BRANCH   5   8
ATOM      8  C   UNL     1      43.745   2.927  10.898  0.00  0.00    +0.000 C 
BRANCH   8   9
ATOM      9  N   UNL     1      43.938   2.692   9.463  0.00  0.00    +0.000 NA
ATOM     10  H   UNL     1      44.182   3.560   8.990  0.00  0.00    +0.000 HD
BRANCH   9  11
ATOM     11  C   UNL     1      44.971   1.690   9.197  0.00  0.00    +0.000 C 
BRANCH  11  12
ATOM     12  C   UNL     1      45.896   2.134   8.103  0.00  0.00    +0.000 A 
ATOM     13  C   UNL     1      46.887   1.291   7.596  0.00  0.00    +0.000 A 
ATOM     14  C   UNL     1      47.734   1.755   6.596  0.00  0.00    +0.000 A 
ATOM     15  C   UNL     1      47.559   3.049   6.136  0.00  0.00    +0.000 A 
ATOM     16  N   UNL     1      46.613   3.893   6.598  0.00  0.00    +0.000 NA
ATOM     17  C   UNL     1      45.803   3.417   7.570  0.00  0.00    +0.000 A 
ENDBRANCH  11  12
ENDBRANCH   9  11
ENDBRANCH   8   9
ENDBRANCH   5   8
ENDBRANCH   1   2
BRANCH   1  20
ATOM     18  C   UNL     1      48.592   6.274  15.703  0.00  0.00    +0.000 C 
ATOM     19  C   UNL     1      47.725   5.056  15.497  0.00  0.00    +0.000 C 
ATOM     20  C   UNL     1      46.956   4.853  14.401  0.00  0.00    +0.000 C 
BRANCH  19  21
ATOM     21  C   UNL     1      47.836   4.070  16.649  0.00  0.00    +0.000 C 
ATOM     22  O   UNL     1      47.000   3.183  16.759  0.00  0.00    +0.000 OA
BRANCH  21  23
ATOM     23  C   UNL     1      48.984   4.190  17.555  0.00  0.00    +0.000 A 
ATOM     24  C   UNL     1      50.188   3.527  17.366  0.00  0.00    +0.000 A 
ATOM     25  S   UNL     1      51.367   3.901  18.537  0.00  0.00    +0.000 S 
ATOM     26  C   UNL     1      50.281   4.899  19.389  0.00  0.00    +0.000 A 
ATOM     27  N   UNL     1      50.683   5.555  20.510  0.00  0.00    +0.000 NA
ATOM     28  C   UNL     1      49.761   6.272  21.062  0.00  0.00    +0.000 A 
ATOM     29  N   UNL     1      48.475   6.377  20.604  0.00  0.00    +0.000 N 
ATOM     30  C   UNL     1      48.010   5.704  19.494  0.00  0.00    +0.000 A 
ATOM     31  O   UNL     1      46.831   5.791  19.172  0.00  0.00    +0.000 OA
ATOM     32  C   UNL     1      49.028   4.927  18.802  0.00  0.00    +0.000 A 
ATOM     33  H   UNL     1      47.790   6.927  21.098  0.00  0.00    +0.000 HD
ENDBRANCH  21  23
ENDBRANCH  19  21
ENDBRANCH   1  20
TORSDOF 8
ENDMDL
MODEL 9
REMARK VINA RESULT:    -7.667      4.212      5.278
REMARK INTER + INTRA:         -11.802
REMARK INTER:                 -10.604
REMARK INTRA:                  -1.198
REMARK UNBOUND:                -0.548
REMARK  Name = 
REMARK  9 active torsions:
REMARK  status: ('A' for Active; 'I' for Inactive)
REMARK    1  A    between atoms: C_1  and  C_2
REMARK    2  A    between atoms: C_2  and  C_20
REMARK    3  A    between atoms: C_3  and  C_4
REMARK    4  A    between atoms: C_4  and  N_5
REMARK    5  A    between atoms: C_8  and  C_9
REMARK    6  A    between atoms: C_9  and  N_10
REMARK    7  A    between atoms: N_10  and  C_11
REMARK    8  A    between atoms: C_11  and  C_12
REMARK    9  A    between atoms: C_20  and  C_22
REMARK                            x       y       z     vdW  Elec       q    Type
REMARK                         _______ _______ _______ _____ _____    ______ ____
ROOT
ATOM      1  C   UNL     1      46.809   4.655  13.838  0.00  0.00    +0.000 C 
ENDROOT
BRANCH   1   2
ATOM      2  N   UNL     1      45.415   4.311  13.507  0.00  0.00    +0.000 NA
ATOM      3  C   UNL     1      44.602   5.512  13.251  0.00  0.00    +0.000 C 
ATOM      4  C   UNL     1      43.176   5.159  12.832  0.00  0.00    +0.000 C 
ATOM      5  C   UNL     1      43.146   4.238  11.610  0.00  0.00    +0.000 C 
ATOM      6  C   UNL     1      44.010   3.008  11.913  0.00  0.00    +0.000 C 
ATOM      7  C   UNL     1      45.421   3.401  12.346  0.00  0.00    +0.000 C 
BRANCH   5   8
ATOM      8  C   UNL     1      43.584   4.985  10.327  0.00  0.00    +0.000 C 
BRANCH   8   9
ATOM      9  N   UNL     1      43.970   4.114   9.212  0.00  0.00    +0.000 NA
ATOM     10  H   UNL     1      43.286   4.173   8.459  0.00  0.00    +0.000 HD
BRANCH   9  11
ATOM     11  C   UNL     1      45.296   4.437   8.685  0.00  0.00    +0.000 C 
BRANCH  11  12
ATOM     12  C   UNL     1      45.984   3.217   8.146  0.00  0.00    +0.000 A 
ATOM     13  C   UNL     1      46.939   3.305   7.131  0.00  0.00    +0.000 A 
ATOM     14  C   UNL     1      47.535   2.145   6.650  0.00  0.00    +0.000 A 
ATOM     15  C   UNL     1      47.152   0.934   7.201  0.00  0.00    +0.000 A 
ATOM     16  N   UNL     1      46.235   0.807   8.183  0.00  0.00    +0.000 NA
ATOM     17  C   UNL     1      45.673   1.951   8.632  0.00  0.00    +0.000 A 
ENDBRANCH  11  12
ENDBRANCH   9  11
ENDBRANCH   8   9
ENDBRANCH   5   8
ENDBRANCH   1   2
BRANCH   1  20
ATOM     18  C   UNL     1      48.815   6.848  14.715  0.00  0.00    +0.000 C 
ATOM     19  C   UNL     1      48.250   6.703  13.323  0.00  0.00    +0.000 C 
ATOM     20  C   UNL     1      47.373   5.736  12.962  0.00  0.00    +0.000 C 
BRANCH  19  21
ATOM     21  C   UNL     1      48.754   7.785  12.382  0.00  0.00    +0.000 C 
ATOM     22  O   UNL     1      48.754   7.576  11.176  0.00  0.00    +0.000 OA
BRANCH  21  23
ATOM     23  C   UNL     1      49.170   9.069  12.961  0.00  0.00    +0.000 A 
ATOM     24  C   UNL     1      48.283  10.021  13.442  0.00  0.00    +0.000 A 
ATOM     25  S   UNL     1      49.045  11.387  14.117  0.00  0.00    +0.000 S 
ATOM     26  C   UNL     1      50.589  10.792  13.712  0.00  0.00    +0.000 A 
ATOM     27  N   UNL     1      51.706  11.495  14.040  0.00  0.00    +0.000 NA
ATOM     28  C   UNL     1      52.810  10.936  13.670  0.00  0.00    +0.000 A 
ATOM     29  N   UNL     1      52.894   9.750  12.990  0.00  0.00    +0.000 N 
ATOM     30  C   UNL     1      51.791   9.019  12.604  0.00  0.00    +0.000 A 
ATOM     31  O   UNL     1      51.932   7.998  11.942  0.00  0.00    +0.000 OA
ATOM     32  C   UNL     1      50.523   9.580  13.049  0.00  0.00    +0.000 A 
ATOM     33  H   UNL     1      53.786   9.380  12.698  0.00  0.00    +0.000 HD
ENDBRANCH  21  23
ENDBRANCH  19  21
ENDBRANCH   1  20
TORSDOF 8
ENDMDL
