MODEL 1
REMARK VINA RESULT:    -6.808      0.000      0.000
REMARK INTER + INTRA:         -11.339
REMARK INTER:                  -9.593
REMARK INTRA:                  -1.746
REMARK UNBOUND:                -1.746
REMARK  Name = 
REMARK  8 active torsions:
REMARK  status: ('A' for Active; 'I' for Inactive)
REMARK    1  A    between atoms: C_1  and  C_2
REMARK    2  A    between atoms: C_7  and  C_8
REMARK    3  A    between atoms: C_8  and  O_9
REMARK    4  A    between atoms: O_9  and  C_10
REMARK    5  A    between atoms: C_10  and  C_11
REMARK    6  A    between atoms: C_14  and  C_15
REMARK    7  A    between atoms: C_15  and  N_16
REMARK    8  A    between atoms: C_17  and  C_19
REMARK                            x       y       z     vdW  Elec       q    Type
REMARK                         _______ _______ _______ _____ _____    ______ ____
ROOT
ATOM      1  C   UNL     1      49.668   8.294  15.736  0.00  0.00    +0.000 A 
ATOM      2  C   UNL     1      50.322   7.684  14.657  0.00  0.00    +0.000 A 
ATOM      3  C   UNL     1      49.698   7.577  13.408  0.00  0.00    +0.000 A 
ATOM      4  C   UNL     1      48.410   8.091  13.210  0.00  0.00    +0.000 A 
ATOM      5  C   UNL     1      47.748   8.682  14.293  0.00  0.00    +0.000 A 
ATOM      6  C   UNL     1      48.372   8.789  15.540  0.00  0.00    +0.000 A 
ENDROOT
BRANCH   1   7
ATOM      7  C   UNL     1      50.323   8.376  17.092  0.00  0.00    +0.000 C 
BRANCH   7   8
ATOM      8  O   UNL     1      51.052   7.178  17.356  0.00  0.00    +0.000 OA
BRANCH   8   9
ATOM      9  C   UNL     1      50.299   6.268  18.159  0.00  0.00    +0.000 C 
BRANCH   9  16
ATOM     10  C   UNL     1      47.392   5.317  18.474  0.00  0.00    +0.000 C 
ATOM     11  C   UNL     1      48.131   5.300  17.130  0.00  0.00    +0.000 C 
ATOM     12  C   UNL     1      47.636   4.141  16.251  0.00  0.00    +0.000 C 
ATOM     13  C   UNL     1      48.152   2.795  16.748  0.00  0.00    +0.000 C 
ATOM     14  O   UNL     1      49.576   2.795  16.833  0.00  0.00    +0.000 OA
ATOM     15  C   UNL     1      50.079   3.792  17.721  0.00  0.00    +0.000 C 
ATOM     16  C   UNL     1      49.669   5.196  17.264  0.00  0.00    +0.000 C 
ENDBRANCH   9  16
ENDBRANCH   8   9
ENDBRANCH   7   8
ENDBRANCH   1   7
BRANCH   4  17
ATOM     17  C   UNL     1      47.725   7.987  11.870  0.00  0.00    +0.000 C 
BRANCH  17  18
ATOM     18  N   UNL     1      46.998   6.749  11.747  0.00  0.00    +0.000 N 
ATOM     19  C   UNL     1      45.628   6.720  11.817  0.00  0.00    +0.000 C 
ATOM     20  O   UNL     1      44.958   7.741  11.947  0.00  0.00    +0.000 OA
ATOM     21  H   UNL     1      47.523   5.892  11.877  0.00  0.00    +0.000 HD
BRANCH  19  22
ATOM     22  C   UNL     1      44.995   5.404  11.662  0.00  0.00    +0.000 A 
ATOM     23  C   UNL     1      44.306   4.841  12.729  0.00  0.00    +0.000 A 
ATOM     24  S   UNL     1      43.596   3.333  12.365  0.00  0.00    +0.000 S 
ATOM     25  C   UNL     1      44.228   3.356  10.783  0.00  0.00    +0.000 A 
ATOM     26  N   UNL     1      44.012   2.319   9.931  0.00  0.00    +0.000 NA
ATOM     27  C   UNL     1      44.574   2.453   8.775  0.00  0.00    +0.000 A 
ATOM     28  N   UNL     1      45.324   3.535   8.395  0.00  0.00    +0.000 N 
ATOM     29  C   UNL     1      45.543   4.618   9.212  0.00  0.00    +0.000 A 
ATOM     30  O   UNL     1      46.181   5.593   8.821  0.00  0.00    +0.000 OA
ATOM     31  C   UNL     1      44.949   4.509  10.530  0.00  0.00    +0.000 A 
ATOM     32  H   UNL     1      45.727   3.584   7.472  0.00  0.00    +0.000 HD
ENDBRANCH  19  22
ENDBRANCH  17  18
ENDBRANCH   4  17
TORSDOF 7
ENDMDL
MODEL 2
REMARK VINA RESULT:    -6.571      3.641      8.750
REMARK INTER + INTRA:         -11.006
REMARK INTER:                 -10.114
REMARK INTRA:                  -0.893
REMARK UNBOUND:                -1.746
REMARK  Name = 
REMARK  8 active torsions:
REMARK  status: ('A' for Active; 'I' for Inactive)
REMARK    1  A    between atoms: C_1  and  C_2
REMARK    2  A    between atoms: C_7  and  C_8
REMARK    3  A    between atoms: C_8  and  O_9
REMARK    4  A    between atoms: O_9  and  C_10
REMARK    5  A    between atoms: C_10  and  C_11
REMARK    6  A    between atoms: C_14  and  C_15
REMARK    7  A    between atoms: C_15  and  N_16
REMARK    8  A    between atoms: C_17  and  C_19
REMARK                            x       y       z     vdW  Elec       q    Type
REMARK                         _______ _______ _______ _____ _____    ______ ____
ROOT
ATOM      1  C   UNL     1      45.165   5.224  11.581  0.00  0.00    +0.000 A 
ATOM      2  C   UNL     1      45.483   6.533  11.191  0.00  0.00    +0.000 A 
ATOM      3  C   UNL     1      46.491   7.250  11.846  0.00  0.00    +0.000 A 
ATOM      4  C   UNL     1      47.212   6.667  12.897  0.00  0.00    +0.000 A 
ATOM      5  C   UNL     1      46.881   5.367  13.300  0.00  0.00    +0.000 A 
ATOM      6  C   UNL     1      45.874   4.651  12.645  0.00  0.00    +0.000 A 
ENDROOT
BRANCH   1   7
ATOM      7  C   UNL     1      44.053   4.463  10.902  0.00  0.00    +0.000 C 
BRANCH   7   8
ATOM      8  O   UNL     1      44.580   3.315  10.238  0.00  0.00    +0.000 OA
BRANCH   8   9
ATOM      9  C   UNL     1      45.123   3.648   8.960  0.00  0.00    +0.000 C 
BRANCH   9  16
ATOM     10  C   UNL     1      46.177   3.354   6.087  0.00  0.00    +0.000 C 
ATOM     11  C   UNL     1      47.011   2.984   7.320  0.00  0.00    +0.000 C 
ATOM     12  C   UNL     1      47.969   1.825   7.002  0.00  0.00    +0.000 C 
ATOM     13  C   UNL     1      47.230   0.496   6.889  0.00  0.00    +0.000 C 
ATOM     14  O   UNL     1      46.483   0.226   8.075  0.00  0.00    +0.000 OA
ATOM     15  C   UNL     1      45.506   1.227   8.355  0.00  0.00    +0.000 C 
ATOM     16  C   UNL     1      46.162   2.598   8.555  0.00  0.00    +0.000 C 
ENDBRANCH   9  16
ENDBRANCH   8   9
ENDBRANCH   7   8
ENDBRANCH   1   7
BRANCH   4  17
ATOM     17  C   UNL     1      48.304   7.425  13.610  0.00  0.00    +0.000 C 
BRANCH  17  18
ATOM     18  N   UNL     1      48.126   7.379  15.039  0.00  0.00    +0.000 N 
ATOM     19  C   UNL     1      49.123   6.926  15.865  0.00  0.00    +0.000 C 
ATOM     20  O   UNL     1      50.220   6.577  15.435  0.00  0.00    +0.000 OA
ATOM     21  H   UNL     1      47.175   7.432  15.388  0.00  0.00    +0.000 HD
BRANCH  19  22
ATOM     22  C   UNL     1      48.836   6.940  17.305  0.00  0.00    +0.000 A 
ATOM     23  C   UNL     1      48.515   8.137  17.933  0.00  0.00    +0.000 A 
ATOM     24  S   UNL     1      48.167   7.967  19.594  0.00  0.00    +0.000 S 
ATOM     25  C   UNL     1      48.485   6.294  19.544  0.00  0.00    +0.000 A 
ATOM     26  N   UNL     1      48.401   5.535  20.669  0.00  0.00    +0.000 NA
ATOM     27  C   UNL     1      48.697   4.289  20.494  0.00  0.00    +0.000 A 
ATOM     28  N   UNL     1      49.062   3.737  19.295  0.00  0.00    +0.000 N 
ATOM     29  C   UNL     1      49.132   4.459  18.128  0.00  0.00    +0.000 A 
ATOM     30  O   UNL     1      49.417   3.921  17.061  0.00  0.00    +0.000 OA
ATOM     31  C   UNL     1      48.827   5.869  18.273  0.00  0.00    +0.000 A 
ATOM     32  H   UNL     1      49.271   2.752  19.223  0.00  0.00    +0.000 HD
ENDBRANCH  19  22
ENDBRANCH  17  18
ENDBRANCH   4  17
TORSDOF 7
ENDMDL
MODEL 3
REMARK VINA RESULT:    -6.303      2.946      5.204
REMARK INTER + INTRA:         -10.628
REMARK INTER:                  -8.894
REMARK INTRA:                  -1.734
REMARK UNBOUND:                -1.746
REMARK  Name = 
REMARK  8 active torsions:
REMARK  status: ('A' for Active; 'I' for Inactive)
REMARK    1  A    between atoms: C_1  and  C_2
REMARK    2  A    between atoms: C_7  and  C_8
REMARK    3  A    between atoms: C_8  and  O_9
REMARK    4  A    between atoms: O_9  and  C_10
REMARK    5  A    between atoms: C_10  and  C_11
REMARK    6  A    between atoms: C_14  and  C_15
REMARK    7  A    between atoms: C_15  and  N_16
REMARK    8  A    between atoms: C_17  and  C_19
REMARK                            x       y       z     vdW  Elec       q    Type
REMARK                         _______ _______ _______ _____ _____    ______ ____
ROOT
ATOM      1  C   UNL     1      48.618   5.813  20.218  0.00  0.00    +0.000 A 
ATOM      2  C   UNL     1      47.331   6.037  19.709  0.00  0.00    +0.000 A 
ATOM      3  C   UNL     1      46.886   5.363  18.565  0.00  0.00    +0.000 A 
ATOM      4  C   UNL     1      47.716   4.441  17.914  0.00  0.00    +0.000 A 
ATOM      5  C   UNL     1      49.009   4.232  18.411  0.00  0.00    +0.000 A 
ATOM      6  C   UNL     1      49.452   4.905  19.553  0.00  0.00    +0.000 A 
ENDROOT
BRANCH   1   7
ATOM      7  C   UNL     1      49.113   6.566  21.428  0.00  0.00    +0.000 C 
BRANCH   7   8
ATOM      8  O   UNL     1      48.970   7.971  21.221  0.00  0.00    +0.000 OA
BRANCH   8   9
ATOM      9  C   UNL     1      49.929   8.468  20.289  0.00  0.00    +0.000 C 
BRANCH   9  16
ATOM     10  C   UNL     1      49.945   7.923  17.263  0.00  0.00    +0.000 C 
ATOM     11  C   UNL     1      48.803   8.666  17.968  0.00  0.00    +0.000 C 
ATOM     12  C   UNL     1      48.166   9.704  17.029  0.00  0.00    +0.000 C 
ATOM     13  C   UNL     1      49.068  10.918  16.836  0.00  0.00    +0.000 C 
ATOM     14  O   UNL     1      49.404  11.508  18.091  0.00  0.00    +0.000 OA
ATOM     15  C   UNL     1      50.091  10.609  18.961  0.00  0.00    +0.000 C 
ATOM     16  C   UNL     1      49.233   9.378  19.273  0.00  0.00    +0.000 C 
ENDBRANCH   9  16
ENDBRANCH   8   9
ENDBRANCH   7   8
ENDBRANCH   1   7
BRANCH   4  17
ATOM     17  C   UNL     1      47.250   3.704  16.683  0.00  0.00    +0.000 C 
BRANCH  17  18
ATOM     18  N   UNL     1      46.690   4.608  15.711  0.00  0.00    +0.000 N 
ATOM     19  C   UNL     1      46.734   4.326  14.370  0.00  0.00    +0.000 C 
ATOM     20  O   UNL     1      47.213   3.280  13.937  0.00  0.00    +0.000 OA
ATOM     21  H   UNL     1      46.511   5.559  16.016  0.00  0.00    +0.000 HD
BRANCH  19  22
ATOM     22  C   UNL     1      46.117   5.313  13.474  0.00  0.00    +0.000 A 
ATOM     23  C   UNL     1      46.811   6.468  13.139  0.00  0.00    +0.000 A 
ATOM     24  S   UNL     1      45.969   7.482  12.057  0.00  0.00    +0.000 S 
ATOM     25  C   UNL     1      44.623   6.437  12.039  0.00  0.00    +0.000 A 
ATOM     26  N   UNL     1      43.514   6.742  11.316  0.00  0.00    +0.000 NA
ATOM     27  C   UNL     1      42.558   5.877  11.417  0.00  0.00    +0.000 A 
ATOM     28  N   UNL     1      42.619   4.734  12.170  0.00  0.00    +0.000 N 
ATOM     29  C   UNL     1      43.730   4.372  12.892  0.00  0.00    +0.000 A 
ATOM     30  O   UNL     1      43.767   3.315  13.518  0.00  0.00    +0.000 OA
ATOM     31  C   UNL     1      44.826   5.319  12.828  0.00  0.00    +0.000 A 
ATOM     32  H   UNL     1      41.840   4.094  12.197  0.00  0.00    +0.000 HD
ENDBRANCH  19  22
ENDBRANCH  17  18
ENDBRANCH   4  17
TORSDOF 7
ENDMDL
MODEL 4
REMARK VINA RESULT:    -6.296      3.174      8.096
REMARK INTER + INTRA:         -10.618
REMARK INTER:                  -9.604
REMARK INTRA:                  -1.014
REMARK UNBOUND:                -1.746
REMARK  Name = 
REMARK  8 active torsions:
REMARK  status: ('A' for Active; 'I' for Inactive)
REMARK    1  A    between atoms: C_1  and  C_2
REMARK    2  A    between atoms: C_7  and  C_8
REMARK    3  A    between atoms: C_8  and  O_9
REMARK    4  A    between atoms: O_9  and  C_10
REMARK    5  A    between atoms: C_10  and  C_11
REMARK    6  A    between atoms: C_14  and  C_15
REMARK    7  A    between atoms: C_15  and  N_16
REMARK    8  A    between atoms: C_17  and  C_19
REMARK                            x       y       z     vdW  Elec       q    Type
REMARK                         _______ _______ _______ _____ _____    ______ ____
ROOT
ATOM      1  C   UNL     1      44.376   6.142  12.238  0.00  0.00    +0.000 A 
ATOM      2  C   UNL     1      45.361   5.405  12.910  0.00  0.00    +0.000 A 
ATOM      3  C   UNL     1      46.641   5.935  13.110  0.00  0.00    +0.000 A 
ATOM      4  C   UNL     1      46.959   7.221  12.652  0.00  0.00    +0.000 A 
ATOM      5  C   UNL     1      45.981   7.950  11.963  0.00  0.00    +0.000 A 
ATOM      6  C   UNL     1      44.703   7.419  11.763  0.00  0.00    +0.000 A 
ENDROOT
BRANCH   1   7
ATOM      7  C   UNL     1      43.008   5.557  11.987  0.00  0.00    +0.000 C 
BRANCH   7   8
ATOM      8  O   UNL     1      42.893   5.149  10.625  0.00  0.00    +0.000 OA
BRANCH   8   9
ATOM      9  C   UNL     1      43.669   3.982  10.356  0.00  0.00    +0.000 C 
BRANCH   9  16
ATOM     10  C   UNL     1      45.342   1.752   9.060  0.00  0.00    +0.000 C 
ATOM     11  C   UNL     1      44.678   2.871   8.248  0.00  0.00    +0.000 C 
ATOM     12  C   UNL     1      45.510   3.206   6.999  0.00  0.00    +0.000 C 
ATOM     13  C   UNL     1      46.775   3.978   7.354  0.00  0.00    +0.000 C 
ATOM     14  O   UNL     1      46.462   5.162   8.086  0.00  0.00    +0.000 OA
ATOM     15  C   UNL     1      45.778   4.892   9.309  0.00  0.00    +0.000 C 
ATOM     16  C   UNL     1      44.449   4.174   9.052  0.00  0.00    +0.000 C 
ENDBRANCH   9  16
ENDBRANCH   8   9
ENDBRANCH   7   8
ENDBRANCH   1   7
BRANCH   4  17
ATOM     17  C   UNL     1      48.331   7.808  12.863  0.00  0.00    +0.000 C 
BRANCH  17  18
ATOM     18  N   UNL     1      49.079   7.057  13.839  0.00  0.00    +0.000 N 
ATOM     19  C   UNL     1      49.107   7.434  15.158  0.00  0.00    +0.000 C 
ATOM     20  O   UNL     1      48.470   8.398  15.575  0.00  0.00    +0.000 OA
ATOM     21  H   UNL     1      49.784   6.418  13.487  0.00  0.00    +0.000 HD
BRANCH  19  22
ATOM     22  C   UNL     1      49.888   6.583  16.064  0.00  0.00    +0.000 A 
ATOM     23  C   UNL     1      51.199   6.925  16.372  0.00  0.00    +0.000 A 
ATOM     24  S   UNL     1      51.945   5.855  17.471  0.00  0.00    +0.000 S 
ATOM     25  C   UNL     1      50.559   4.867  17.534  0.00  0.00    +0.000 A 
ATOM     26  N   UNL     1      50.543   3.735  18.287  0.00  0.00    +0.000 NA
ATOM     27  C   UNL     1      49.440   3.066  18.219  0.00  0.00    +0.000 A 
ATOM     28  N   UNL     1      48.352   3.432  17.472  0.00  0.00    +0.000 N 
ATOM     29  C   UNL     1      48.312   4.582  16.720  0.00  0.00    +0.000 A 
ATOM     30  O   UNL     1      47.301   4.904  16.100  0.00  0.00    +0.000 OA
ATOM     31  C   UNL     1      49.534   5.362  16.747  0.00  0.00    +0.000 A 
ATOM     32  H   UNL     1      47.515   2.869  17.471  0.00  0.00    +0.000 HD
ENDBRANCH  19  22
ENDBRANCH  17  18
ENDBRANCH   4  17
TORSDOF 7
ENDMDL
MODEL 5
REMARK VINA RESULT:    -6.253      3.048      4.772
REMARK INTER + INTRA:         -10.559
REMARK INTER:                  -8.995
REMARK INTRA:                  -1.564
REMARK UNBOUND:                -1.746
REMARK  Name = 
REMARK  8 active torsions:
REMARK  status: ('A' for Active; 'I' for Inactive)
REMARK    1  A    between atoms: C_1  and  C_2
REMARK    2  A    between atoms: C_7  and  C_8
REMARK    3  A    between atoms: C_8  and  O_9
REMARK    4  A    between atoms: O_9  and  C_10
REMARK    5  A    between atoms: C_10  and  C_11
REMARK    6  A    between atoms: C_14  and  C_15
REMARK    7  A    between atoms: C_15  and  N_16
REMARK    8  A    between atoms: C_17  and  C_19
REMARK                            x       y       z     vdW  Elec       q    Type
REMARK                         _______ _______ _______ _____ _____    ______ ____
ROOT
ATOM      1  C   UNL     1      49.655   5.989  19.663  0.00  0.00    +0.000 A 
ATOM      2  C   UNL     1      49.266   6.611  18.469  0.00  0.00    +0.000 A 
ATOM      3  C   UNL     1      48.550   5.907  17.494  0.00  0.00    +0.000 A 
ATOM      4  C   UNL     1      48.195   4.567  17.701  0.00  0.00    +0.000 A 
ATOM      5  C   UNL     1      48.600   3.939  18.886  0.00  0.00    +0.000 A 
ATOM      6  C   UNL     1      49.317   4.644  19.858  0.00  0.00    +0.000 A 
ENDROOT
BRANCH   1   7
ATOM      7  C   UNL     1      50.461   6.735  20.698  0.00  0.00    +0.000 C 
BRANCH   7   8
ATOM      8  O   UNL     1      51.715   6.085  20.902  0.00  0.00    +0.000 OA
BRANCH   8   9
ATOM      9  C   UNL     1      52.635   6.370  19.848  0.00  0.00    +0.000 C 
BRANCH   9  16
ATOM     10  C   UNL     1      52.118   4.585  17.399  0.00  0.00    +0.000 C 
ATOM     11  C   UNL     1      53.504   4.738  18.037  0.00  0.00    +0.000 C 
ATOM     12  C   UNL     1      54.322   3.446  17.882  0.00  0.00    +0.000 C 
ATOM     13  C   UNL     1      53.824   2.348  18.814  0.00  0.00    +0.000 C 
ATOM     14  O   UNL     1      53.827   2.789  20.171  0.00  0.00    +0.000 OA
ATOM     15  C   UNL     1      52.996   3.930  20.385  0.00  0.00    +0.000 C 
ATOM     16  C   UNL     1      53.462   5.118  19.537  0.00  0.00    +0.000 C 
ENDBRANCH   9  16
ENDBRANCH   8   9
ENDBRANCH   7   8
ENDBRANCH   1   7
BRANCH   4  17
ATOM     17  C   UNL     1      47.419   3.795  16.663  0.00  0.00    +0.000 C 
BRANCH  17  18
ATOM     18  N   UNL     1      46.867   4.672  15.662  0.00  0.00    +0.000 N 
ATOM     19  C   UNL     1      46.822   4.303  14.341  0.00  0.00    +0.000 C 
ATOM     20  O   UNL     1      47.211   3.203  13.956  0.00  0.00    +0.000 OA
ATOM     21  H   UNL     1      46.765   5.650  15.911  0.00  0.00    +0.000 HD
BRANCH  19  22
ATOM     22  C   UNL     1      46.223   5.271  13.413  0.00  0.00    +0.000 A 
ATOM     23  C   UNL     1      46.935   6.405  13.044  0.00  0.00    +0.000 A 
ATOM     24  S   UNL     1      46.111   7.397  11.928  0.00  0.00    +0.000 S 
ATOM     25  C   UNL     1      44.751   6.372  11.938  0.00  0.00    +0.000 A 
ATOM     26  N   UNL     1      43.648   6.670  11.202  0.00  0.00    +0.000 NA
ATOM     27  C   UNL     1      42.680   5.823  11.326  0.00  0.00    +0.000 A 
ATOM     28  N   UNL     1      42.721   4.704  12.115  0.00  0.00    +0.000 N 
ATOM     29  C   UNL     1      43.825   4.348  12.852  0.00  0.00    +0.000 A 
ATOM     30  O   UNL     1      43.843   3.311  13.511  0.00  0.00    +0.000 OA
ATOM     31  C   UNL     1      44.935   5.276  12.762  0.00  0.00    +0.000 A 
ATOM     32  H   UNL     1      41.933   4.076  12.159  0.00  0.00    +0.000 HD
ENDBRANCH  19  22
ENDBRANCH  17  18
ENDBRANCH   4  17
TORSDOF 7
ENDMDL
MODEL 6
REMARK VINA RESULT:    -6.046      3.240      8.479
REMARK INTER + INTRA:         -10.266
REMARK INTER:                  -9.194
REMARK INTRA:                  -1.072
REMARK UNBOUND:                -1.746
REMARK  Name = 
REMARK  8 active torsions:
REMARK  status: ('A' for Active; 'I' for Inactive)
REMARK    1  A    between atoms: C_1  and  C_2
REMARK    2  A    between atoms: C_7  and  C_8
REMARK    3  A    between atoms: C_8  and  O_9
REMARK    4  A    between atoms: O_9  and  C_10
REMARK    5  A    between atoms: C_10  and  C_11
REMARK    6  A    between atoms: C_14  and  C_15
REMARK    7  A    between atoms: C_15  and  N_16
REMARK    8  A    between atoms: C_17  and  C_19
REMARK                            x       y       z     vdW  Elec       q    Type
REMARK                         _______ _______ _______ _____ _____    ______ ____
ROOT
ATOM      1  C   UNL     1      44.362   6.144  12.370  0.00  0.00    +0.000 A 
ATOM      2  C   UNL     1      45.223   5.307  13.094  0.00  0.00    +0.000 A 
ATOM      3  C   UNL     1      46.532   5.708  13.388  0.00  0.00    +0.000 A 
ATOM      4  C   UNL     1      47.002   6.962  12.976  0.00  0.00    +0.000 A 
ATOM      5  C   UNL     1      46.149   7.790  12.235  0.00  0.00    +0.000 A 
ATOM      6  C   UNL     1      44.842   7.389  11.941  0.00  0.00    +0.000 A 
ENDROOT
BRANCH   1   7
ATOM      7  C   UNL     1      42.965   5.698  12.018  0.00  0.00    +0.000 C 
BRANCH   7   8
ATOM      8  O   UNL     1      42.904   5.317  10.644  0.00  0.00    +0.000 OA
BRANCH   8   9
ATOM      9  C   UNL     1      43.642   4.121  10.395  0.00  0.00    +0.000 C 
BRANCH   9  16
ATOM     10  C   UNL     1      45.230   1.813   9.130  0.00  0.00    +0.000 C 
ATOM     11  C   UNL     1      44.608   2.944   8.303  0.00  0.00    +0.000 C 
ATOM     12  C   UNL     1      45.451   3.230   7.049  0.00  0.00    +0.000 C 
ATOM     13  C   UNL     1      46.744   3.960   7.393  0.00  0.00    +0.000 C 
ATOM     14  O   UNL     1      46.476   5.164   8.109  0.00  0.00    +0.000 OA
ATOM     15  C   UNL     1      45.783   4.938   9.336  0.00  0.00    +0.000 C 
ATOM     16  C   UNL     1      44.428   4.266   9.088  0.00  0.00    +0.000 C 
ENDBRANCH   9  16
ENDBRANCH   8   9
ENDBRANCH   7   8
ENDBRANCH   1   7
BRANCH   4  17
ATOM     17  C   UNL     1      48.407   7.411  13.289  0.00  0.00    +0.000 C 
BRANCH  17  18
ATOM     18  N   UNL     1      48.948   6.695  14.417  0.00  0.00    +0.000 N 
ATOM     19  C   UNL     1      48.881   7.213  15.685  0.00  0.00    +0.000 C 
ATOM     20  O   UNL     1      48.328   8.283  15.926  0.00  0.00    +0.000 OA
ATOM     21  H   UNL     1      49.601   5.946  14.217  0.00  0.00    +0.000 HD
BRANCH  19  22
ATOM     22  C   UNL     1      49.449   6.387  16.758  0.00  0.00    +0.000 A 
ATOM     23  C   UNL     1      48.607   5.784  17.684  0.00  0.00    +0.000 A 
ATOM     24  S   UNL     1      49.427   4.827  18.833  0.00  0.00    +0.000 S 
ATOM     25  C   UNL     1      50.943   5.228  18.166  0.00  0.00    +0.000 A 
ATOM     26  N   UNL     1      52.093   4.753  18.713  0.00  0.00    +0.000 NA
ATOM     27  C   UNL     1      53.170   5.161  18.126  0.00  0.00    +0.000 A 
ATOM     28  N   UNL     1      53.196   5.993  17.038  0.00  0.00    +0.000 N 
ATOM     29  C   UNL     1      52.058   6.472  16.435  0.00  0.00    +0.000 A 
ATOM     30  O   UNL     1      52.119   7.178  15.430  0.00  0.00    +0.000 OA
ATOM     31  C   UNL     1      50.821   6.059  17.067  0.00  0.00    +0.000 A 
ATOM     32  H   UNL     1      54.072   6.265  16.619  0.00  0.00    +0.000 HD
ENDBRANCH  19  22
ENDBRANCH  17  18
ENDBRANCH   4  17
TORSDOF 7
ENDMDL
MODEL 7
REMARK VINA RESULT:    -5.989      4.180      9.987
REMARK INTER + INTRA:         -10.186
REMARK INTER:                  -9.373
REMARK INTRA:                  -0.814
REMARK UNBOUND:                -1.746
REMARK  Name = 
REMARK  8 active torsions:
REMARK  status: ('A' for Active; 'I' for Inactive)
REMARK    1  A    between atoms: C_1  and  C_2
REMARK    2  A    between atoms: C_7  and  C_8
REMARK    3  A    between atoms: C_8  and  O_9
REMARK    4  A    between atoms: O_9  and  C_10
REMARK    5  A    between atoms: C_10  and  C_11
REMARK    6  A    between atoms: C_14  and  C_15
REMARK    7  A    between atoms: C_15  and  N_16
REMARK    8  A    between atoms: C_17  and  C_19
REMARK                            x       y       z     vdW  Elec       q    Type
REMARK                         _______ _______ _______ _____ _____    ______ ____
ROOT
ATOM      1  C   UNL     1      45.513   3.544   8.124  0.00  0.00    +0.000 A 
ATOM      2  C   UNL     1      45.080   2.387   8.787  0.00  0.00    +0.000 A 
ATOM      3  C   UNL     1      44.735   2.425  10.142  0.00  0.00    +0.000 A 
ATOM      4  C   UNL     1      44.802   3.625  10.861  0.00  0.00    +0.000 A 
ATOM      5  C   UNL     1      45.253   4.778  10.205  0.00  0.00    +0.000 A 
ATOM      6  C   UNL     1      45.598   4.739   8.850  0.00  0.00    +0.000 A 
ENDROOT
BRANCH   1   7
ATOM      7  C   UNL     1      45.923   3.497   6.673  0.00  0.00    +0.000 C 
BRANCH   7   8
ATOM      8  O   UNL     1      46.630   2.287   6.403  0.00  0.00    +0.000 OA
BRANCH   8   9
ATOM      9  C   UNL     1      47.133   2.257   5.067  0.00  0.00    +0.000 C 
BRANCH   9  16
ATOM     10  C   UNL     1      45.491   0.890   2.857  0.00  0.00    +0.000 C 
ATOM     11  C   UNL     1      46.938   0.499   3.179  0.00  0.00    +0.000 C 
ATOM     12  C   UNL     1      47.173  -0.996   2.904  0.00  0.00    +0.000 C 
ATOM     13  C   UNL     1      46.518  -1.874   3.964  0.00  0.00    +0.000 C 
ATOM     14  O   UNL     1      46.970  -1.522   5.270  0.00  0.00    +0.000 OA
ATOM     15  C   UNL     1      46.681  -0.166   5.611  0.00  0.00    +0.000 C 
ATOM     16  C   UNL     1      47.358   0.804   4.637  0.00  0.00    +0.000 C 
ENDBRANCH   9  16
ENDBRANCH   8   9
ENDBRANCH   7   8
ENDBRANCH   1   7
BRANCH   4  17
ATOM     17  C   UNL     1      44.429   3.684  12.321  0.00  0.00    +0.000 C 
BRANCH  17  18
ATOM     18  N   UNL     1      45.310   4.560  13.052  0.00  0.00    +0.000 N 
ATOM     19  C   UNL     1      46.438   4.081  13.668  0.00  0.00    +0.000 C 
ATOM     20  O   UNL     1      46.771   2.901  13.596  0.00  0.00    +0.000 OA
ATOM     21  H   UNL     1      44.941   5.465  13.321  0.00  0.00    +0.000 HD
BRANCH  19  22
ATOM     22  C   UNL     1      47.268   5.068  14.370  0.00  0.00    +0.000 A 
ATOM     23  C   UNL     1      47.823   6.128  13.664  0.00  0.00    +0.000 A 
ATOM     24  S   UNL     1      48.721   7.203  14.638  0.00  0.00    +0.000 S 
ATOM     25  C   UNL     1      48.443   6.260  16.029  0.00  0.00    +0.000 A 
ATOM     26  N   UNL     1      48.976   6.614  17.229  0.00  0.00    +0.000 NA
ATOM     27  C   UNL     1      48.711   5.794  18.192  0.00  0.00    +0.000 A 
ATOM     28  N   UNL     1      47.955   4.659  18.062  0.00  0.00    +0.000 N 
ATOM     29  C   UNL     1      47.374   4.278  16.876  0.00  0.00    +0.000 A 
ATOM     30  O   UNL     1      46.663   3.278  16.808  0.00  0.00    +0.000 OA
ATOM     31  C   UNL     1      47.656   5.156  15.757  0.00  0.00    +0.000 A 
ATOM     32  H   UNL     1      47.777   4.065  18.858  0.00  0.00    +0.000 HD
ENDBRANCH  19  22
ENDBRANCH  17  18
ENDBRANCH   4  17
TORSDOF 7
ENDMDL
MODEL 8
REMARK VINA RESULT:    -5.922      3.989      8.012
REMARK INTER + INTRA:         -10.092
REMARK INTER:                  -8.834
REMARK INTRA:                  -1.258
REMARK UNBOUND:                -1.746
REMARK  Name = 
REMARK  8 active torsions:
REMARK  status: ('A' for Active; 'I' for Inactive)
REMARK    1  A    between atoms: C_1  and  C_2
REMARK    2  A    between atoms: C_7  and  C_8
REMARK    3  A    between atoms: C_8  and  O_9
REMARK    4  A    between atoms: O_9  and  C_10
REMARK    5  A    between atoms: C_10  and  C_11
REMARK    6  A    between atoms: C_14  and  C_15
REMARK    7  A    between atoms: C_15  and  N_16
REMARK    8  A    between atoms: C_17  and  C_19
REMARK                            x       y       z     vdW  Elec       q    Type
REMARK                         _______ _______ _______ _____ _____    ______ ____
ROOT
ATOM      1  C   UNL     1      47.953   7.795  13.335  0.00  0.00    +0.000 A 
ATOM      2  C   UNL     1      47.703   8.910  14.147  0.00  0.00    +0.000 A 
ATOM      3  C   UNL     1      48.133   8.937  15.479  0.00  0.00    +0.000 A 
ATOM      4  C   UNL     1      48.834   7.853  16.023  0.00  0.00    +0.000 A 
ATOM      5  C   UNL     1      49.067   6.730  15.218  0.00  0.00    +0.000 A 
ATOM      6  C   UNL     1      48.637   6.704  13.887  0.00  0.00    +0.000 A 
ENDROOT
BRANCH   1   7
ATOM      7  C   UNL     1      47.457   7.748  11.911  0.00  0.00    +0.000 C 
BRANCH   7   8
ATOM      8  O   UNL     1      46.104   7.293  11.879  0.00  0.00    +0.000 OA
BRANCH   8   9
ATOM      9  C   UNL     1      45.921   6.250  10.921  0.00  0.00    +0.000 C 
BRANCH   9  16
ATOM     10  C   UNL     1      45.997   4.226  13.234  0.00  0.00    +0.000 C 
ATOM     11  C   UNL     1      44.714   4.948  12.804  0.00  0.00    +0.000 C 
ATOM     12  C   UNL     1      43.482   4.062  13.047  0.00  0.00    +0.000 C 
ATOM     13  C   UNL     1      43.391   2.929  12.031  0.00  0.00    +0.000 C 
ATOM     14  O   UNL     1      43.393   3.438  10.698  0.00  0.00    +0.000 OA
ATOM     15  C   UNL     1      44.571   4.184  10.391  0.00  0.00    +0.000 C 
ATOM     16  C   UNL     1      44.716   5.393  11.321  0.00  0.00    +0.000 C 
ENDBRANCH   9  16
ENDBRANCH   8   9
ENDBRANCH   7   8
ENDBRANCH   1   7
BRANCH   4  17
ATOM     17  C   UNL     1      49.308   7.868  17.454  0.00  0.00    +0.000 C 
BRANCH  17  18
ATOM     18  N   UNL     1      50.299   6.848  17.690  0.00  0.00    +0.000 N 
ATOM     19  C   UNL     1      50.090   5.855  18.613  0.00  0.00    +0.000 C 
ATOM     20  O   UNL     1      49.044   5.764  19.250  0.00  0.00    +0.000 OA
ATOM     21  H   UNL     1      51.239   7.035  17.361  0.00  0.00    +0.000 HD
BRANCH  19  22
ATOM     22  C   UNL     1      51.162   4.861  18.755  0.00  0.00    +0.000 A 
ATOM     23  C   UNL     1      52.286   5.163  19.514  0.00  0.00    +0.000 A 
ATOM     24  S   UNL     1      53.410   3.884  19.611  0.00  0.00    +0.000 S 
ATOM     25  C   UNL     1      52.457   2.898  18.599  0.00  0.00    +0.000 A 
ATOM     26  N   UNL     1      52.873   1.652  18.248  0.00  0.00    +0.000 NA
ATOM     27  C   UNL     1      52.068   1.028  17.452  0.00  0.00    +0.000 A 
ATOM     28  N   UNL     1      50.885   1.536  16.984  0.00  0.00    +0.000 N 
ATOM     29  C   UNL     1      50.413   2.777  17.336  0.00  0.00    +0.000 A 
ATOM     30  O   UNL     1      49.324   3.181  16.935  0.00  0.00    +0.000 OA
ATOM     31  C   UNL     1      51.288   3.529  18.214  0.00  0.00    +0.000 A 
ATOM     32  H   UNL     1      50.297   0.990  16.373  0.00  0.00    +0.000 HD
ENDBRANCH  19  22
ENDBRANCH  17  18
ENDBRANCH   4  17
TORSDOF 7
ENDMDL
MODEL 9
REMARK VINA RESULT:    -5.830      4.236      6.348
REMARK INTER + INTRA:          -9.962
REMARK INTER:                  -8.857
REMARK INTRA:                  -1.105
REMARK UNBOUND:                -1.746
REMARK  Name = 
REMARK  8 active torsions:
REMARK  status: ('A' for Active; 'I' for Inactive)
REMARK    1  A    between atoms: C_1  and  C_2
REMARK    2  A    between atoms: C_7  and  C_8
REMARK    3  A    between atoms: C_8  and  O_9
REMARK    4  A    between atoms: O_9  and  C_10
REMARK    5  A    between atoms: C_10  and  C_11
REMARK    6  A    between atoms: C_14  and  C_15
REMARK    7  A    between atoms: C_15  and  N_16
REMARK    8  A    between atoms: C_17  and  C_19
REMARK                            x       y       z     vdW  Elec       q    Type
REMARK                         _______ _______ _______ _____ _____    ______ ____
ROOT
ATOM      1  C   UNL     1      50.805   8.966  11.146  0.00  0.00    +0.000 A 
ATOM      2  C   UNL     1      50.294   7.685  11.392  0.00  0.00    +0.000 A 
ATOM      3  C   UNL     1      48.955   7.506  11.759  0.00  0.00    +0.000 A 
ATOM      4  C   UNL     1      48.095   8.606  11.873  0.00  0.00    +0.000 A 
ATOM      5  C   UNL     1      48.610   9.889  11.648  0.00  0.00    +0.000 A 
ATOM      6  C   UNL     1      49.948  10.067  11.282  0.00  0.00    +0.000 A 
ENDROOT
BRANCH   1   7
ATOM      7  C   UNL     1      52.257   9.165  10.789  0.00  0.00    +0.000 C 
BRANCH   7   8
ATOM      8  O   UNL     1      52.393   9.355   9.381  0.00  0.00    +0.000 OA
BRANCH   8   9
ATOM      9  C   UNL     1      53.689   8.971   8.919  0.00  0.00    +0.000 C 
BRANCH   9  16
ATOM     10  C   UNL     1      53.718   5.946   9.466  0.00  0.00    +0.000 C 
ATOM     11  C   UNL     1      52.960   6.570   8.287  0.00  0.00    +0.000 C 
ATOM     12  C   UNL     1      52.923   5.605   7.091  0.00  0.00    +0.000 C 
ATOM     13  C   UNL     1      54.277   5.514   6.398  0.00  0.00    +0.000 C 
ATOM     14  O   UNL     1      54.732   6.805   5.993  0.00  0.00    +0.000 OA
ATOM     15  C   UNL     1      54.881   7.708   7.088  0.00  0.00    +0.000 C 
ATOM     16  C   UNL     1      53.548   7.921   7.813  0.00  0.00    +0.000 C 
ENDBRANCH   9  16
ENDBRANCH   8   9
ENDBRANCH   7   8
ENDBRANCH   1   7
BRANCH   4  17
ATOM     17  C   UNL     1      46.649   8.430  12.263  0.00  0.00    +0.000 C 
BRANCH  17  18
ATOM     18  N   UNL     1      46.211   7.073  12.055  0.00  0.00    +0.000 N 
ATOM     19  C   UNL     1      44.943   6.795  11.613  0.00  0.00    +0.000 C 
ATOM     20  O   UNL     1      44.137   7.681  11.338  0.00  0.00    +0.000 OA
ATOM     21  H   UNL     1      46.759   6.340  12.492  0.00  0.00    +0.000 HD
BRANCH  19  22
ATOM     22  C   UNL     1      44.613   5.377  11.421  0.00  0.00    +0.000 A 
ATOM     23  C   UNL     1      43.903   4.696  12.401  0.00  0.00    +0.000 A 
ATOM     24  S   UNL     1      43.568   3.072  12.000  0.00  0.00    +0.000 S 
ATOM     25  C   UNL     1      44.408   3.208  10.523  0.00  0.00    +0.000 A 
ATOM     26  N   UNL     1      44.530   2.140   9.691  0.00  0.00    +0.000 NA
ATOM     27  C   UNL     1      45.217   2.375   8.621  0.00  0.00    +0.000 A 
ATOM     28  N   UNL     1      45.783   3.583   8.309  0.00  0.00    +0.000 N 
ATOM     29  C   UNL     1      45.660   4.695   9.106  0.00  0.00    +0.000 A 
ATOM     30  O   UNL     1      46.141   5.775   8.771  0.00  0.00    +0.000 OA
ATOM     31  C   UNL     1      44.913   4.480  10.330  0.00  0.00    +0.000 A 
ATOM     32  H   UNL     1      46.299   3.703   7.451  0.00  0.00    +0.000 HD
ENDBRANCH  19  22
ENDBRANCH  17  18
ENDBRANCH   4  17
TORSDOF 7
ENDMDL
