MODEL 1
REMARK VINA RESULT:    -8.130      0.000      0.000
REMARK INTER + INTRA:         -10.200
REMARK INTER:                 -10.032
REMARK INTRA:                  -0.168
REMARK UNBOUND:                -0.168
REMARK  Name = 
REMARK  4 active torsions:
REMARK  status: ('A' for Active; 'I' for Inactive)
REMARK    1  A    between atoms: C_5  and  N_6
REMARK    2  A    between atoms: N_6  and  C_7
REMARK    3  A    between atoms: C_7  and  C_8
REMARK    4  A    between atoms: C_12  and  C_13
REMARK                            x       y       z     vdW  Elec       q    Type
REMARK                         _______ _______ _______ _____ _____    ______ ____
ROOT
ATOM      1  C   UNL     1      43.919   4.879  11.058  0.00  0.00    +0.000 C 
ATOM      2  C   UNL     1      43.160   3.942  11.995  0.00  0.00    +0.000 C 
ATOM      3  C   UNL     1      42.678   5.337  11.807  0.00  0.00    +0.000 C 
ENDROOT
BRANCH   1   4
ATOM      4  C   UNL     1      45.272   5.398  11.560  0.00  0.00    +0.000 A 
ATOM      5  C   UNL     1      45.895   6.512  10.981  0.00  0.00    +0.000 A 
ATOM      6  C   UNL     1      47.026   7.088  11.555  0.00  0.00    +0.000 A 
ATOM      7  C   UNL     1      47.546   6.573  12.743  0.00  0.00    +0.000 A 
ATOM      8  C   UNL     1      46.972   5.449  13.352  0.00  0.00    +0.000 A 
ATOM      9  C   UNL     1      45.880   4.844  12.707  0.00  0.00    +0.000 A 
BRANCH   8  10
ATOM     10  C   UNL     1      47.417   4.981  14.676  0.00  0.00    +0.000 A 
ATOM     11  C   UNL     1      47.043   3.748  15.195  0.00  0.00    +0.000 A 
ATOM     12  N   UNL     1      47.474   3.235  16.366  0.00  0.00    +0.000 NA
ATOM     13  C   UNL     1      48.337   4.002  17.049  0.00  0.00    +0.000 A 
ATOM     14  N   UNL     1      48.781   5.207  16.669  0.00  0.00    +0.000 NA
ATOM     15  C   UNL     1      48.306   5.663  15.489  0.00  0.00    +0.000 A 
ENDBRANCH   8  10
ENDBRANCH   1   4
BRANCH   1  16
ATOM     16  N   UNL     1      43.849   4.592   9.616  0.00  0.00    +0.000 N 
ATOM     17  H   UNL     1      42.934   4.387   9.221  0.00  0.00    +0.000 HD
BRANCH  16  22
ATOM     18 CL   UNL     1      47.662   1.191   6.835  0.00  0.00    +0.000 Cl
ATOM     19  C   UNL     1      46.565   2.203   7.673  0.00  0.00    +0.000 A 
ATOM     20  C   UNL     1      46.445   3.553   7.392  0.00  0.00    +0.000 A 
ATOM     21  N   UNL     1      45.554   4.358   8.030  0.00  0.00    +0.000 NA
ATOM     22  C   UNL     1      44.776   3.767   8.964  0.00  0.00    +0.000 A 
ATOM     23  C   UNL     1      44.942   2.407   9.247  0.00  0.00    +0.000 A 
ATOM     24  N   UNL     1      45.822   1.591   8.609  0.00  0.00    +0.000 NA
ENDBRANCH  16  22
ENDBRANCH   1  16
TORSDOF 4
ENDMDL
MODEL 2
REMARK VINA RESULT:    -7.601      2.853      4.279
REMARK INTER + INTRA:          -9.546
REMARK INTER:                  -9.560
REMARK INTRA:                   0.014
REMARK UNBOUND:                -0.168
REMARK  Name = 
REMARK  4 active torsions:
REMARK  status: ('A' for Active; 'I' for Inactive)
REMARK    1  A    between atoms: C_5  and  N_6
REMARK    2  A    between atoms: N_6  and  C_7
REMARK    3  A    between atoms: C_7  and  C_8
REMARK    4  A    between atoms: C_12  and  C_13
REMARK                            x       y       z     vdW  Elec       q    Type
REMARK                         _______ _______ _______ _____ _____    ______ ____
ROOT
ATOM      1  C   UNL     1      43.814   5.038  11.035  0.00  0.00    +0.000 C 
ATOM      2  C   UNL     1      43.268   3.827  11.788  0.00  0.00    +0.000 C 
ATOM      3  C   UNL     1      42.442   5.061  11.691  0.00  0.00    +0.000 C 
ENDROOT
BRANCH   1   4
ATOM      4  C   UNL     1      44.934   5.824  11.727  0.00  0.00    +0.000 A 
ATOM      5  C   UNL     1      46.126   5.207  12.132  0.00  0.00    +0.000 A 
ATOM      6  C   UNL     1      47.208   5.956  12.590  0.00  0.00    +0.000 A 
ATOM      7  C   UNL     1      47.128   7.347  12.629  0.00  0.00    +0.000 A 
ATOM      8  C   UNL     1      45.953   8.013  12.253  0.00  0.00    +0.000 A 
ATOM      9  C   UNL     1      44.853   7.225  11.871  0.00  0.00    +0.000 A 
BRANCH   8  10
ATOM     10  C   UNL     1      45.900   9.481  12.151  0.00  0.00    +0.000 A 
ATOM     11  C   UNL     1      47.044  10.267  12.104  0.00  0.00    +0.000 A 
ATOM     12  N   UNL     1      47.060  11.606  11.940  0.00  0.00    +0.000 NA
ATOM     13  C   UNL     1      45.858  12.186  11.807  0.00  0.00    +0.000 A 
ATOM     14  N   UNL     1      44.678  11.553  11.833  0.00  0.00    +0.000 NA
ATOM     15  C   UNL     1      44.733  10.213  12.006  0.00  0.00    +0.000 A 
ENDBRANCH   8  10
ENDBRANCH   1   4
BRANCH   1  16
ATOM     16  N   UNL     1      43.933   4.925   9.572  0.00  0.00    +0.000 N 
ATOM     17  H   UNL     1      43.071   4.900   9.030  0.00  0.00    +0.000 HD
BRANCH  16  22
ATOM     18 CL   UNL     1      47.657   1.323   6.927  0.00  0.00    +0.000 Cl
ATOM     19  C   UNL     1      46.585   2.391   7.727  0.00  0.00    +0.000 A 
ATOM     20  C   UNL     1      46.586   3.754   7.485  0.00  0.00    +0.000 A 
ATOM     21  N   UNL     1      45.717   4.607   8.092  0.00  0.00    +0.000 NA
ATOM     22  C   UNL     1      44.837   4.050   8.953  0.00  0.00    +0.000 A 
ATOM     23  C   UNL     1      44.881   2.674   9.199  0.00  0.00    +0.000 A 
ATOM     24  N   UNL     1      45.738   1.811   8.591  0.00  0.00    +0.000 NA
ENDBRANCH  16  22
ENDBRANCH   1  16
TORSDOF 4
ENDMDL
MODEL 3
REMARK VINA RESULT:    -7.245      1.749      2.389
REMARK INTER + INTRA:          -9.106
REMARK INTER:                  -8.691
REMARK INTRA:                  -0.416
REMARK UNBOUND:                -0.168
REMARK  Name = 
REMARK  4 active torsions:
REMARK  status: ('A' for Active; 'I' for Inactive)
REMARK    1  A    between atoms: C_5  and  N_6
REMARK    2  A    between atoms: N_6  and  C_7
REMARK    3  A    between atoms: C_7  and  C_8
REMARK    4  A    between atoms: C_12  and  C_13
REMARK                            x       y       z     vdW  Elec       q    Type
REMARK                         _______ _______ _______ _____ _____    ______ ____
ROOT
ATOM      1  C   UNL     1      44.017   5.235  11.937  0.00  0.00    +0.000 C 
ATOM      2  C   UNL     1      42.911   5.128  12.986  0.00  0.00    +0.000 C 
ATOM      3  C   UNL     1      42.561   5.502  11.589  0.00  0.00    +0.000 C 
ENDROOT
BRANCH   1   4
ATOM      4  C   UNL     1      44.946   6.449  12.045  0.00  0.00    +0.000 A 
ATOM      5  C   UNL     1      44.560   7.716  11.586  0.00  0.00    +0.000 A 
ATOM      6  C   UNL     1      45.329   8.847  11.852  0.00  0.00    +0.000 A 
ATOM      7  C   UNL     1      46.495   8.737  12.609  0.00  0.00    +0.000 A 
ATOM      8  C   UNL     1      46.936   7.491  13.075  0.00  0.00    +0.000 A 
ATOM      9  C   UNL     1      46.180   6.359  12.724  0.00  0.00    +0.000 A 
BRANCH   8  10
ATOM     10  C   UNL     1      48.082   7.375  13.992  0.00  0.00    +0.000 A 
ATOM     11  C   UNL     1      48.232   6.306  14.866  0.00  0.00    +0.000 A 
ATOM     12  N   UNL     1      49.291   6.108  15.678  0.00  0.00    +0.000 NA
ATOM     13  C   UNL     1      50.259   7.033  15.598  0.00  0.00    +0.000 A 
ATOM     14  N   UNL     1      50.247   8.111  14.803  0.00  0.00    +0.000 NA
ATOM     15  C   UNL     1      49.154   8.251  14.021  0.00  0.00    +0.000 A 
ENDBRANCH   8  10
ENDBRANCH   1   4
BRANCH   1  16
ATOM     16  N   UNL     1      44.662   3.983  11.507  0.00  0.00    +0.000 N 
ATOM     17  H   UNL     1      45.371   3.585  12.118  0.00  0.00    +0.000 HD
BRANCH  16  22
ATOM     18 CL   UNL     1      46.467   3.023   6.061  0.00  0.00    +0.000 Cl
ATOM     19  C   UNL     1      45.904   3.302   7.653  0.00  0.00    +0.000 A 
ATOM     20  C   UNL     1      45.537   2.268   8.497  0.00  0.00    +0.000 A 
ATOM     21  N   UNL     1      45.119   2.478   9.775  0.00  0.00    +0.000 NA
ATOM     22  C   UNL     1      45.082   3.764  10.188  0.00  0.00    +0.000 A 
ATOM     23  C   UNL     1      45.431   4.789   9.302  0.00  0.00    +0.000 A 
ATOM     24  N   UNL     1      45.859   4.590   8.027  0.00  0.00    +0.000 NA
ENDBRANCH  16  22
ENDBRANCH   1  16
TORSDOF 4
ENDMDL
MODEL 4
REMARK VINA RESULT:    -7.187      2.751      6.938
REMARK INTER + INTRA:          -9.035
REMARK INTER:                  -8.564
REMARK INTRA:                  -0.471
REMARK UNBOUND:                -0.168
REMARK  Name = 
REMARK  4 active torsions:
REMARK  status: ('A' for Active; 'I' for Inactive)
REMARK    1  A    between atoms: C_5  and  N_6
REMARK    2  A    between atoms: N_6  and  C_7
REMARK    3  A    between atoms: C_7  and  C_8
REMARK    4  A    between atoms: C_12  and  C_13
REMARK                            x       y       z     vdW  Elec       q    Type
REMARK                         _______ _______ _______ _____ _____    ______ ____
ROOT
ATOM      1  C   UNL     1      46.423   7.194  12.549  0.00  0.00    +0.000 C 
ATOM      2  C   UNL     1      46.570   8.580  11.925  0.00  0.00    +0.000 C 
ATOM      3  C   UNL     1      45.857   8.434  13.222  0.00  0.00    +0.000 C 
ENDROOT
BRANCH   1   4
ATOM      4  C   UNL     1      45.425   6.244  11.877  0.00  0.00    +0.000 A 
ATOM      5  C   UNL     1      44.043   6.371  12.070  0.00  0.00    +0.000 A 
ATOM      6  C   UNL     1      43.136   5.627  11.317  0.00  0.00    +0.000 A 
ATOM      7  C   UNL     1      43.598   4.753  10.333  0.00  0.00    +0.000 A 
ATOM      8  C   UNL     1      44.970   4.575  10.113  0.00  0.00    +0.000 A 
ATOM      9  C   UNL     1      45.859   5.281  10.942  0.00  0.00    +0.000 A 
BRANCH   8  10
ATOM     10  C   UNL     1      45.471   3.769   8.987  0.00  0.00    +0.000 A 
ATOM     11  C   UNL     1      45.987   4.342   7.832  0.00  0.00    +0.000 A 
ATOM     12  N   UNL     1      46.524   3.660   6.799  0.00  0.00    +0.000 NA
ATOM     13  C   UNL     1      46.551   2.326   6.940  0.00  0.00    +0.000 A 
ATOM     14  N   UNL     1      46.090   1.642   7.996  0.00  0.00    +0.000 NA
ATOM     15  C   UNL     1      45.561   2.387   8.992  0.00  0.00    +0.000 A 
ENDBRANCH   8  10
ENDBRANCH   1   4
BRANCH   1  16
ATOM     16  N   UNL     1      47.644   6.559  13.075  0.00  0.00    +0.000 N 
ATOM     17  H   UNL     1      48.262   6.104  12.408  0.00  0.00    +0.000 HD
BRANCH  16  22
ATOM     18 CL   UNL     1      47.742   3.318  17.905  0.00  0.00    +0.000 Cl
ATOM     19  C   UNL     1      47.692   4.293  16.500  0.00  0.00    +0.000 A 
ATOM     20  C   UNL     1      48.464   5.434  16.366  0.00  0.00    +0.000 A 
ATOM     21  N   UNL     1      48.455   6.198  15.240  0.00  0.00    +0.000 NA
ATOM     22  C   UNL     1      47.647   5.780  14.241  0.00  0.00    +0.000 A 
ATOM     23  C   UNL     1      46.856   4.639  14.417  0.00  0.00    +0.000 A 
ATOM     24  N   UNL     1      46.865   3.864  15.534  0.00  0.00    +0.000 NA
ENDBRANCH  16  22
ENDBRANCH   1  16
TORSDOF 4
ENDMDL
MODEL 5
REMARK VINA RESULT:    -6.840      3.941      7.122
REMARK INTER + INTRA:          -8.607
REMARK INTER:                  -7.919
REMARK INTRA:                  -0.688
REMARK UNBOUND:                -0.168
REMARK  Name = 
REMARK  4 active torsions:
REMARK  status: ('A' for Active; 'I' for Inactive)
REMARK    1  A    between atoms: C_5  and  N_6
REMARK    2  A    between atoms: N_6  and  C_7
REMARK    3  A    between atoms: C_7  and  C_8
REMARK    4  A    between atoms: C_12  and  C_13
REMARK                            x       y       z     vdW  Elec       q    Type
REMARK                         _______ _______ _______ _____ _____    ______ ____
ROOT
ATOM      1  C   UNL     1      45.940   7.710  12.667  0.00  0.00    +0.000 C 
ATOM      2  C   UNL     1      47.154   7.553  13.580  0.00  0.00    +0.000 C 
ATOM      3  C   UNL     1      47.358   7.863  12.140  0.00  0.00    +0.000 C 
ENDROOT
BRANCH   1   4
ATOM      4  C   UNL     1      45.190   6.425  12.300  0.00  0.00    +0.000 A 
ATOM      5  C   UNL     1      43.961   6.094  12.887  0.00  0.00    +0.000 A 
ATOM      6  C   UNL     1      43.200   5.026  12.419  0.00  0.00    +0.000 A 
ATOM      7  C   UNL     1      43.644   4.276  11.330  0.00  0.00    +0.000 A 
ATOM      8  C   UNL     1      44.874   4.552  10.719  0.00  0.00    +0.000 A 
ATOM      9  C   UNL     1      45.655   5.586  11.264  0.00  0.00    +0.000 A 
BRANCH   8  10
ATOM     10  C   UNL     1      45.290   3.867   9.484  0.00  0.00    +0.000 A 
ATOM     11  C   UNL     1      45.783   4.552   8.381  0.00  0.00    +0.000 A 
ATOM     12  N   UNL     1      46.245   3.977   7.251  0.00  0.00    +0.000 NA
ATOM     13  C   UNL     1      46.219   2.636   7.234  0.00  0.00    +0.000 A 
ATOM     14  N   UNL     1      45.772   1.850   8.223  0.00  0.00    +0.000 NA
ATOM     15  C   UNL     1      45.319   2.491   9.323  0.00  0.00    +0.000 A 
ENDBRANCH   8  10
ENDBRANCH   1   4
BRANCH   1  16
ATOM     16  N   UNL     1      45.094   8.899  12.869  0.00  0.00    +0.000 N 
ATOM     17  H   UNL     1      44.249   8.787  13.424  0.00  0.00    +0.000 HD
BRANCH  16  22
ATOM     18 CL   UNL     1      43.863  12.562   8.521  0.00  0.00    +0.000 Cl
ATOM     19  C   UNL     1      44.199  11.497   9.817  0.00  0.00    +0.000 A 
ATOM     20  C   UNL     1      43.513  10.307   9.992  0.00  0.00    +0.000 A 
ATOM     21  N   UNL     1      43.794   9.439  11.000  0.00  0.00    +0.000 NA
ATOM     22  C   UNL     1      44.795   9.797  11.835  0.00  0.00    +0.000 A 
ATOM     23  C   UNL     1      45.450  11.019  11.651  0.00  0.00    +0.000 A 
ATOM     24  N   UNL     1      45.183  11.890  10.641  0.00  0.00    +0.000 NA
ENDBRANCH  16  22
ENDBRANCH   1  16
TORSDOF 4
ENDMDL
MODEL 6
REMARK VINA RESULT:    -6.502      3.484      7.697
REMARK INTER + INTRA:          -8.190
REMARK INTER:                  -7.568
REMARK INTRA:                  -0.622
REMARK UNBOUND:                -0.168
REMARK  Name = 
REMARK  4 active torsions:
REMARK  status: ('A' for Active; 'I' for Inactive)
REMARK    1  A    between atoms: C_5  and  N_6
REMARK    2  A    between atoms: N_6  and  C_7
REMARK    3  A    between atoms: C_7  and  C_8
REMARK    4  A    between atoms: C_12  and  C_13
REMARK                            x       y       z     vdW  Elec       q    Type
REMARK                         _______ _______ _______ _____ _____    ______ ____
ROOT
ATOM      1  C   UNL     1      49.079   7.918  12.690  0.00  0.00    +0.000 C 
ATOM      2  C   UNL     1      49.894   8.223  11.435  0.00  0.00    +0.000 C 
ATOM      3  C   UNL     1      49.621   9.311  12.411  0.00  0.00    +0.000 C 
ENDROOT
BRANCH   1   4
ATOM      4  C   UNL     1      47.575   7.698  12.492  0.00  0.00    +0.000 A 
ATOM      5  C   UNL     1      46.633   8.669  12.857  0.00  0.00    +0.000 A 
ATOM      6  C   UNL     1      45.290   8.542  12.508  0.00  0.00    +0.000 A 
ATOM      7  C   UNL     1      44.864   7.445  11.760  0.00  0.00    +0.000 A 
ATOM      8  C   UNL     1      45.761   6.436  11.386  0.00  0.00    +0.000 A 
ATOM      9  C   UNL     1      47.093   6.554  11.820  0.00  0.00    +0.000 A 
BRANCH   8  10
ATOM     10  C   UNL     1      45.360   5.348  10.478  0.00  0.00    +0.000 A 
ATOM     11  C   UNL     1      45.768   5.296   9.151  0.00  0.00    +0.000 A 
ATOM     12  N   UNL     1      45.493   4.292   8.293  0.00  0.00    +0.000 NA
ATOM     13  C   UNL     1      44.775   3.280   8.800  0.00  0.00    +0.000 A 
ATOM     14  N   UNL     1      44.316   3.199  10.056  0.00  0.00    +0.000 NA
ATOM     15  C   UNL     1      44.623   4.240  10.862  0.00  0.00    +0.000 A 
ENDBRANCH   8  10
ENDBRANCH   1   4
BRANCH   1  16
ATOM     16  N   UNL     1      49.712   7.070  13.715  0.00  0.00    +0.000 N 
ATOM     17  H   UNL     1      49.929   6.109  13.462  0.00  0.00    +0.000 HD
BRANCH  16  22
ATOM     18 CL   UNL     1      47.898   6.992  19.242  0.00  0.00    +0.000 Cl
ATOM     19  C   UNL     1      48.463   7.007  17.626  0.00  0.00    +0.000 A 
ATOM     20  C   UNL     1      48.620   5.846  16.889  0.00  0.00    +0.000 A 
ATOM     21  N   UNL     1      49.038   5.850  15.595  0.00  0.00    +0.000 NA
ATOM     22  C   UNL     1      49.292   7.062  15.052  0.00  0.00    +0.000 A 
ATOM     23  C   UNL     1      49.152   8.215  15.832  0.00  0.00    +0.000 A 
ATOM     24  N   UNL     1      48.726   8.223  17.123  0.00  0.00    +0.000 NA
ENDBRANCH  16  22
ENDBRANCH   1  16
TORSDOF 4
ENDMDL
MODEL 7
REMARK VINA RESULT:    -6.240      3.048      4.664
REMARK INTER + INTRA:          -7.867
REMARK INTER:                  -7.278
REMARK INTRA:                  -0.589
REMARK UNBOUND:                -0.168
REMARK  Name = 
REMARK  4 active torsions:
REMARK  status: ('A' for Active; 'I' for Inactive)
REMARK    1  A    between atoms: C_5  and  N_6
REMARK    2  A    between atoms: N_6  and  C_7
REMARK    3  A    between atoms: C_7  and  C_8
REMARK    4  A    between atoms: C_12  and  C_13
REMARK                            x       y       z     vdW  Elec       q    Type
REMARK                         _______ _______ _______ _____ _____    ______ ____
ROOT
ATOM      1  C   UNL     1      47.316   7.929  13.051  0.00  0.00    +0.000 C 
ATOM      2  C   UNL     1      47.853   8.913  12.014  0.00  0.00    +0.000 C 
ATOM      3  C   UNL     1      48.110   7.458  11.843  0.00  0.00    +0.000 C 
ENDROOT
BRANCH   1   4
ATOM      4  C   UNL     1      48.028   7.911  14.409  0.00  0.00    +0.000 A 
ATOM      5  C   UNL     1      48.082   9.047  15.228  0.00  0.00    +0.000 A 
ATOM      6  C   UNL     1      48.566   8.976  16.533  0.00  0.00    +0.000 A 
ATOM      7  C   UNL     1      48.988   7.753  17.055  0.00  0.00    +0.000 A 
ATOM      8  C   UNL     1      48.974   6.592  16.271  0.00  0.00    +0.000 A 
ATOM      9  C   UNL     1      48.553   6.712  14.936  0.00  0.00    +0.000 A 
BRANCH   8  10
ATOM     10  C   UNL     1      49.279   5.271  16.848  0.00  0.00    +0.000 A 
ATOM     11  C   UNL     1      48.368   4.223  16.831  0.00  0.00    +0.000 A 
ATOM     12  N   UNL     1      48.613   2.974  17.278  0.00  0.00    +0.000 NA
ATOM     13  C   UNL     1      49.847   2.765  17.761  0.00  0.00    +0.000 A 
ATOM     14  N   UNL     1      50.821   3.682  17.839  0.00  0.00    +0.000 NA
ATOM     15  C   UNL     1      50.507   4.913  17.378  0.00  0.00    +0.000 A 
ENDBRANCH   8  10
ENDBRANCH   1   4
BRANCH   1  16
ATOM     16  N   UNL     1      45.858   7.731  13.100  0.00  0.00    +0.000 N 
ATOM     17  H   UNL     1      45.357   8.112  13.900  0.00  0.00    +0.000 HD
BRANCH  16  22
ATOM     18 CL   UNL     1      43.263   2.697  11.768  0.00  0.00    +0.000 Cl
ATOM     19  C   UNL     1      44.048   4.173  12.135  0.00  0.00    +0.000 A 
ATOM     20  C   UNL     1      43.790   5.340  11.435  0.00  0.00    +0.000 A 
ATOM     21  N   UNL     1      44.385   6.524  11.739  0.00  0.00    +0.000 NA
ATOM     22  C   UNL     1      45.251   6.509  12.777  0.00  0.00    +0.000 A 
ATOM     23  C   UNL     1      45.514   5.308  13.446  0.00  0.00    +0.000 A 
ATOM     24  N   UNL     1      44.917   4.121  13.156  0.00  0.00    +0.000 NA
ENDBRANCH  16  22
ENDBRANCH   1  16
TORSDOF 4
ENDMDL
MODEL 8
REMARK VINA RESULT:    -6.226      1.774      2.681
REMARK INTER + INTRA:          -7.849
REMARK INTER:                  -7.509
REMARK INTRA:                  -0.341
REMARK UNBOUND:                -0.168
REMARK  Name = 
REMARK  4 active torsions:
REMARK  status: ('A' for Active; 'I' for Inactive)
REMARK    1  A    between atoms: C_5  and  N_6
REMARK    2  A    between atoms: N_6  and  C_7
REMARK    3  A    between atoms: C_7  and  C_8
REMARK    4  A    between atoms: C_12  and  C_13
REMARK                            x       y       z     vdW  Elec       q    Type
REMARK                         _______ _______ _______ _____ _____    ______ ____
ROOT
ATOM      1  C   UNL     1      44.993   7.756  11.965  0.00  0.00    +0.000 C 
ATOM      2  C   UNL     1      44.615   9.146  12.474  0.00  0.00    +0.000 C 
ATOM      3  C   UNL     1      44.970   8.964  11.041  0.00  0.00    +0.000 C 
ENDROOT
BRANCH   1   4
ATOM      4  C   UNL     1      46.366   7.224  12.389  0.00  0.00    +0.000 A 
ATOM      5  C   UNL     1      47.550   7.684  11.797  0.00  0.00    +0.000 A 
ATOM      6  C   UNL     1      48.798   7.335  12.309  0.00  0.00    +0.000 A 
ATOM      7  C   UNL     1      48.887   6.533  13.447  0.00  0.00    +0.000 A 
ATOM      8  C   UNL     1      47.734   6.031  14.066  0.00  0.00    +0.000 A 
ATOM      9  C   UNL     1      46.494   6.337  13.479  0.00  0.00    +0.000 A 
BRANCH   8  10
ATOM     10  C   UNL     1      47.802   5.305  15.346  0.00  0.00    +0.000 A 
ATOM     11  C   UNL     1      47.156   4.093  15.550  0.00  0.00    +0.000 A 
ATOM     12  N   UNL     1      47.238   3.349  16.672  0.00  0.00    +0.000 NA
ATOM     13  C   UNL     1      48.023   3.847  17.639  0.00  0.00    +0.000 A 
ATOM     14  N   UNL     1      48.703   4.999  17.578  0.00  0.00    +0.000 NA
ATOM     15  C   UNL     1      48.572   5.698  16.428  0.00  0.00    +0.000 A 
ENDBRANCH   8  10
ENDBRANCH   1   4
BRANCH   1  16
ATOM     16  N   UNL     1      43.920   6.750  11.893  0.00  0.00    +0.000 N 
ATOM     17  H   UNL     1      43.388   6.568  12.741  0.00  0.00    +0.000 HD
BRANCH  16  22
ATOM     18 CL   UNL     1      44.553   1.702   9.073  0.00  0.00    +0.000 Cl
ATOM     19  C   UNL     1      44.395   3.181   9.919  0.00  0.00    +0.000 A 
ATOM     20  C   UNL     1      45.087   4.321   9.547  0.00  0.00    +0.000 A 
ATOM     21  N   UNL     1      44.944   5.509  10.194  0.00  0.00    +0.000 NA
ATOM     22  C   UNL     1      44.078   5.525  11.231  0.00  0.00    +0.000 A 
ATOM     23  C   UNL     1      43.416   4.349  11.602  0.00  0.00    +0.000 A 
ATOM     24  N   UNL     1      43.545   3.159  10.957  0.00  0.00    +0.000 NA
ENDBRANCH  16  22
ENDBRANCH   1  16
TORSDOF 4
ENDMDL
MODEL 9
REMARK VINA RESULT:    -5.950      3.326      7.768
REMARK INTER + INTRA:          -7.509
REMARK INTER:                  -7.619
REMARK INTRA:                   0.110
REMARK UNBOUND:                -0.168
REMARK  Name = 
REMARK  4 active torsions:
REMARK  status: ('A' for Active; 'I' for Inactive)
REMARK    1  A    between atoms: C_5  and  N_6
REMARK    2  A    between atoms: N_6  and  C_7
REMARK    3  A    between atoms: C_7  and  C_8
REMARK    4  A    between atoms: C_12  and  C_13
REMARK                            x       y       z     vdW  Elec       q    Type
REMARK                         _______ _______ _______ _____ _____    ______ ____
ROOT
ATOM      1  C   UNL     1      48.243   4.610  17.032  0.00  0.00    +0.000 C 
ATOM      2  C   UNL     1      47.073   4.574  18.013  0.00  0.00    +0.000 C 
ATOM      3  C   UNL     1      47.404   3.357  17.224  0.00  0.00    +0.000 C 
ENDROOT
BRANCH   1   4
ATOM      4  C   UNL     1      48.028   5.407  15.740  0.00  0.00    +0.000 A 
ATOM      5  C   UNL     1      48.883   6.453  15.367  0.00  0.00    +0.000 A 
ATOM      6  C   UNL     1      48.793   7.049  14.111  0.00  0.00    +0.000 A 
ATOM      7  C   UNL     1      47.854   6.590  13.187  0.00  0.00    +0.000 A 
ATOM      8  C   UNL     1      46.961   5.561  13.516  0.00  0.00    +0.000 A 
ATOM      9  C   UNL     1      47.027   5.035  14.818  0.00  0.00    +0.000 A 
BRANCH   8  10
ATOM     10  C   UNL     1      46.063   4.970  12.510  0.00  0.00    +0.000 A 
ATOM     11  C   UNL     1      45.798   5.588  11.294  0.00  0.00    +0.000 A 
ATOM     12  N   UNL     1      45.043   5.064  10.306  0.00  0.00    +0.000 NA
ATOM     13  C   UNL     1      44.535   3.848  10.550  0.00  0.00    +0.000 A 
ATOM     14  N   UNL     1      44.709   3.139  11.674  0.00  0.00    +0.000 NA
ATOM     15  C   UNL     1      45.471   3.724  12.625  0.00  0.00    +0.000 A 
ENDBRANCH   8  10
ENDBRANCH   1   4
BRANCH   1  16
ATOM     16  N   UNL     1      49.599   4.687  17.602  0.00  0.00    +0.000 N 
ATOM     17  H   UNL     1      50.145   5.523  17.407  0.00  0.00    +0.000 HD
BRANCH  16  22
ATOM     18 CL   UNL     1      53.335   0.229  17.515  0.00  0.00    +0.000 Cl
ATOM     19  C   UNL     1      52.228   1.533  17.573  0.00  0.00    +0.000 A 
ATOM     20  C   UNL     1      52.562   2.759  18.123  0.00  0.00    +0.000 A 
ATOM     21  N   UNL     1      51.700   3.811  18.145  0.00  0.00    +0.000 NA
ATOM     22  C   UNL     1      50.485   3.601  17.591  0.00  0.00    +0.000 A 
ATOM     23  C   UNL     1      50.167   2.342  17.070  0.00  0.00    +0.000 A 
ATOM     24  N   UNL     1      51.024   1.287  17.034  0.00  0.00    +0.000 NA
ENDBRANCH  16  22
ENDBRANCH   1  16
TORSDOF 4
ENDMDL
