MODEL 1
REMARK VINA RESULT:    -8.308      0.000      0.000
REMARK INTER + INTRA:         -12.049
REMARK INTER:                 -11.222
REMARK INTRA:                  -0.827
REMARK UNBOUND:                -0.827
REMARK  Name = 
REMARK  7 active torsions:
REMARK  status: ('A' for Active; 'I' for Inactive)
REMARK    1  A    between atoms: C_1  and  C_2
REMARK    2  A    between atoms: C_2  and  N_3
REMARK    3  A    between atoms: C_2  and  C_11
REMARK    4  A    between atoms: N_3  and  C_4
REMARK    5  A    between atoms: C_14  and  C_15
REMARK    6  A    between atoms: C_15  and  N_16
REMARK    7  A    between atoms: C_17  and  C_19
REMARK                            x       y       z     vdW  Elec       q    Type
REMARK                         _______ _______ _______ _____ _____    ______ ____
ROOT
ATOM      1  C   UNL     1      45.103   5.345  11.676  0.00  0.00    +0.000 A 
ATOM      2  C   UNL     1      45.346   4.696  12.882  0.00  0.00    +0.000 A 
ATOM      3  C   UNL     1      46.452   5.070  13.640  0.00  0.00    +0.000 A 
ATOM      4  C   UNL     1      47.311   6.069  13.181  0.00  0.00    +0.000 A 
ATOM      5  C   UNL     1      46.981   6.686  11.983  0.00  0.00    +0.000 A 
ATOM      6  N   UNL     1      45.897   6.359  11.237  0.00  0.00    +0.000 NA
ENDROOT
BRANCH   1   8
ATOM      7  C   UNL     1      42.619   4.935  11.772  0.00  0.00    +0.000 C 
ATOM      8  C   UNL     1      43.851   4.994  10.865  0.00  0.00    +0.000 C 
BRANCH   8   9
ATOM      9  N   UNL     1      44.056   3.689  10.226  0.00  0.00    +0.000 N 
ATOM     10  H   UNL     1      43.852   2.921  10.863  0.00  0.00    +0.000 HD
BRANCH   9  11
ATOM     11  C   UNL     1      44.996   3.421   9.245  0.00  0.00    +0.000 A 
ATOM     12  C   UNL     1      45.507   4.354   8.339  0.00  0.00    +0.000 A 
ATOM     13  N   UNL     1      46.320   4.067   7.286  0.00  0.00    +0.000 NA
ATOM     14  C   UNL     1      46.645   2.765   7.112  0.00  0.00    +0.000 A 
ATOM     15  C   UNL     1      46.229   1.760   7.966  0.00  0.00    +0.000 A 
ATOM     16 CL   UNL     1      46.715   0.132   7.714  0.00  0.00    +0.000 Cl
ATOM     17  C   UNL     1      45.397   2.094   9.032  0.00  0.00    +0.000 A 
ENDBRANCH   9  11
ENDBRANCH   8   9
ENDBRANCH   1   8
BRANCH   4  18
ATOM     18  C   UNL     1      48.515   6.497  13.969  0.00  0.00    +0.000 C 
BRANCH  18  19
ATOM     19  N   UNL     1      48.182   6.737  15.352  0.00  0.00    +0.000 N 
ATOM     20  C   UNL     1      49.084   6.481  16.356  0.00  0.00    +0.000 C 
ATOM     21  O   UNL     1      50.219   6.082  16.125  0.00  0.00    +0.000 OA
ATOM     22  H   UNL     1      47.197   6.817  15.581  0.00  0.00    +0.000 HD
BRANCH  20  23
ATOM     23  C   UNL     1      48.635   6.786  17.720  0.00  0.00    +0.000 A 
ATOM     24  C   UNL     1      48.236   8.078  18.045  0.00  0.00    +0.000 A 
ATOM     25  S   UNL     1      47.700   8.245  19.655  0.00  0.00    +0.000 S 
ATOM     26  C   UNL     1      48.028   6.608  19.993  0.00  0.00    +0.000 A 
ATOM     27  N   UNL     1      47.812   6.094  21.236  0.00  0.00    +0.000 NA
ATOM     28  C   UNL     1      48.131   4.845  21.353  0.00  0.00    +0.000 A 
ATOM     29  N   UNL     1      48.638   4.071  20.346  0.00  0.00    +0.000 N 
ATOM     30  C   UNL     1      48.843   4.536  19.067  0.00  0.00    +0.000 A 
ATOM     31  O   UNL     1      49.243   3.800  18.176  0.00  0.00    +0.000 OA
ATOM     32  C   UNL     1      48.516   5.940  18.885  0.00  0.00    +0.000 A 
ATOM     33  H   UNL     1      48.852   3.093  20.503  0.00  0.00    +0.000 HD
ENDBRANCH  20  23
ENDBRANCH  18  19
ENDBRANCH   4  18
TORSDOF 6
ENDMDL
MODEL 2
REMARK VINA RESULT:    -8.020      1.351      2.115
REMARK INTER + INTRA:         -11.661
REMARK INTER:                 -10.674
REMARK INTRA:                  -0.987
REMARK UNBOUND:                -0.827
REMARK  Name = 
REMARK  7 active torsions:
REMARK  status: ('A' for Active; 'I' for Inactive)
REMARK    1  A    between atoms: C_1  and  C_2
REMARK    2  A    between atoms: C_2  and  N_3
REMARK    3  A    between atoms: C_2  and  C_11
REMARK    4  A    between atoms: N_3  and  C_4
REMARK    5  A    between atoms: C_14  and  C_15
REMARK    6  A    between atoms: C_15  and  N_16
REMARK    7  A    between atoms: C_17  and  C_19
REMARK                            x       y       z     vdW  Elec       q    Type
REMARK                         _______ _______ _______ _____ _____    ______ ____
ROOT
ATOM      1  C   UNL     1      44.968   5.567  11.731  0.00  0.00    +0.000 A 
ATOM      2  C   UNL     1      45.648   6.733  11.396  0.00  0.00    +0.000 A 
ATOM      3  C   UNL     1      46.776   7.091  12.128  0.00  0.00    +0.000 A 
ATOM      4  C   UNL     1      47.202   6.297  13.193  0.00  0.00    +0.000 A 
ATOM      5  C   UNL     1      46.485   5.137  13.443  0.00  0.00    +0.000 A 
ATOM      6  N   UNL     1      45.398   4.750  12.731  0.00  0.00    +0.000 NA
ENDROOT
BRANCH   1   8
ATOM      7  C   UNL     1      42.497   5.071  11.746  0.00  0.00    +0.000 C 
ATOM      8  C   UNL     1      43.766   5.122  10.890  0.00  0.00    +0.000 C 
BRANCH   8   9
ATOM      9  N   UNL     1      44.045   3.789  10.342  0.00  0.00    +0.000 N 
ATOM     10  H   UNL     1      43.909   3.059  11.038  0.00  0.00    +0.000 HD
BRANCH   9  11
ATOM     11  C   UNL     1      44.978   3.513   9.356  0.00  0.00    +0.000 A 
ATOM     12  C   UNL     1      45.503   4.444   8.456  0.00  0.00    +0.000 A 
ATOM     13  N   UNL     1      46.307   4.151   7.398  0.00  0.00    +0.000 NA
ATOM     14  C   UNL     1      46.609   2.845   7.214  0.00  0.00    +0.000 A 
ATOM     15  C   UNL     1      46.179   1.841   8.061  0.00  0.00    +0.000 A 
ATOM     16 CL   UNL     1      46.636   0.206   7.795  0.00  0.00    +0.000 Cl
ATOM     17  C   UNL     1      45.355   2.181   9.132  0.00  0.00    +0.000 A 
ENDBRANCH   9  11
ENDBRANCH   8   9
ENDBRANCH   1   8
BRANCH   4  18
ATOM     18  C   UNL     1      48.412   6.653  14.007  0.00  0.00    +0.000 C 
BRANCH  18  19
ATOM     19  N   UNL     1      48.179   6.444  15.416  0.00  0.00    +0.000 N 
ATOM     20  C   UNL     1      49.223   6.244  16.287  0.00  0.00    +0.000 C 
ATOM     21  O   UNL     1      50.392   6.278  15.921  0.00  0.00    +0.000 OA
ATOM     22  H   UNL     1      47.245   6.162  15.692  0.00  0.00    +0.000 HD
BRANCH  20  23
ATOM     23  C   UNL     1      48.860   6.064  17.698  0.00  0.00    +0.000 A 
ATOM     24  C   UNL     1      49.033   4.825  18.304  0.00  0.00    +0.000 A 
ATOM     25  S   UNL     1      48.608   4.803  19.955  0.00  0.00    +0.000 S 
ATOM     26  C   UNL     1      48.129   6.437  19.910  0.00  0.00    +0.000 A 
ATOM     27  N   UNL     1      47.627   7.049  21.019  0.00  0.00    +0.000 NA
ATOM     28  C   UNL     1      47.279   8.281  20.830  0.00  0.00    +0.000 A 
ATOM     29  N   UNL     1      47.393   8.951  19.642  0.00  0.00    +0.000 N 
ATOM     30  C   UNL     1      47.924   8.386  18.505  0.00  0.00    +0.000 A 
ATOM     31  O   UNL     1      48.064   9.032  17.477  0.00  0.00    +0.000 OA
ATOM     32  C   UNL     1      48.314   6.995  18.659  0.00  0.00    +0.000 A 
ATOM     33  H   UNL     1      47.116   9.923  19.568  0.00  0.00    +0.000 HD
ENDBRANCH  20  23
ENDBRANCH  18  19
ENDBRANCH   4  18
TORSDOF 6
ENDMDL
MODEL 3
REMARK VINA RESULT:    -7.922      1.325      1.482
REMARK INTER + INTRA:         -11.528
REMARK INTER:                 -10.512
REMARK INTRA:                  -1.016
REMARK UNBOUND:                -0.827
REMARK  Name = 
REMARK  7 active torsions:
REMARK  status: ('A' for Active; 'I' for Inactive)
REMARK    1  A    between atoms: C_1  and  C_2
REMARK    2  A    between atoms: C_2  and  N_3
REMARK    3  A    between atoms: C_2  and  C_11
REMARK    4  A    between atoms: N_3  and  C_4
REMARK    5  A    between atoms: C_14  and  C_15
REMARK    6  A    between atoms: C_15  and  N_16
REMARK    7  A    between atoms: C_17  and  C_19
REMARK                            x       y       z     vdW  Elec       q    Type
REMARK                         _______ _______ _______ _____ _____    ______ ____
ROOT
ATOM      1  C   UNL     1      44.628   4.874  11.725  0.00  0.00    +0.000 A 
ATOM      2  C   UNL     1      45.625   4.311  12.514  0.00  0.00    +0.000 A 
ATOM      3  C   UNL     1      46.617   5.133  13.040  0.00  0.00    +0.000 A 
ATOM      4  C   UNL     1      46.615   6.500  12.759  0.00  0.00    +0.000 A 
ATOM      5  C   UNL     1      45.570   6.986  11.988  0.00  0.00    +0.000 A 
ATOM      6  N   UNL     1      44.578   6.212  11.483  0.00  0.00    +0.000 NA
ENDROOT
BRANCH   1   8
ATOM      7  C   UNL     1      43.565   2.591  11.808  0.00  0.00    +0.000 C 
ATOM      8  C   UNL     1      43.490   3.994  11.198  0.00  0.00    +0.000 C 
BRANCH   8   9
ATOM      9  N   UNL     1      43.604   3.903   9.737  0.00  0.00    +0.000 N 
ATOM     10  H   UNL     1      42.745   3.558   9.313  0.00  0.00    +0.000 HD
BRANCH   9  11
ATOM     11  C   UNL     1      44.770   3.621   9.046  0.00  0.00    +0.000 A 
ATOM     12  C   UNL     1      45.576   4.564   8.402  0.00  0.00    +0.000 A 
ATOM     13  N   UNL     1      46.640   4.278   7.603  0.00  0.00    +0.000 NA
ATOM     14  C   UNL     1      46.924   2.967   7.423  0.00  0.00    +0.000 A 
ATOM     15  C   UNL     1      46.221   1.948   8.039  0.00  0.00    +0.000 A 
ATOM     16 CL   UNL     1      46.662   0.305   7.804  0.00  0.00    +0.000 Cl
ATOM     17  C   UNL     1      45.137   2.282   8.848  0.00  0.00    +0.000 A 
ENDBRANCH   9  11
ENDBRANCH   8   9
ENDBRANCH   1   8
BRANCH   4  18
ATOM     18  C   UNL     1      47.670   7.418  13.305  0.00  0.00    +0.000 C 
BRANCH  18  19
ATOM     19  N   UNL     1      47.918   7.163  14.704  0.00  0.00    +0.000 N 
ATOM     20  C   UNL     1      49.192   7.190  15.216  0.00  0.00    +0.000 C 
ATOM     21  O   UNL     1      50.166   7.472  14.527  0.00  0.00    +0.000 OA
ATOM     22  H   UNL     1      47.187   6.689  15.222  0.00  0.00    +0.000 HD
BRANCH  20  23
ATOM     23  C   UNL     1      49.314   6.935  16.657  0.00  0.00    +0.000 A 
ATOM     24  C   UNL     1      49.831   7.918  17.493  0.00  0.00    +0.000 A 
ATOM     25  S   UNL     1      49.857   7.476  19.139  0.00  0.00    +0.000 S 
ATOM     26  C   UNL     1      49.223   5.932  18.791  0.00  0.00    +0.000 A 
ATOM     27  N   UNL     1      49.020   5.021  19.782  0.00  0.00    +0.000 NA
ATOM     28  C   UNL     1      48.562   3.884  19.367  0.00  0.00    +0.000 A 
ATOM     29  N   UNL     1      48.286   3.583  18.062  0.00  0.00    +0.000 N 
ATOM     30  C   UNL     1      48.444   4.480  17.031  0.00  0.00    +0.000 A 
ATOM     31  O   UNL     1      48.133   4.196  15.883  0.00  0.00    +0.000 OA
ATOM     32  C   UNL     1      48.975   5.770  17.441  0.00  0.00    +0.000 A 
ATOM     33  H   UNL     1      47.912   2.676  17.808  0.00  0.00    +0.000 HD
ENDBRANCH  20  23
ENDBRANCH  18  19
ENDBRANCH   4  18
TORSDOF 6
ENDMDL
MODEL 4
REMARK VINA RESULT:    -7.363      2.729      3.447
REMARK INTER + INTRA:         -10.773
REMARK INTER:                  -9.266
REMARK INTRA:                  -1.507
REMARK UNBOUND:                -0.827
REMARK  Name = 
REMARK  7 active torsions:
REMARK  status: ('A' for Active; 'I' for Inactive)
REMARK    1  A    between atoms: C_1  and  C_2
REMARK    2  A    between atoms: C_2  and  N_3
REMARK    3  A    between atoms: C_2  and  C_11
REMARK    4  A    between atoms: N_3  and  C_4
REMARK    5  A    between atoms: C_14  and  C_15
REMARK    6  A    between atoms: C_15  and  N_16
REMARK    7  A    between atoms: C_17  and  C_19
REMARK                            x       y       z     vdW  Elec       q    Type
REMARK                         _______ _______ _______ _____ _____    ______ ____
ROOT
ATOM      1  C   UNL     1      45.679   7.869  11.757  0.00  0.00    +0.000 A 
ATOM      2  C   UNL     1      46.695   6.988  11.403  0.00  0.00    +0.000 A 
ATOM      3  C   UNL     1      47.900   7.030  12.099  0.00  0.00    +0.000 A 
ATOM      4  C   UNL     1      48.084   7.958  13.125  0.00  0.00    +0.000 A 
ATOM      5  C   UNL     1      47.011   8.780  13.434  0.00  0.00    +0.000 A 
ATOM      6  N   UNL     1      45.819   8.744  12.789  0.00  0.00    +0.000 NA
ENDROOT
BRANCH   1   8
ATOM      7  C   UNL     1      43.709   9.181  10.892  0.00  0.00    +0.000 C 
ATOM      8  C   UNL     1      44.323   7.786  11.048  0.00  0.00    +0.000 C 
BRANCH   8   9
ATOM      9  N   UNL     1      43.428   6.939  11.844  0.00  0.00    +0.000 N 
ATOM     10  H   UNL     1      43.152   7.394  12.713  0.00  0.00    +0.000 HD
BRANCH   9  11
ATOM     11  C   UNL     1      43.459   5.555  11.875  0.00  0.00    +0.000 A 
ATOM     12  C   UNL     1      43.337   4.769  13.023  0.00  0.00    +0.000 A 
ATOM     13  N   UNL     1      43.509   3.420  13.078  0.00  0.00    +0.000 NA
ATOM     14  C   UNL     1      43.831   2.806  11.915  0.00  0.00    +0.000 A 
ATOM     15  C   UNL     1      43.942   3.475  10.711  0.00  0.00    +0.000 A 
ATOM     16 CL   UNL     1      44.309   2.628   9.262  0.00  0.00    +0.000 Cl
ATOM     17  C   UNL     1      43.759   4.856  10.696  0.00  0.00    +0.000 A 
ENDBRANCH   9  11
ENDBRANCH   8   9
ENDBRANCH   1   8
BRANCH   4  18
ATOM     18  C   UNL     1      49.370   8.036  13.895  0.00  0.00    +0.000 C 
BRANCH  18  19
ATOM     19  N   UNL     1      49.393   7.086  14.981  0.00  0.00    +0.000 N 
ATOM     20  C   UNL     1      49.097   7.467  16.267  0.00  0.00    +0.000 C 
ATOM     21  O   UNL     1      48.760   8.613  16.545  0.00  0.00    +0.000 OA
ATOM     22  H   UNL     1      49.903   6.222  14.827  0.00  0.00    +0.000 HD
BRANCH  20  23
ATOM     23  C   UNL     1      49.134   6.405  17.280  0.00  0.00    +0.000 A 
ATOM     24  C   UNL     1      49.876   6.583  18.442  0.00  0.00    +0.000 A 
ATOM     25  S   UNL     1      49.770   5.275  19.530  0.00  0.00    +0.000 S 
ATOM     26  C   UNL     1      48.767   4.399  18.467  0.00  0.00    +0.000 A 
ATOM     27  N   UNL     1      48.326   3.152  18.790  0.00  0.00    +0.000 NA
ATOM     28  C   UNL     1      47.597   2.597  17.876  0.00  0.00    +0.000 A 
ATOM     29  N   UNL     1      47.268   3.176  16.681  0.00  0.00    +0.000 N 
ATOM     30  C   UNL     1      47.661   4.446  16.325  0.00  0.00    +0.000 A 
ATOM     31  O   UNL     1      47.300   4.954  15.273  0.00  0.00    +0.000 OA
ATOM     32  C   UNL     1      48.499   5.108  17.310  0.00  0.00    +0.000 A 
ATOM     33  H   UNL     1      46.677   2.691  16.017  0.00  0.00    +0.000 HD
ENDBRANCH  20  23
ENDBRANCH  18  19
ENDBRANCH   4  18
TORSDOF 6
ENDMDL
MODEL 5
REMARK VINA RESULT:    -7.300      3.651      5.277
REMARK INTER + INTRA:         -10.687
REMARK INTER:                  -9.708
REMARK INTRA:                  -0.979
REMARK UNBOUND:                -0.827
REMARK  Name = 
REMARK  7 active torsions:
REMARK  status: ('A' for Active; 'I' for Inactive)
REMARK    1  A    between atoms: C_1  and  C_2
REMARK    2  A    between atoms: C_2  and  N_3
REMARK    3  A    between atoms: C_2  and  C_11
REMARK    4  A    between atoms: N_3  and  C_4
REMARK    5  A    between atoms: C_14  and  C_15
REMARK    6  A    between atoms: C_15  and  N_16
REMARK    7  A    between atoms: C_17  and  C_19
REMARK                            x       y       z     vdW  Elec       q    Type
REMARK                         _______ _______ _______ _____ _____    ______ ____
ROOT
ATOM      1  C   UNL     1      47.563   5.690  13.906  0.00  0.00    +0.000 A 
ATOM      2  C   UNL     1      48.127   6.233  15.055  0.00  0.00    +0.000 A 
ATOM      3  C   UNL     1      48.247   5.437  16.190  0.00  0.00    +0.000 A 
ATOM      4  C   UNL     1      47.790   4.118  16.173  0.00  0.00    +0.000 A 
ATOM      5  C   UNL     1      47.268   3.646  14.979  0.00  0.00    +0.000 A 
ATOM      6  N   UNL     1      47.161   4.392  13.851  0.00  0.00    +0.000 NA
ENDROOT
BRANCH   1   8
ATOM      7  C   UNL     1      48.411   7.751  12.729  0.00  0.00    +0.000 C 
ATOM      8  C   UNL     1      47.489   6.532  12.627  0.00  0.00    +0.000 C 
BRANCH   8   9
ATOM      9  N   UNL     1      46.104   6.975  12.437  0.00  0.00    +0.000 N 
ATOM     10  H   UNL     1      45.843   7.696  13.107  0.00  0.00    +0.000 HD
BRANCH   9  11
ATOM     11  C   UNL     1      45.068   6.177  11.981  0.00  0.00    +0.000 A 
ATOM     12  C   UNL     1      43.945   5.806  12.725  0.00  0.00    +0.000 A 
ATOM     13  N   UNL     1      43.000   4.910  12.333  0.00  0.00    +0.000 NA
ATOM     14  C   UNL     1      43.179   4.336  11.121  0.00  0.00    +0.000 A 
ATOM     15  C   UNL     1      44.231   4.652  10.281  0.00  0.00    +0.000 A 
ATOM     16 CL   UNL     1      44.376   3.919   8.734  0.00  0.00    +0.000 Cl
ATOM     17  C   UNL     1      45.179   5.574  10.719  0.00  0.00    +0.000 A 
ENDBRANCH   9  11
ENDBRANCH   8   9
ENDBRANCH   1   8
BRANCH   4  18
ATOM     18  C   UNL     1      47.899   3.230  17.379  0.00  0.00    +0.000 C 
BRANCH  18  19
ATOM     19  N   UNL     1      49.277   3.011  17.749  0.00  0.00    +0.000 N 
ATOM     20  C   UNL     1      50.079   2.158  17.031  0.00  0.00    +0.000 C 
ATOM     21  O   UNL     1      49.681   1.581  16.026  0.00  0.00    +0.000 OA
ATOM     22  H   UNL     1      49.545   3.265  18.694  0.00  0.00    +0.000 HD
BRANCH  20  23
ATOM     23  C   UNL     1      51.467   2.035  17.495  0.00  0.00    +0.000 A 
ATOM     24  C   UNL     1      52.028   0.776  17.672  0.00  0.00    +0.000 A 
ATOM     25  S   UNL     1      53.659   0.815  18.166  0.00  0.00    +0.000 S 
ATOM     26  C   UNL     1      53.663   2.518  18.210  0.00  0.00    +0.000 A 
ATOM     27  N   UNL     1      54.776   3.205  18.590  0.00  0.00    +0.000 NA
ATOM     28  C   UNL     1      54.624   4.490  18.603  0.00  0.00    +0.000 A 
ATOM     29  N   UNL     1      53.470   5.143  18.266  0.00  0.00    +0.000 N 
ATOM     30  C   UNL     1      52.332   4.495  17.843  0.00  0.00    +0.000 A 
ATOM     31  O   UNL     1      51.337   5.114  17.495  0.00  0.00    +0.000 OA
ATOM     32  C   UNL     1      52.443   3.046  17.829  0.00  0.00    +0.000 A 
ATOM     33  H   UNL     1      53.425   6.155  18.281  0.00  0.00    +0.000 HD
ENDBRANCH  20  23
ENDBRANCH  18  19
ENDBRANCH   4  18
TORSDOF 6
ENDMDL
MODEL 6
REMARK VINA RESULT:    -7.215      2.006      3.033
REMARK INTER + INTRA:         -10.572
REMARK INTER:                  -9.591
REMARK INTRA:                  -0.981
REMARK UNBOUND:                -0.827
REMARK  Name = 
REMARK  7 active torsions:
REMARK  status: ('A' for Active; 'I' for Inactive)
REMARK    1  A    between atoms: C_1  and  C_2
REMARK    2  A    between atoms: C_2  and  N_3
REMARK    3  A    between atoms: C_2  and  C_11
REMARK    4  A    between atoms: N_3  and  C_4
REMARK    5  A    between atoms: C_14  and  C_15
REMARK    6  A    between atoms: C_15  and  N_16
REMARK    7  A    between atoms: C_17  and  C_19
REMARK                            x       y       z     vdW  Elec       q    Type
REMARK                         _______ _______ _______ _____ _____    ______ ____
ROOT
ATOM      1  C   UNL     1      45.766   5.931  12.236  0.00  0.00    +0.000 A 
ATOM      2  C   UNL     1      47.074   6.244  12.590  0.00  0.00    +0.000 A 
ATOM      3  C   UNL     1      47.630   5.649  13.719  0.00  0.00    +0.000 A 
ATOM      4  C   UNL     1      46.872   4.766  14.490  0.00  0.00    +0.000 A 
ATOM      5  C   UNL     1      45.587   4.486  14.052  0.00  0.00    +0.000 A 
ATOM      6  N   UNL     1      45.030   5.032  12.942  0.00  0.00    +0.000 NA
ENDROOT
BRANCH   1   8
ATOM      7  C   UNL     1      44.471   7.855  11.251  0.00  0.00    +0.000 C 
ATOM      8  C   UNL     1      45.165   6.522  10.956  0.00  0.00    +0.000 C 
BRANCH   8   9
ATOM      9  N   UNL     1      44.192   5.569  10.410  0.00  0.00    +0.000 N 
ATOM     10  H   UNL     1      43.345   5.532  10.974  0.00  0.00    +0.000 HD
BRANCH   9  11
ATOM     11  C   UNL     1      44.511   4.407   9.729  0.00  0.00    +0.000 A 
ATOM     12  C   UNL     1      44.150   3.115  10.120  0.00  0.00    +0.000 A 
ATOM     13  N   UNL     1      44.581   1.965   9.535  0.00  0.00    +0.000 NA
ATOM     14  C   UNL     1      45.434   2.101   8.493  0.00  0.00    +0.000 A 
ATOM     15  C   UNL     1      45.831   3.327   7.994  0.00  0.00    +0.000 A 
ATOM     16 CL   UNL     1      46.882   3.430   6.639  0.00  0.00    +0.000 Cl
ATOM     17  C   UNL     1      45.370   4.483   8.622  0.00  0.00    +0.000 A 
ENDBRANCH   9  11
ENDBRANCH   8   9
ENDBRANCH   1   8
BRANCH   4  18
ATOM     18  C   UNL     1      47.435   4.108  15.716  0.00  0.00    +0.000 C 
BRANCH  18  19
ATOM     19  N   UNL     1      47.279   4.944  16.882  0.00  0.00    +0.000 N 
ATOM     20  C   UNL     1      48.336   5.657  17.393  0.00  0.00    +0.000 C 
ATOM     21  O   UNL     1      49.441   5.654  16.863  0.00  0.00    +0.000 OA
ATOM     22  H   UNL     1      46.472   4.767  17.471  0.00  0.00    +0.000 HD
BRANCH  20  23
ATOM     23  C   UNL     1      48.046   6.487  18.569  0.00  0.00    +0.000 A 
ATOM     24  C   UNL     1      47.852   5.887  19.809  0.00  0.00    +0.000 A 
ATOM     25  S   UNL     1      47.574   6.997  21.072  0.00  0.00    +0.000 S 
ATOM     26  C   UNL     1      47.654   8.321  20.002  0.00  0.00    +0.000 A 
ATOM     27  N   UNL     1      47.469   9.594  20.449  0.00  0.00    +0.000 NA
ATOM     28  C   UNL     1      47.529  10.493  19.521  0.00  0.00    +0.000 A 
ATOM     29  N   UNL     1      47.762  10.235  18.198  0.00  0.00    +0.000 N 
ATOM     30  C   UNL     1      47.988   8.971  17.703  0.00  0.00    +0.000 A 
ATOM     31  O   UNL     1      48.250   8.783  16.524  0.00  0.00    +0.000 OA
ATOM     32  C   UNL     1      47.912   7.919  18.704  0.00  0.00    +0.000 A 
ATOM     33  H   UNL     1      47.813  10.991  17.524  0.00  0.00    +0.000 HD
ENDBRANCH  20  23
ENDBRANCH  18  19
ENDBRANCH   4  18
TORSDOF 6
ENDMDL
MODEL 7
REMARK VINA RESULT:    -7.082      2.385      3.513
REMARK INTER + INTRA:         -10.393
REMARK INTER:                  -9.272
REMARK INTRA:                  -1.121
REMARK UNBOUND:                -0.827
REMARK  Name = 
REMARK  7 active torsions:
REMARK  status: ('A' for Active; 'I' for Inactive)
REMARK    1  A    between atoms: C_1  and  C_2
REMARK    2  A    between atoms: C_2  and  N_3
REMARK    3  A    between atoms: C_2  and  C_11
REMARK    4  A    between atoms: N_3  and  C_4
REMARK    5  A    between atoms: C_14  and  C_15
REMARK    6  A    between atoms: C_15  and  N_16
REMARK    7  A    between atoms: C_17  and  C_19
REMARK                            x       y       z     vdW  Elec       q    Type
REMARK                         _______ _______ _______ _____ _____    ______ ____
ROOT
ATOM      1  C   UNL     1      46.124   7.585  12.314  0.00  0.00    +0.000 A 
ATOM      2  C   UNL     1      46.396   8.571  13.256  0.00  0.00    +0.000 A 
ATOM      3  C   UNL     1      47.544   8.463  14.036  0.00  0.00    +0.000 A 
ATOM      4  C   UNL     1      48.395   7.367  13.882  0.00  0.00    +0.000 A 
ATOM      5  C   UNL     1      48.066   6.445  12.901  0.00  0.00    +0.000 A 
ATOM      6  N   UNL     1      46.968   6.538  12.110  0.00  0.00    +0.000 NA
ENDROOT
BRANCH   1   8
ATOM      7  C   UNL     1      44.477   9.195  11.290  0.00  0.00    +0.000 C 
ATOM      8  C   UNL     1      44.903   7.727  11.399  0.00  0.00    +0.000 C 
BRANCH   8   9
ATOM      9  N   UNL     1      43.802   6.935  11.959  0.00  0.00    +0.000 N 
ATOM     10  H   UNL     1      43.416   7.365  12.797  0.00  0.00    +0.000 HD
BRANCH   9  11
ATOM     11  C   UNL     1      43.698   5.556  11.889  0.00  0.00    +0.000 A 
ATOM     12  C   UNL     1      43.463   4.707  12.975  0.00  0.00    +0.000 A 
ATOM     13  N   UNL     1      43.502   3.348  12.935  0.00  0.00    +0.000 NA
ATOM     14  C   UNL     1      43.801   2.787  11.740  0.00  0.00    +0.000 A 
ATOM     15  C   UNL     1      44.015   3.524  10.590  0.00  0.00    +0.000 A 
ATOM     16 CL   UNL     1      44.345   2.747   9.094  0.00  0.00    +0.000 Cl
ATOM     17  C   UNL     1      43.967   4.914  10.671  0.00  0.00    +0.000 A 
ENDBRANCH   9  11
ENDBRANCH   8   9
ENDBRANCH   1   8
BRANCH   4  18
ATOM     18  C   UNL     1      49.639   7.214  14.707  0.00  0.00    +0.000 C 
BRANCH  18  19
ATOM     19  N   UNL     1      49.337   7.191  16.118  0.00  0.00    +0.000 N 
ATOM     20  C   UNL     1      48.774   6.085  16.707  0.00  0.00    +0.000 C 
ATOM     21  O   UNL     1      48.544   5.058  16.078  0.00  0.00    +0.000 OA
ATOM     22  H   UNL     1      49.278   8.086  16.591  0.00  0.00    +0.000 HD
BRANCH  20  23
ATOM     23  C   UNL     1      48.533   6.175  18.152  0.00  0.00    +0.000 A 
ATOM     24  C   UNL     1      48.751   5.066  18.961  0.00  0.00    +0.000 A 
ATOM     25  S   UNL     1      48.469   5.358  20.617  0.00  0.00    +0.000 S 
ATOM     26  C   UNL     1      47.996   6.966  20.309  0.00  0.00    +0.000 A 
ATOM     27  N   UNL     1      47.594   7.782  21.323  0.00  0.00    +0.000 NA
ATOM     28  C   UNL     1      47.238   8.965  20.938  0.00  0.00    +0.000 A 
ATOM     29  N   UNL     1      47.253   9.402  19.642  0.00  0.00    +0.000 N 
ATOM     30  C   UNL     1      47.682   8.626  18.589  0.00  0.00    +0.000 A 
ATOM     31  O   UNL     1      47.736   9.068  17.450  0.00  0.00    +0.000 OA
ATOM     32  C   UNL     1      48.076   7.279  18.965  0.00  0.00    +0.000 A 
ATOM     33  H   UNL     1      46.976  10.349  19.412  0.00  0.00    +0.000 HD
ENDBRANCH  20  23
ENDBRANCH  18  19
ENDBRANCH   4  18
TORSDOF 6
ENDMDL
MODEL 8
REMARK VINA RESULT:    -7.021      3.309      4.885
REMARK INTER + INTRA:         -10.311
REMARK INTER:                  -9.192
REMARK INTRA:                  -1.120
REMARK UNBOUND:                -0.827
REMARK  Name = 
REMARK  7 active torsions:
REMARK  status: ('A' for Active; 'I' for Inactive)
REMARK    1  A    between atoms: C_1  and  C_2
REMARK    2  A    between atoms: C_2  and  N_3
REMARK    3  A    between atoms: C_2  and  C_11
REMARK    4  A    between atoms: N_3  and  C_4
REMARK    5  A    between atoms: C_14  and  C_15
REMARK    6  A    between atoms: C_15  and  N_16
REMARK    7  A    between atoms: C_17  and  C_19
REMARK                            x       y       z     vdW  Elec       q    Type
REMARK                         _______ _______ _______ _____ _____    ______ ____
ROOT
ATOM      1  C   UNL     1      47.813   6.084  14.080  0.00  0.00    +0.000 A 
ATOM      2  C   UNL     1      48.563   7.097  14.669  0.00  0.00    +0.000 A 
ATOM      3  C   UNL     1      48.882   7.003  16.021  0.00  0.00    +0.000 A 
ATOM      4  C   UNL     1      48.437   5.914  16.772  0.00  0.00    +0.000 A 
ATOM      5  C   UNL     1      47.719   4.934  16.102  0.00  0.00    +0.000 A 
ATOM      6  N   UNL     1      47.415   4.988  14.781  0.00  0.00    +0.000 NA
ENDROOT
BRANCH   1   8
ATOM      7  C   UNL     1      48.193   7.351  11.935  0.00  0.00    +0.000 C 
ATOM      8  C   UNL     1      47.514   6.138  12.578  0.00  0.00    +0.000 C 
BRANCH   8   9
ATOM      9  N   UNL     1      46.062   6.228  12.391  0.00  0.00    +0.000 N 
ATOM     10  H   UNL     1      45.621   6.782  13.124  0.00  0.00    +0.000 HD
BRANCH   9  11
ATOM     11  C   UNL     1      45.269   5.245  11.823  0.00  0.00    +0.000 A 
ATOM     12  C   UNL     1      44.510   4.309  12.530  0.00  0.00    +0.000 A 
ATOM     13  N   UNL     1      43.846   3.256  11.982  0.00  0.00    +0.000 NA
ATOM     14  C   UNL     1      43.944   3.115  10.640  0.00  0.00    +0.000 A 
ATOM     15  C   UNL     1      44.635   3.999   9.833  0.00  0.00    +0.000 A 
ATOM     16 CL   UNL     1      44.682   3.787   8.128  0.00  0.00    +0.000 Cl
ATOM     17  C   UNL     1      45.303   5.065  10.432  0.00  0.00    +0.000 A 
ENDBRANCH   9  11
ENDBRANCH   8   9
ENDBRANCH   1   8
BRANCH   4  18
ATOM     18  C   UNL     1      48.758   5.780  18.232  0.00  0.00    +0.000 C 
BRANCH  18  19
ATOM     19  N   UNL     1      49.847   4.859  18.450  0.00  0.00    +0.000 N 
ATOM     20  C   UNL     1      51.151   5.288  18.458  0.00  0.00    +0.000 C 
ATOM     21  O   UNL     1      51.449   6.470  18.325  0.00  0.00    +0.000 OA
ATOM     22  H   UNL     1      49.652   3.873  18.307  0.00  0.00    +0.000 HD
BRANCH  20  23
ATOM     23  C   UNL     1      52.168   4.260  18.710  0.00  0.00    +0.000 A 
ATOM     24  C   UNL     1      53.270   4.556  19.505  0.00  0.00    +0.000 A 
ATOM     25  S   UNL     1      54.325   3.237  19.734  0.00  0.00    +0.000 S 
ATOM     26  C   UNL     1      53.375   2.232  18.739  0.00  0.00    +0.000 A 
ATOM     27  N   UNL     1      53.744   0.945  18.489  0.00  0.00    +0.000 NA
ATOM     28  C   UNL     1      52.942   0.311  17.695  0.00  0.00    +0.000 A 
ATOM     29  N   UNL     1      51.812   0.844  17.138  0.00  0.00    +0.000 N 
ATOM     30  C   UNL     1      51.381   2.127  17.386  0.00  0.00    +0.000 A 
ATOM     31  O   UNL     1      50.335   2.551  16.917  0.00  0.00    +0.000 OA
ATOM     32  C   UNL     1      52.257   2.890  18.260  0.00  0.00    +0.000 A 
ATOM     33  H   UNL     1      51.219   0.285  16.536  0.00  0.00    +0.000 HD
ENDBRANCH  20  23
ENDBRANCH  18  19
ENDBRANCH   4  18
TORSDOF 6
ENDMDL
MODEL 9
REMARK VINA RESULT:    -6.996      4.934      6.566
REMARK INTER + INTRA:         -10.278
REMARK INTER:                  -9.166
REMARK INTRA:                  -1.111
REMARK UNBOUND:                -0.827
REMARK  Name = 
REMARK  7 active torsions:
REMARK  status: ('A' for Active; 'I' for Inactive)
REMARK    1  A    between atoms: C_1  and  C_2
REMARK    2  A    between atoms: C_2  and  N_3
REMARK    3  A    between atoms: C_2  and  C_11
REMARK    4  A    between atoms: N_3  and  C_4
REMARK    5  A    between atoms: C_14  and  C_15
REMARK    6  A    between atoms: C_15  and  N_16
REMARK    7  A    between atoms: C_17  and  C_19
REMARK                            x       y       z     vdW  Elec       q    Type
REMARK                         _______ _______ _______ _____ _____    ______ ____
ROOT
ATOM      1  C   UNL     1      44.747   9.044  11.607  0.00  0.00    +0.000 A 
ATOM      2  C   UNL     1      44.070   7.936  11.110  0.00  0.00    +0.000 A 
ATOM      3  C   UNL     1      44.409   6.670  11.579  0.00  0.00    +0.000 A 
ATOM      4  C   UNL     1      45.427   6.522  12.522  0.00  0.00    +0.000 A 
ATOM      5  C   UNL     1      46.032   7.679  12.987  0.00  0.00    +0.000 A 
ATOM      6  N   UNL     1      45.705   8.926  12.566  0.00  0.00    +0.000 NA
ENDROOT
BRANCH   1   8
ATOM      7  C   UNL     1      45.516  11.420  11.267  0.00  0.00    +0.000 C 
ATOM      8  C   UNL     1      44.336  10.449  11.153  0.00  0.00    +0.000 C 
BRANCH   8   9
ATOM      9  N   UNL     1      43.232  10.913  12.001  0.00  0.00    +0.000 N 
ATOM     10  H   UNL     1      43.375  10.660  12.978  0.00  0.00    +0.000 HD
BRANCH   9  11
ATOM     11  C   UNL     1      41.912  11.028  11.599  0.00  0.00    +0.000 A 
ATOM     12  C   UNL     1      41.449  10.866  10.290  0.00  0.00    +0.000 A 
ATOM     13  N   UNL     1      40.182  11.118   9.866  0.00  0.00    +0.000 NA
ATOM     14  C   UNL     1      39.311  11.568  10.799  0.00  0.00    +0.000 A 
ATOM     15  C   UNL     1      39.646  11.732  12.130  0.00  0.00    +0.000 A 
ATOM     16 CL   UNL     1      38.479  12.265  13.274  0.00  0.00    +0.000 Cl
ATOM     17  C   UNL     1      40.955  11.464  12.526  0.00  0.00    +0.000 A 
ENDBRANCH   9  11
ENDBRANCH   8   9
ENDBRANCH   1   8
BRANCH   4  18
ATOM     18  C   UNL     1      45.824   5.173  13.048  0.00  0.00    +0.000 C 
BRANCH  18  19
ATOM     19  N   UNL     1      46.440   5.275  14.349  0.00  0.00    +0.000 N 
ATOM     20  C   UNL     1      47.145   4.226  14.887  0.00  0.00    +0.000 C 
ATOM     21  O   UNL     1      47.322   3.179  14.275  0.00  0.00    +0.000 OA
ATOM     22  H   UNL     1      46.101   6.009  14.963  0.00  0.00    +0.000 HD
BRANCH  20  23
ATOM     23  C   UNL     1      47.742   4.459  16.208  0.00  0.00    +0.000 A 
ATOM     24  C   UNL     1      47.396   3.642  17.278  0.00  0.00    +0.000 A 
ATOM     25  S   UNL     1      48.216   4.020  18.724  0.00  0.00    +0.000 S 
ATOM     26  C   UNL     1      49.029   5.324  17.987  0.00  0.00    +0.000 A 
ATOM     27  N   UNL     1      49.887   6.105  18.699  0.00  0.00    +0.000 NA
ATOM     28  C   UNL     1      50.409   7.073  18.017  0.00  0.00    +0.000 A 
ATOM     29  N   UNL     1      50.156   7.324  16.697  0.00  0.00    +0.000 N 
ATOM     30  C   UNL     1      49.323   6.543  15.927  0.00  0.00    +0.000 A 
ATOM     31  O   UNL     1      49.164   6.762  14.735  0.00  0.00    +0.000 OA
ATOM     32  C   UNL     1      48.695   5.451  16.651  0.00  0.00    +0.000 A 
ATOM     33  H   UNL     1      50.613   8.091  16.218  0.00  0.00    +0.000 HD
ENDBRANCH  20  23
ENDBRANCH  18  19
ENDBRANCH   4  18
TORSDOF 6
ENDMDL
