MODEL 1
REMARK VINA RESULT:    -7.863      0.000      0.000
REMARK INTER + INTRA:         -11.118
REMARK INTER:                 -10.161
REMARK INTRA:                  -0.957
REMARK UNBOUND:                -0.957
REMARK  Name = 
REMARK  5 active torsions:
REMARK  status: ('A' for Active; 'I' for Inactive)
REMARK    1  A    between atoms: C_2  and  C_3
REMARK    2  A    between atoms: C_8  and  O_9
REMARK    3  A    between atoms: O_9  and  C_10
REMARK    4  A    between atoms: C_10  and  C_11
REMARK    5  A    between atoms: C_16  and  C_17
REMARK                            x       y       z     vdW  Elec       q    Type
REMARK                         _______ _______ _______ _____ _____    ______ ____
ROOT
ATOM      1  C   UNL     1      44.487   5.106  10.628  0.00  0.00    +0.000 A 
ATOM      2  C   UNL     1      43.705   4.233  11.386  0.00  0.00    +0.000 A 
ATOM      3  C   UNL     1      43.664   2.886  11.051  0.00  0.00    +0.000 A 
ATOM      4  F   UNL     1      42.926   2.046  11.790  0.00  0.00    +0.000 F 
ATOM      5  C   UNL     1      44.388   2.386   9.970  0.00  0.00    +0.000 A 
ATOM      6  C   UNL     1      45.169   3.235   9.172  0.00  0.00    +0.000 A 
ATOM      7  C   UNL     1      45.190   4.602   9.519  0.00  0.00    +0.000 A 
ENDROOT
BRANCH   6   8
ATOM      8  C   UNL     1      45.944   2.727   8.015  0.00  0.00    +0.000 A 
ATOM      9  C   UNL     1      46.204   3.529   6.896  0.00  0.00    +0.000 A 
ATOM     10  C   UNL     1      46.948   3.015   5.844  0.00  0.00    +0.000 A 
ATOM     11  N   UNL     1      47.459   1.768   5.823  0.00  0.00    +0.000 NA
ATOM     12  C   UNL     1      47.204   1.000   6.899  0.00  0.00    +0.000 A 
ATOM     13  C   UNL     1      46.461   1.422   7.991  0.00  0.00    +0.000 A 
ENDBRANCH   6   8
BRANCH   1  14
ATOM     14  C   UNL     1      44.618   6.560  11.005  0.00  0.00    +0.000 C 
BRANCH  14  15
ATOM     15  O   UNL     1      45.118   6.686  12.332  0.00  0.00    +0.000 OA
BRANCH  15  21
ATOM     16  C   UNL     1      47.350   5.792  13.093  0.00  0.00    +0.000 A 
ATOM     17  N   UNL     1      48.693   5.998  13.220  0.00  0.00    +0.000 NA
ATOM     18  C   UNL     1      49.194   7.168  12.783  0.00  0.00    +0.000 A 
ATOM     19  C   UNL     1      48.417   8.156  12.215  0.00  0.00    +0.000 A 
ATOM     20  C   UNL     1      47.047   7.929  12.091  0.00  0.00    +0.000 A 
ATOM     21  C   UNL     1      46.474   6.729  12.532  0.00  0.00    +0.000 A 
BRANCH  16  23
ATOM     22  N   UNL     1      46.668   3.446  13.981  0.00  0.00    +0.000 NA
ATOM     23  C   UNL     1      46.957   4.508  13.602  0.00  0.00    +0.000 C 
ENDBRANCH  16  23
ENDBRANCH  15  21
ENDBRANCH  14  15
ENDBRANCH   1  14
TORSDOF 5
ENDMDL
MODEL 2
REMARK VINA RESULT:    -7.253      1.660      2.199
REMARK INTER + INTRA:         -10.330
REMARK INTER:                  -9.422
REMARK INTRA:                  -0.907
REMARK UNBOUND:                -0.957
REMARK  Name = 
REMARK  5 active torsions:
REMARK  status: ('A' for Active; 'I' for Inactive)
REMARK    1  A    between atoms: C_2  and  C_3
REMARK    2  A    between atoms: C_8  and  O_9
REMARK    3  A    between atoms: O_9  and  C_10
REMARK    4  A    between atoms: C_10  and  C_11
REMARK    5  A    between atoms: C_16  and  C_17
REMARK                            x       y       z     vdW  Elec       q    Type
REMARK                         _______ _______ _______ _____ _____    ______ ____
ROOT
ATOM      1  C   UNL     1      45.319   6.520  11.484  0.00  0.00    +0.000 A 
ATOM      2  C   UNL     1      43.973   6.442  11.845  0.00  0.00    +0.000 A 
ATOM      3  C   UNL     1      43.163   5.477  11.262  0.00  0.00    +0.000 A 
ATOM      4  F   UNL     1      41.876   5.392  11.623  0.00  0.00    +0.000 F 
ATOM      5  C   UNL     1      43.666   4.584  10.318  0.00  0.00    +0.000 A 
ATOM      6  C   UNL     1      45.009   4.644   9.913  0.00  0.00    +0.000 A 
ATOM      7  C   UNL     1      45.814   5.637  10.508  0.00  0.00    +0.000 A 
ENDROOT
BRANCH   6   8
ATOM      8  C   UNL     1      45.565   3.706   8.908  0.00  0.00    +0.000 A 
ATOM      9  C   UNL     1      46.201   4.167   7.748  0.00  0.00    +0.000 A 
ATOM     10  C   UNL     1      46.721   3.253   6.843  0.00  0.00    +0.000 A 
ATOM     11  N   UNL     1      46.663   1.917   7.008  0.00  0.00    +0.000 NA
ATOM     12  C   UNL     1      46.047   1.478   8.122  0.00  0.00    +0.000 A 
ATOM     13  C   UNL     1      45.488   2.315   9.076  0.00  0.00    +0.000 A 
ENDBRANCH   6   8
BRANCH   1  14
ATOM     14  C   UNL     1      46.248   7.503  12.151  0.00  0.00    +0.000 C 
BRANCH  14  15
ATOM     15  O   UNL     1      47.511   6.897  12.405  0.00  0.00    +0.000 OA
BRANCH  15  21
ATOM     16  C   UNL     1      47.434   5.216  14.283  0.00  0.00    +0.000 A 
ATOM     17  N   UNL     1      47.788   4.897  15.562  0.00  0.00    +0.000 NA
ATOM     18  C   UNL     1      48.508   5.797  16.258  0.00  0.00    +0.000 A 
ATOM     19  C   UNL     1      48.900   7.013  15.739  0.00  0.00    +0.000 A 
ATOM     20  C   UNL     1      48.531   7.323  14.431  0.00  0.00    +0.000 A 
ATOM     21  C   UNL     1      47.781   6.422  13.663  0.00  0.00    +0.000 A 
BRANCH  16  23
ATOM     22  N   UNL     1      46.034   3.308  13.207  0.00  0.00    +0.000 NA
ATOM     23  C   UNL     1      46.671   4.169  13.665  0.00  0.00    +0.000 C 
ENDBRANCH  16  23
ENDBRANCH  15  21
ENDBRANCH  14  15
ENDBRANCH   1  14
TORSDOF 5
ENDMDL
MODEL 3
REMARK VINA RESULT:    -6.864      1.523      2.446
REMARK INTER + INTRA:          -9.827
REMARK INTER:                  -9.106
REMARK INTRA:                  -0.721
REMARK UNBOUND:                -0.957
REMARK  Name = 
REMARK  5 active torsions:
REMARK  status: ('A' for Active; 'I' for Inactive)
REMARK    1  A    between atoms: C_2  and  C_3
REMARK    2  A    between atoms: C_8  and  O_9
REMARK    3  A    between atoms: O_9  and  C_10
REMARK    4  A    between atoms: C_10  and  C_11
REMARK    5  A    between atoms: C_16  and  C_17
REMARK                            x       y       z     vdW  Elec       q    Type
REMARK                         _______ _______ _______ _____ _____    ______ ____
ROOT
ATOM      1  C   UNL     1      44.564   5.053  10.541  0.00  0.00    +0.000 A 
ATOM      2  C   UNL     1      43.765   4.192  11.294  0.00  0.00    +0.000 A 
ATOM      3  C   UNL     1      43.707   2.846  10.959  0.00  0.00    +0.000 A 
ATOM      4  F   UNL     1      42.952   2.017  11.693  0.00  0.00    +0.000 F 
ATOM      5  C   UNL     1      44.430   2.336   9.883  0.00  0.00    +0.000 A 
ATOM      6  C   UNL     1      45.229   3.174   9.090  0.00  0.00    +0.000 A 
ATOM      7  C   UNL     1      45.268   4.540   9.437  0.00  0.00    +0.000 A 
ENDROOT
BRANCH   6   8
ATOM      8  C   UNL     1      46.005   2.654   7.938  0.00  0.00    +0.000 A 
ATOM      9  C   UNL     1      46.529   1.354   7.933  0.00  0.00    +0.000 A 
ATOM     10  C   UNL     1      47.234   0.904   6.827  0.00  0.00    +0.000 A 
ATOM     11  N   UNL     1      47.451   1.645   5.722  0.00  0.00    +0.000 NA
ATOM     12  C   UNL     1      46.949   2.895   5.732  0.00  0.00    +0.000 A 
ATOM     13  C   UNL     1      46.242   3.435   6.797  0.00  0.00    +0.000 A 
ENDBRANCH   6   8
BRANCH   1  14
ATOM     14  C   UNL     1      44.713   6.506  10.919  0.00  0.00    +0.000 C 
BRANCH  14  15
ATOM     15  O   UNL     1      44.850   6.640  12.330  0.00  0.00    +0.000 OA
BRANCH  15  21
ATOM     16  C   UNL     1      46.514   8.449  12.894  0.00  0.00    +0.000 A 
ATOM     17  N   UNL     1      47.718   8.779  13.447  0.00  0.00    +0.000 NA
ATOM     18  C   UNL     1      48.463   7.786  13.966  0.00  0.00    +0.000 A 
ATOM     19  C   UNL     1      48.067   6.465  13.965  0.00  0.00    +0.000 A 
ATOM     20  C   UNL     1      46.835   6.145  13.398  0.00  0.00    +0.000 A 
ATOM     21  C   UNL     1      46.019   7.140  12.842  0.00  0.00    +0.000 A 
BRANCH  16  23
ATOM     22  N   UNL     1      45.306  10.536  11.924  0.00  0.00    +0.000 NA
ATOM     23  C   UNL     1      45.831   9.602  12.380  0.00  0.00    +0.000 C 
ENDBRANCH  16  23
ENDBRANCH  15  21
ENDBRANCH  14  15
ENDBRANCH   1  14
TORSDOF 5
ENDMDL
MODEL 4
REMARK VINA RESULT:    -6.615      2.228      6.496
REMARK INTER + INTRA:          -9.506
REMARK INTER:                  -8.788
REMARK INTRA:                  -0.718
REMARK UNBOUND:                -0.957
REMARK  Name = 
REMARK  5 active torsions:
REMARK  status: ('A' for Active; 'I' for Inactive)
REMARK    1  A    between atoms: C_2  and  C_3
REMARK    2  A    between atoms: C_8  and  O_9
REMARK    3  A    between atoms: O_9  and  C_10
REMARK    4  A    between atoms: C_10  and  C_11
REMARK    5  A    between atoms: C_16  and  C_17
REMARK                            x       y       z     vdW  Elec       q    Type
REMARK                         _______ _______ _______ _____ _____    ______ ____
ROOT
ATOM      1  C   UNL     1      44.503   3.717  10.527  0.00  0.00    +0.000 A 
ATOM      2  C   UNL     1      43.738   3.287  11.612  0.00  0.00    +0.000 A 
ATOM      3  C   UNL     1      43.713   4.045  12.774  0.00  0.00    +0.000 A 
ATOM      4  F   UNL     1      42.965   3.639  13.809  0.00  0.00    +0.000 F 
ATOM      5  C   UNL     1      44.440   5.229  12.882  0.00  0.00    +0.000 A 
ATOM      6  C   UNL     1      45.237   5.684  11.820  0.00  0.00    +0.000 A 
ATOM      7  C   UNL     1      45.259   4.896  10.651  0.00  0.00    +0.000 A 
ENDROOT
BRANCH   6   8
ATOM      8  C   UNL     1      46.022   6.938  11.914  0.00  0.00    +0.000 A 
ATOM      9  C   UNL     1      47.422   6.933  11.863  0.00  0.00    +0.000 A 
ATOM     10  C   UNL     1      48.114   8.134  11.938  0.00  0.00    +0.000 A 
ATOM     11  N   UNL     1      47.520   9.338  12.052  0.00  0.00    +0.000 NA
ATOM     12  C   UNL     1      46.174   9.338  12.104  0.00  0.00    +0.000 A 
ATOM     13  C   UNL     1      45.399   8.188  12.048  0.00  0.00    +0.000 A 
ENDBRANCH   6   8
BRANCH   1  14
ATOM     14  C   UNL     1      44.495   2.962   9.221  0.00  0.00    +0.000 C 
BRANCH  14  15
ATOM     15  O   UNL     1      45.712   2.243   9.056  0.00  0.00    +0.000 OA
BRANCH  15  21
ATOM     16  C   UNL     1      46.851   1.122   7.105  0.00  0.00    +0.000 A 
ATOM     17  N   UNL     1      47.398   1.246   5.860  0.00  0.00    +0.000 NA
ATOM     18  C   UNL     1      47.398   2.467   5.293  0.00  0.00    +0.000 A 
ATOM     19  C   UNL     1      46.874   3.585   5.908  0.00  0.00    +0.000 A 
ATOM     20  C   UNL     1      46.318   3.441   7.178  0.00  0.00    +0.000 A 
ATOM     21  C   UNL     1      46.293   2.192   7.814  0.00  0.00    +0.000 A 
BRANCH  16  23
ATOM     22  N   UNL     1      47.025  -1.326   7.961  0.00  0.00    +0.000 NA
ATOM     23  C   UNL     1      46.921  -0.229   7.585  0.00  0.00    +0.000 C 
ENDBRANCH  16  23
ENDBRANCH  15  21
ENDBRANCH  14  15
ENDBRANCH   1  14
TORSDOF 5
ENDMDL
MODEL 5
REMARK VINA RESULT:    -6.489      1.716      2.963
REMARK INTER + INTRA:          -9.343
REMARK INTER:                  -8.778
REMARK INTRA:                  -0.565
REMARK UNBOUND:                -0.957
REMARK  Name = 
REMARK  5 active torsions:
REMARK  status: ('A' for Active; 'I' for Inactive)
REMARK    1  A    between atoms: C_2  and  C_3
REMARK    2  A    between atoms: C_8  and  O_9
REMARK    3  A    between atoms: O_9  and  C_10
REMARK    4  A    between atoms: C_10  and  C_11
REMARK    5  A    between atoms: C_16  and  C_17
REMARK                            x       y       z     vdW  Elec       q    Type
REMARK                         _______ _______ _______ _____ _____    ______ ____
ROOT
ATOM      1  C   UNL     1      45.306   6.481  11.416  0.00  0.00    +0.000 A 
ATOM      2  C   UNL     1      43.955   6.411  11.754  0.00  0.00    +0.000 A 
ATOM      3  C   UNL     1      43.153   5.441  11.169  0.00  0.00    +0.000 A 
ATOM      4  F   UNL     1      41.859   5.364  11.508  0.00  0.00    +0.000 F 
ATOM      5  C   UNL     1      43.670   4.535  10.245  0.00  0.00    +0.000 A 
ATOM      6  C   UNL     1      45.019   4.586   9.863  0.00  0.00    +0.000 A 
ATOM      7  C   UNL     1      45.817   5.584  10.460  0.00  0.00    +0.000 A 
ENDROOT
BRANCH   6   8
ATOM      8  C   UNL     1      45.590   3.634   8.881  0.00  0.00    +0.000 A 
ATOM      9  C   UNL     1      45.512   2.248   9.070  0.00  0.00    +0.000 A 
ATOM     10  C   UNL     1      46.046   1.395   8.115  0.00  0.00    +0.000 A 
ATOM     11  N   UNL     1      46.644   1.815   6.983  0.00  0.00    +0.000 NA
ATOM     12  C   UNL     1      46.720   3.148   6.806  0.00  0.00    +0.000 A 
ATOM     13  C   UNL     1      46.226   4.077   7.711  0.00  0.00    +0.000 A 
ENDBRANCH   6   8
BRANCH   1  14
ATOM     14  C   UNL     1      46.227   7.470  12.086  0.00  0.00    +0.000 C 
BRANCH  14  15
ATOM     15  O   UNL     1      47.496   6.875  12.338  0.00  0.00    +0.000 OA
BRANCH  15  21
ATOM     16  C   UNL     1      48.654   6.704  14.571  0.00  0.00    +0.000 A 
ATOM     17  N   UNL     1      48.777   6.045  15.761  0.00  0.00    +0.000 NA
ATOM     18  C   UNL     1      47.978   4.983  15.975  0.00  0.00    +0.000 A 
ATOM     19  C   UNL     1      47.051   4.537  15.057  0.00  0.00    +0.000 A 
ATOM     20  C   UNL     1      46.937   5.222  13.848  0.00  0.00    +0.000 A 
ATOM     21  C   UNL     1      47.745   6.334  13.573  0.00  0.00    +0.000 A 
BRANCH  16  23
ATOM     22  N   UNL     1      50.297   8.714  14.451  0.00  0.00    +0.000 NA
ATOM     23  C   UNL     1      49.565   7.809  14.478  0.00  0.00    +0.000 C 
ENDBRANCH  16  23
ENDBRANCH  15  21
ENDBRANCH  14  15
ENDBRANCH   1  14
TORSDOF 5
ENDMDL
MODEL 6
REMARK VINA RESULT:    -6.430      3.481      4.880
REMARK INTER + INTRA:          -9.266
REMARK INTER:                  -8.560
REMARK INTRA:                  -0.706
REMARK UNBOUND:                -0.957
REMARK  Name = 
REMARK  5 active torsions:
REMARK  status: ('A' for Active; 'I' for Inactive)
REMARK    1  A    between atoms: C_2  and  C_3
REMARK    2  A    between atoms: C_8  and  O_9
REMARK    3  A    between atoms: O_9  and  C_10
REMARK    4  A    between atoms: C_10  and  C_11
REMARK    5  A    between atoms: C_16  and  C_17
REMARK                            x       y       z     vdW  Elec       q    Type
REMARK                         _______ _______ _______ _____ _____    ______ ____
ROOT
ATOM      1  C   UNL     1      47.388   7.116  13.241  0.00  0.00    +0.000 A 
ATOM      2  C   UNL     1      46.673   8.313  13.306  0.00  0.00    +0.000 A 
ATOM      3  C   UNL     1      45.505   8.452  12.569  0.00  0.00    +0.000 A 
ATOM      4  F   UNL     1      44.811   9.595  12.645  0.00  0.00    +0.000 F 
ATOM      5  C   UNL     1      45.030   7.419  11.763  0.00  0.00    +0.000 A 
ATOM      6  C   UNL     1      45.731   6.208  11.656  0.00  0.00    +0.000 A 
ATOM      7  C   UNL     1      46.921   6.088  12.403  0.00  0.00    +0.000 A 
ENDROOT
BRANCH   6   8
ATOM      8  C   UNL     1      45.246   5.097  10.802  0.00  0.00    +0.000 A 
ATOM      9  C   UNL     1      45.473   5.082   9.420  0.00  0.00    +0.000 A 
ATOM     10  C   UNL     1      45.016   4.014   8.663  0.00  0.00    +0.000 A 
ATOM     11  N   UNL     1      44.357   2.956   9.176  0.00  0.00    +0.000 NA
ATOM     12  C   UNL     1      44.138   2.976  10.505  0.00  0.00    +0.000 A 
ATOM     13  C   UNL     1      44.547   4.006  11.340  0.00  0.00    +0.000 A 
ENDBRANCH   6   8
BRANCH   1  14
ATOM     14  C   UNL     1      48.619   6.898  14.085  0.00  0.00    +0.000 C 
BRANCH  14  15
ATOM     15  O   UNL     1      48.436   5.784  14.951  0.00  0.00    +0.000 OA
BRANCH  15  21
ATOM     16  C   UNL     1      48.139   5.211  17.389  0.00  0.00    +0.000 A 
ATOM     17  N   UNL     1      48.412   5.522  18.690  0.00  0.00    +0.000 NA
ATOM     18  C   UNL     1      49.177   6.603  18.930  0.00  0.00    +0.000 A 
ATOM     19  C   UNL     1      49.693   7.399  17.929  0.00  0.00    +0.000 A 
ATOM     20  C   UNL     1      49.406   7.067  16.606  0.00  0.00    +0.000 A 
ATOM     21  C   UNL     1      48.613   5.952  16.301  0.00  0.00    +0.000 A 
BRANCH  16  23
ATOM     22  N   UNL     1      46.626   3.101  17.242  0.00  0.00    +0.000 NA
ATOM     23  C   UNL     1      47.314   4.041  17.283  0.00  0.00    +0.000 C 
ENDBRANCH  16  23
ENDBRANCH  15  21
ENDBRANCH  14  15
ENDBRANCH   1  14
TORSDOF 5
ENDMDL
MODEL 7
REMARK VINA RESULT:    -6.337      3.716      5.630
REMARK INTER + INTRA:          -9.146
REMARK INTER:                  -8.400
REMARK INTRA:                  -0.746
REMARK UNBOUND:                -0.957
REMARK  Name = 
REMARK  5 active torsions:
REMARK  status: ('A' for Active; 'I' for Inactive)
REMARK    1  A    between atoms: C_2  and  C_3
REMARK    2  A    between atoms: C_8  and  O_9
REMARK    3  A    between atoms: O_9  and  C_10
REMARK    4  A    between atoms: C_10  and  C_11
REMARK    5  A    between atoms: C_16  and  C_17
REMARK                            x       y       z     vdW  Elec       q    Type
REMARK                         _______ _______ _______ _____ _____    ______ ____
ROOT
ATOM      1  C   UNL     1      47.594   6.964  13.897  0.00  0.00    +0.000 A 
ATOM      2  C   UNL     1      47.367   8.264  13.443  0.00  0.00    +0.000 A 
ATOM      3  C   UNL     1      46.391   8.493  12.483  0.00  0.00    +0.000 A 
ATOM      4  F   UNL     1      46.163   9.744  12.061  0.00  0.00    +0.000 F 
ATOM      5  C   UNL     1      45.631   7.448  11.960  0.00  0.00    +0.000 A 
ATOM      6  C   UNL     1      45.843   6.125  12.377  0.00  0.00    +0.000 A 
ATOM      7  C   UNL     1      46.846   5.910  13.344  0.00  0.00    +0.000 A 
ENDROOT
BRANCH   6   8
ATOM      8  C   UNL     1      45.049   4.998  11.832  0.00  0.00    +0.000 A 
ATOM      9  C   UNL     1      45.004   4.729  10.457  0.00  0.00    +0.000 A 
ATOM     10  C   UNL     1      44.261   3.653   9.994  0.00  0.00    +0.000 A 
ATOM     11  N   UNL     1      43.566   2.820  10.793  0.00  0.00    +0.000 NA
ATOM     12  C   UNL     1      43.609   3.084  12.113  0.00  0.00    +0.000 A 
ATOM     13  C   UNL     1      44.314   4.143  12.667  0.00  0.00    +0.000 A 
ENDBRANCH   6   8
BRANCH   1  14
ATOM     14  C   UNL     1      48.591   6.685  14.994  0.00  0.00    +0.000 C 
BRANCH  14  15
ATOM     15  O   UNL     1      48.503   5.327  15.411  0.00  0.00    +0.000 OA
BRANCH  15  21
ATOM     16  C   UNL     1      48.869   3.845  17.419  0.00  0.00    +0.000 A 
ATOM     17  N   UNL     1      48.879   3.725  18.779  0.00  0.00    +0.000 NA
ATOM     18  C   UNL     1      48.573   4.814  19.507  0.00  0.00    +0.000 A 
ATOM     19  C   UNL     1      48.255   6.033  18.946  0.00  0.00    +0.000 A 
ATOM     20  C   UNL     1      48.251   6.140  17.557  0.00  0.00    +0.000 A 
ATOM     21  C   UNL     1      48.561   5.036  16.750  0.00  0.00    +0.000 A 
BRANCH  16  23
ATOM     22  N   UNL     1      49.510   1.633  16.213  0.00  0.00    +0.000 NA
ATOM     23  C   UNL     1      49.210   2.610  16.772  0.00  0.00    +0.000 C 
ENDBRANCH  16  23
ENDBRANCH  15  21
ENDBRANCH  14  15
ENDBRANCH   1  14
TORSDOF 5
ENDMDL
MODEL 8
REMARK VINA RESULT:    -5.875      3.538      5.625
REMARK INTER + INTRA:          -8.549
REMARK INTER:                  -7.745
REMARK INTRA:                  -0.804
REMARK UNBOUND:                -0.957
REMARK  Name = 
REMARK  5 active torsions:
REMARK  status: ('A' for Active; 'I' for Inactive)
REMARK    1  A    between atoms: C_2  and  C_3
REMARK    2  A    between atoms: C_8  and  O_9
REMARK    3  A    between atoms: O_9  and  C_10
REMARK    4  A    between atoms: C_10  and  C_11
REMARK    5  A    between atoms: C_16  and  C_17
REMARK                            x       y       z     vdW  Elec       q    Type
REMARK                         _______ _______ _______ _____ _____    ______ ____
ROOT
ATOM      1  C   UNL     1      47.544   7.108  13.650  0.00  0.00    +0.000 A 
ATOM      2  C   UNL     1      47.018   8.391  13.489  0.00  0.00    +0.000 A 
ATOM      3  C   UNL     1      45.832   8.560  12.788  0.00  0.00    +0.000 A 
ATOM      4  F   UNL     1      45.319   9.790  12.649  0.00  0.00    +0.000 F 
ATOM      5  C   UNL     1      45.155   7.473  12.237  0.00  0.00    +0.000 A 
ATOM      6  C   UNL     1      45.663   6.171  12.359  0.00  0.00    +0.000 A 
ATOM      7  C   UNL     1      46.874   6.019  13.066  0.00  0.00    +0.000 A 
ENDROOT
BRANCH   6   8
ATOM      8  C   UNL     1      44.962   5.001  11.779  0.00  0.00    +0.000 A 
ATOM      9  C   UNL     1      44.998   4.732  10.404  0.00  0.00    +0.000 A 
ATOM     10  C   UNL     1      44.340   3.616   9.907  0.00  0.00    +0.000 A 
ATOM     11  N   UNL     1      43.657   2.743  10.674  0.00  0.00    +0.000 NA
ATOM     12  C   UNL     1      43.622   3.007  11.994  0.00  0.00    +0.000 A 
ATOM     13  C   UNL     1      44.239   4.104  12.579  0.00  0.00    +0.000 A 
ENDBRANCH   6   8
BRANCH   1  14
ATOM     14  C   UNL     1      48.788   6.874  14.471  0.00  0.00    +0.000 C 
BRANCH  14  15
ATOM     15  O   UNL     1      48.454   6.719  15.846  0.00  0.00    +0.000 OA
BRANCH  15  21
ATOM     16  C   UNL     1      49.868   5.086  17.147  0.00  0.00    +0.000 A 
ATOM     17  N   UNL     1      49.976   3.850  17.715  0.00  0.00    +0.000 NA
ATOM     18  C   UNL     1      48.925   3.016  17.610  0.00  0.00    +0.000 A 
ATOM     19  C   UNL     1      47.755   3.355  16.963  0.00  0.00    +0.000 A 
ATOM     20  C   UNL     1      47.660   4.621  16.389  0.00  0.00    +0.000 A 
ATOM     21  C   UNL     1      48.726   5.528  16.468  0.00  0.00    +0.000 A 
BRANCH  16  23
ATOM     22  N   UNL     1      52.005   6.518  17.521  0.00  0.00    +0.000 NA
ATOM     23  C   UNL     1      51.060   5.864  17.333  0.00  0.00    +0.000 C 
ENDBRANCH  16  23
ENDBRANCH  15  21
ENDBRANCH  14  15
ENDBRANCH   1  14
TORSDOF 5
ENDMDL
MODEL 9
REMARK VINA RESULT:    -5.821      3.095      6.740
REMARK INTER + INTRA:          -8.479
REMARK INTER:                  -7.771
REMARK INTRA:                  -0.708
REMARK UNBOUND:                -0.957
REMARK  Name = 
REMARK  5 active torsions:
REMARK  status: ('A' for Active; 'I' for Inactive)
REMARK    1  A    between atoms: C_2  and  C_3
REMARK    2  A    between atoms: C_8  and  O_9
REMARK    3  A    between atoms: O_9  and  C_10
REMARK    4  A    between atoms: C_10  and  C_11
REMARK    5  A    between atoms: C_16  and  C_17
REMARK                            x       y       z     vdW  Elec       q    Type
REMARK                         _______ _______ _______ _____ _____    ______ ____
ROOT
ATOM      1  C   UNL     1      47.103   7.130  12.369  0.00  0.00    +0.000 A 
ATOM      2  C   UNL     1      47.341   6.731  13.685  0.00  0.00    +0.000 A 
ATOM      3  C   UNL     1      48.618   6.855  14.216  0.00  0.00    +0.000 A 
ATOM      4  F   UNL     1      48.840   6.488  15.485  0.00  0.00    +0.000 F 
ATOM      5  C   UNL     1      49.670   7.367  13.461  0.00  0.00    +0.000 A 
ATOM      6  C   UNL     1      49.476   7.760  12.128  0.00  0.00    +0.000 A 
ATOM      7  C   UNL     1      48.176   7.618  11.600  0.00  0.00    +0.000 A 
ENDROOT
BRANCH   6   8
ATOM      8  C   UNL     1      50.582   8.305  11.304  0.00  0.00    +0.000 A 
ATOM      9  C   UNL     1      50.809   9.684  11.201  0.00  0.00    +0.000 A 
ATOM     10  C   UNL     1      51.867  10.147  10.432  0.00  0.00    +0.000 A 
ATOM     11  N   UNL     1      52.719   9.344   9.764  0.00  0.00    +0.000 NA
ATOM     12  C   UNL     1      52.495   8.020   9.863  0.00  0.00    +0.000 A 
ATOM     13  C   UNL     1      51.457   7.465  10.598  0.00  0.00    +0.000 A 
ENDBRANCH   6   8
BRANCH   1  14
ATOM     14  C   UNL     1      45.716   7.084  11.779  0.00  0.00    +0.000 C 
BRANCH  14  15
ATOM     15  O   UNL     1      45.660   6.141  10.714  0.00  0.00    +0.000 OA
BRANCH  15  21
ATOM     16  C   UNL     1      44.643   3.951   9.987  0.00  0.00    +0.000 A 
ATOM     17  N   UNL     1      43.871   2.872  10.311  0.00  0.00    +0.000 NA
ATOM     18  C   UNL     1      43.349   2.824  11.550  0.00  0.00    +0.000 A 
ATOM     19  C   UNL     1      43.558   3.804  12.497  0.00  0.00    +0.000 A 
ATOM     20  C   UNL     1      44.350   4.898  12.151  0.00  0.00    +0.000 A 
ATOM     21  C   UNL     1      44.917   4.999  10.874  0.00  0.00    +0.000 A 
BRANCH  16  23
ATOM     22  N   UNL     1      45.525   3.857   7.544  0.00  0.00    +0.000 NA
ATOM     23  C   UNL     1      45.129   3.872   8.639  0.00  0.00    +0.000 C 
ENDBRANCH  16  23
ENDBRANCH  15  21
ENDBRANCH  14  15
ENDBRANCH   1  14
TORSDOF 5
ENDMDL
