MODEL 1
REMARK VINA RESULT:    -7.085      0.000      0.000
REMARK INTER + INTRA:         -10.050
REMARK INTER:                  -9.364
REMARK INTRA:                  -0.686
REMARK UNBOUND:                -0.686
REMARK  Name = 
REMARK  6 active torsions:
REMARK  status: ('A' for Active; 'I' for Inactive)
REMARK    1  A    between atoms: C_2  and  O_3
REMARK    2  A    between atoms: C_2  and  C_4
REMARK    3  A    between atoms: C_7  and  O_8
REMARK    4  A    between atoms: O_8  and  C_9
REMARK    5  A    between atoms: C_9  and  C_10
REMARK    6  A    between atoms: C_10  and  C_11
REMARK                            x       y       z     vdW  Elec       q    Type
REMARK                         _______ _______ _______ _____ _____    ______ ____
ROOT
ATOM      1  C   UNL     1      46.880   2.307   7.209  0.00  0.00    +0.000 A 
ATOM      2  C   UNL     1      46.324   3.583   7.332  0.00  0.00    +0.000 A 
ATOM      3  C   UNL     1      45.308   3.792   8.268  0.00  0.00    +0.000 A 
ATOM      4  C   UNL     1      44.903   2.723   9.053  0.00  0.00    +0.000 A 
ATOM      5  N   UNL     1      45.406   1.476   8.926  0.00  0.00    +0.000 NA
ATOM      6  C   UNL     1      46.372   1.290   8.000  0.00  0.00    +0.000 A 
ENDROOT
BRANCH   1   8
ATOM      7  O   UNL     1      47.898   1.059   5.475  0.00  0.00    +0.000 OA
ATOM      8  C   UNL     1      47.967   1.980   6.269  0.00  0.00    +0.000 C 
BRANCH   8   9
ATOM      9  O   UNL     1      49.057   2.760   6.414  0.00  0.00    +0.000 OA
ATOM     10  H   UNL     1      49.831   2.330   6.825  0.00  0.00    +0.000 HD
ENDBRANCH   8   9
ENDBRANCH   1   8
BRANCH   4  11
ATOM     11  O   UNL     1      43.921   2.963   9.995  0.00  0.00    +0.000 OA
BRANCH  11  12
ATOM     12  C   UNL     1      43.632   4.364  10.106  0.00  0.00    +0.000 C 
BRANCH  12  13
ATOM     13  C   UNL     1      43.641   4.772  11.578  0.00  0.00    +0.000 C 
BRANCH  13  14
ATOM     14  C   UNL     1      45.003   5.262  12.005  0.00  0.00    +0.000 A 
ATOM     15  C   UNL     1      45.683   6.224  11.245  0.00  0.00    +0.000 A 
ATOM     16  C   UNL     1      46.954   6.658  11.626  0.00  0.00    +0.000 A 
ATOM     17  C   UNL     1      47.560   6.130  12.765  0.00  0.00    +0.000 A 
ATOM     18  C   UNL     1      46.898   5.163  13.520  0.00  0.00    +0.000 A 
ATOM     19  C   UNL     1      45.627   4.728  13.140  0.00  0.00    +0.000 A 
ENDBRANCH  13  14
ENDBRANCH  12  13
ENDBRANCH  11  12
ENDBRANCH   4  11
TORSDOF 6
ENDMDL
MODEL 2
REMARK VINA RESULT:    -7.043      2.574      6.271
REMARK INTER + INTRA:          -9.993
REMARK INTER:                  -9.519
REMARK INTRA:                  -0.474
REMARK UNBOUND:                -0.686
REMARK  Name = 
REMARK  6 active torsions:
REMARK  status: ('A' for Active; 'I' for Inactive)
REMARK    1  A    between atoms: C_2  and  O_3
REMARK    2  A    between atoms: C_2  and  C_4
REMARK    3  A    between atoms: C_7  and  O_8
REMARK    4  A    between atoms: O_8  and  C_9
REMARK    5  A    between atoms: C_9  and  C_10
REMARK    6  A    between atoms: C_10  and  C_11
REMARK                            x       y       z     vdW  Elec       q    Type
REMARK                         _______ _______ _______ _____ _____    ______ ____
ROOT
ATOM      1  C   UNL     1      46.329   4.345  13.391  0.00  0.00    +0.000 A 
ATOM      2  C   UNL     1      46.152   5.590  12.783  0.00  0.00    +0.000 A 
ATOM      3  C   UNL     1      45.387   5.673  11.617  0.00  0.00    +0.000 A 
ATOM      4  C   UNL     1      44.820   4.511  11.116  0.00  0.00    +0.000 A 
ATOM      5  N   UNL     1      45.007   3.293  11.671  0.00  0.00    +0.000 NA
ATOM      6  C   UNL     1      45.768   3.233  12.786  0.00  0.00    +0.000 A 
ENDROOT
BRANCH   1   8
ATOM      7  O   UNL     1      47.649   3.094  14.908  0.00  0.00    +0.000 OA
ATOM      8  C   UNL     1      47.100   4.146  14.632  0.00  0.00    +0.000 C 
BRANCH   8   9
ATOM      9  O   UNL     1      47.088   5.218  15.450  0.00  0.00    +0.000 OA
ATOM     10  H   UNL     1      46.620   6.003  15.109  0.00  0.00    +0.000 HD
ENDBRANCH   8   9
ENDBRANCH   1   8
BRANCH   4  11
ATOM     11  O   UNL     1      44.040   4.622   9.981  0.00  0.00    +0.000 OA
BRANCH  11  12
ATOM     12  C   UNL     1      44.399   3.639   9.000  0.00  0.00    +0.000 C 
BRANCH  12  13
ATOM     13  C   UNL     1      45.582   4.146   8.177  0.00  0.00    +0.000 C 
BRANCH  13  14
ATOM     14  C   UNL     1      46.250   3.023   7.423  0.00  0.00    +0.000 A 
ATOM     15  C   UNL     1      46.645   3.197   6.089  0.00  0.00    +0.000 A 
ATOM     16  C   UNL     1      47.240   2.149   5.384  0.00  0.00    +0.000 A 
ATOM     17  C   UNL     1      47.439   0.915   6.002  0.00  0.00    +0.000 A 
ATOM     18  C   UNL     1      47.037   0.727   7.324  0.00  0.00    +0.000 A 
ATOM     19  C   UNL     1      46.442   1.774   8.030  0.00  0.00    +0.000 A 
ENDBRANCH  13  14
ENDBRANCH  12  13
ENDBRANCH  11  12
ENDBRANCH   4  11
TORSDOF 6
ENDMDL
MODEL 3
REMARK VINA RESULT:    -6.720      2.803      6.184
REMARK INTER + INTRA:          -9.566
REMARK INTER:                  -8.984
REMARK INTRA:                  -0.582
REMARK UNBOUND:                -0.686
REMARK  Name = 
REMARK  6 active torsions:
REMARK  status: ('A' for Active; 'I' for Inactive)
REMARK    1  A    between atoms: C_2  and  O_3
REMARK    2  A    between atoms: C_2  and  C_4
REMARK    3  A    between atoms: C_7  and  O_8
REMARK    4  A    between atoms: O_8  and  C_9
REMARK    5  A    between atoms: C_9  and  C_10
REMARK    6  A    between atoms: C_10  and  C_11
REMARK                            x       y       z     vdW  Elec       q    Type
REMARK                         _______ _______ _______ _____ _____    ______ ____
ROOT
ATOM      1  C   UNL     1      46.839   6.092  12.757  0.00  0.00    +0.000 A 
ATOM      2  C   UNL     1      46.561   6.412  11.426  0.00  0.00    +0.000 A 
ATOM      3  C   UNL     1      45.506   5.763  10.780  0.00  0.00    +0.000 A 
ATOM      4  C   UNL     1      44.764   4.834  11.494  0.00  0.00    +0.000 A 
ATOM      5  N   UNL     1      45.039   4.488  12.771  0.00  0.00    +0.000 NA
ATOM      6  C   UNL     1      46.077   5.111  13.371  0.00  0.00    +0.000 A 
ENDROOT
BRANCH   1   8
ATOM      7  O   UNL     1      49.090   6.433  13.407  0.00  0.00    +0.000 OA
ATOM      8  C   UNL     1      47.915   6.727  13.539  0.00  0.00    +0.000 C 
BRANCH   8   9
ATOM      9  O   UNL     1      47.467   7.616  14.448  0.00  0.00    +0.000 OA
ATOM     10  H   UNL     1      47.459   7.305  15.373  0.00  0.00    +0.000 HD
ENDBRANCH   8   9
ENDBRANCH   1   8
BRANCH   4  11
ATOM     11  O   UNL     1      43.705   4.230  10.844  0.00  0.00    +0.000 OA
BRANCH  11  12
ATOM     12  C   UNL     1      44.044   3.895   9.491  0.00  0.00    +0.000 C 
BRANCH  12  13
ATOM     13  C   UNL     1      44.707   2.520   9.455  0.00  0.00    +0.000 C 
BRANCH  13  14
ATOM     14  C   UNL     1      45.664   2.400   8.295  0.00  0.00    +0.000 A 
ATOM     15  C   UNL     1      46.359   1.204   8.067  0.00  0.00    +0.000 A 
ATOM     16  C   UNL     1      47.264   1.101   7.008  0.00  0.00    +0.000 A 
ATOM     17  C   UNL     1      47.489   2.194   6.173  0.00  0.00    +0.000 A 
ATOM     18  C   UNL     1      46.814   3.392   6.400  0.00  0.00    +0.000 A 
ATOM     19  C   UNL     1      45.908   3.497   7.457  0.00  0.00    +0.000 A 
ENDBRANCH  13  14
ENDBRANCH  12  13
ENDBRANCH  11  12
ENDBRANCH   4  11
TORSDOF 6
ENDMDL
MODEL 4
REMARK VINA RESULT:    -6.538      1.127      1.539
REMARK INTER + INTRA:          -9.326
REMARK INTER:                  -8.708
REMARK INTRA:                  -0.619
REMARK UNBOUND:                -0.686
REMARK  Name = 
REMARK  6 active torsions:
REMARK  status: ('A' for Active; 'I' for Inactive)
REMARK    1  A    between atoms: C_2  and  O_3
REMARK    2  A    between atoms: C_2  and  C_4
REMARK    3  A    between atoms: C_7  and  O_8
REMARK    4  A    between atoms: O_8  and  C_9
REMARK    5  A    between atoms: C_9  and  C_10
REMARK    6  A    between atoms: C_10  and  C_11
REMARK                            x       y       z     vdW  Elec       q    Type
REMARK                         _______ _______ _______ _____ _____    ______ ____
ROOT
ATOM      1  C   UNL     1      46.423   2.692   7.653  0.00  0.00    +0.000 A 
ATOM      2  C   UNL     1      45.894   1.658   8.431  0.00  0.00    +0.000 A 
ATOM      3  C   UNL     1      44.879   1.949   9.345  0.00  0.00    +0.000 A 
ATOM      4  C   UNL     1      44.424   3.256   9.433  0.00  0.00    +0.000 A 
ATOM      5  N   UNL     1      44.945   4.274   8.714  0.00  0.00    +0.000 NA
ATOM      6  C   UNL     1      45.941   3.975   7.850  0.00  0.00    +0.000 A 
ENDROOT
BRANCH   1   8
ATOM      7  O   UNL     1      48.431   1.752   6.824  0.00  0.00    +0.000 OA
ATOM      8  C   UNL     1      47.482   2.494   6.646  0.00  0.00    +0.000 C 
BRANCH   8   9
ATOM      9  O   UNL     1      47.325   3.254   5.544  0.00  0.00    +0.000 OA
ATOM     10  H   UNL     1      46.403   3.400   5.260  0.00  0.00    +0.000 HD
ENDBRANCH   8   9
ENDBRANCH   1   8
BRANCH   4  11
ATOM     11  O   UNL     1      43.397   3.513  10.320  0.00  0.00    +0.000 OA
BRANCH  11  12
ATOM     12  C   UNL     1      43.732   4.583  11.215  0.00  0.00    +0.000 C 
BRANCH  12  13
ATOM     13  C   UNL     1      44.724   4.082  12.263  0.00  0.00    +0.000 C 
BRANCH  13  14
ATOM     14  C   UNL     1      45.836   5.076  12.489  0.00  0.00    +0.000 A 
ATOM     15  C   UNL     1      46.152   6.025  11.506  0.00  0.00    +0.000 A 
ATOM     16  C   UNL     1      47.198   6.928  11.705  0.00  0.00    +0.000 A 
ATOM     17  C   UNL     1      47.942   6.888  12.883  0.00  0.00    +0.000 A 
ATOM     18  C   UNL     1      47.644   5.939  13.860  0.00  0.00    +0.000 A 
ATOM     19  C   UNL     1      46.599   5.035  13.663  0.00  0.00    +0.000 A 
ENDBRANCH  13  14
ENDBRANCH  12  13
ENDBRANCH  11  12
ENDBRANCH   4  11
TORSDOF 6
ENDMDL
MODEL 5
REMARK VINA RESULT:    -5.981      3.521      5.916
REMARK INTER + INTRA:          -8.590
REMARK INTER:                  -7.875
REMARK INTRA:                  -0.715
REMARK UNBOUND:                -0.686
REMARK  Name = 
REMARK  6 active torsions:
REMARK  status: ('A' for Active; 'I' for Inactive)
REMARK    1  A    between atoms: C_2  and  O_3
REMARK    2  A    between atoms: C_2  and  C_4
REMARK    3  A    between atoms: C_7  and  O_8
REMARK    4  A    between atoms: O_8  and  C_9
REMARK    5  A    between atoms: C_9  and  C_10
REMARK    6  A    between atoms: C_10  and  C_11
REMARK                            x       y       z     vdW  Elec       q    Type
REMARK                         _______ _______ _______ _____ _____    ______ ____
ROOT
ATOM      1  C   UNL     1      47.102   6.566  12.951  0.00  0.00    +0.000 A 
ATOM      2  C   UNL     1      47.077   5.245  13.408  0.00  0.00    +0.000 A 
ATOM      3  C   UNL     1      45.855   4.571  13.465  0.00  0.00    +0.000 A 
ATOM      4  C   UNL     1      44.712   5.238  13.049  0.00  0.00    +0.000 A 
ATOM      5  N   UNL     1      44.711   6.524  12.636  0.00  0.00    +0.000 NA
ATOM      6  C   UNL     1      45.901   7.165  12.609  0.00  0.00    +0.000 A 
ENDROOT
BRANCH   1   8
ATOM      7  O   UNL     1      49.261   7.268  13.619  0.00  0.00    +0.000 OA
ATOM      8  C   UNL     1      48.335   7.364  12.833  0.00  0.00    +0.000 C 
BRANCH   8   9
ATOM      9  O   UNL     1      48.311   8.243  11.812  0.00  0.00    +0.000 OA
ATOM     10  H   UNL     1      49.009   8.925  11.827  0.00  0.00    +0.000 HD
ENDBRANCH   8   9
ENDBRANCH   1   8
BRANCH   4  11
ATOM     11  O   UNL     1      43.521   4.539  13.083  0.00  0.00    +0.000 OA
BRANCH  11  12
ATOM     12  C   UNL     1      43.020   4.292  11.762  0.00  0.00    +0.000 C 
BRANCH  12  13
ATOM     13  C   UNL     1      43.575   2.968  11.242  0.00  0.00    +0.000 C 
BRANCH  13  14
ATOM     14  C   UNL     1      44.450   3.175  10.031  0.00  0.00    +0.000 A 
ATOM     15  C   UNL     1      44.911   2.077   9.290  0.00  0.00    +0.000 A 
ATOM     16  C   UNL     1      45.741   2.267   8.184  0.00  0.00    +0.000 A 
ATOM     17  C   UNL     1      46.125   3.554   7.812  0.00  0.00    +0.000 A 
ATOM     18  C   UNL     1      45.683   4.652   8.549  0.00  0.00    +0.000 A 
ATOM     19  C   UNL     1      44.853   4.463   9.655  0.00  0.00    +0.000 A 
ENDBRANCH  13  14
ENDBRANCH  12  13
ENDBRANCH  11  12
ENDBRANCH   4  11
TORSDOF 6
ENDMDL
MODEL 6
REMARK VINA RESULT:    -5.714      4.339      6.837
REMARK INTER + INTRA:          -8.237
REMARK INTER:                  -7.893
REMARK INTRA:                  -0.344
REMARK UNBOUND:                -0.686
REMARK  Name = 
REMARK  6 active torsions:
REMARK  status: ('A' for Active; 'I' for Inactive)
REMARK    1  A    between atoms: C_2  and  O_3
REMARK    2  A    between atoms: C_2  and  C_4
REMARK    3  A    between atoms: C_7  and  O_8
REMARK    4  A    between atoms: O_8  and  C_9
REMARK    5  A    between atoms: C_9  and  C_10
REMARK    6  A    between atoms: C_10  and  C_11
REMARK                            x       y       z     vdW  Elec       q    Type
REMARK                         _______ _______ _______ _____ _____    ______ ____
ROOT
ATOM      1  C   UNL     1      44.720   5.200  12.128  0.00  0.00    +0.000 A 
ATOM      2  C   UNL     1      45.503   5.915  13.038  0.00  0.00    +0.000 A 
ATOM      3  C   UNL     1      46.404   5.220  13.848  0.00  0.00    +0.000 A 
ATOM      4  C   UNL     1      46.496   3.844  13.704  0.00  0.00    +0.000 A 
ATOM      5  N   UNL     1      45.724   3.132  12.854  0.00  0.00    +0.000 NA
ATOM      6  C   UNL     1      44.844   3.821  12.095  0.00  0.00    +0.000 A 
ENDROOT
BRANCH   1   8
ATOM      7  O   UNL     1      42.880   5.207  10.638  0.00  0.00    +0.000 OA
ATOM      8  C   UNL     1      43.752   5.833  11.214  0.00  0.00    +0.000 C 
BRANCH   8   9
ATOM      9  O   UNL     1      43.964   7.153  11.036  0.00  0.00    +0.000 OA
ATOM     10  H   UNL     1      44.725   7.385  10.471  0.00  0.00    +0.000 HD
ENDBRANCH   8   9
ENDBRANCH   1   8
BRANCH   4  11
ATOM     11  O   UNL     1      47.418   3.182  14.493  0.00  0.00    +0.000 OA
BRANCH  11  12
ATOM     12  C   UNL     1      47.702   3.914  15.694  0.00  0.00    +0.000 C 
BRANCH  12  13
ATOM     13  C   UNL     1      47.954   2.938  16.841  0.00  0.00    +0.000 C 
BRANCH  13  14
ATOM     14  C   UNL     1      49.392   2.981  17.294  0.00  0.00    +0.000 A 
ATOM     15  C   UNL     1      49.905   4.124  17.924  0.00  0.00    +0.000 A 
ATOM     16  C   UNL     1      51.243   4.173  18.321  0.00  0.00    +0.000 A 
ATOM     17  C   UNL     1      52.082   3.085  18.086  0.00  0.00    +0.000 A 
ATOM     18  C   UNL     1      51.585   1.949  17.448  0.00  0.00    +0.000 A 
ATOM     19  C   UNL     1      50.248   1.899  17.050  0.00  0.00    +0.000 A 
ENDBRANCH  13  14
ENDBRANCH  12  13
ENDBRANCH  11  12
ENDBRANCH   4  11
TORSDOF 6
ENDMDL
MODEL 7
REMARK VINA RESULT:    -5.694      3.626      6.498
REMARK INTER + INTRA:          -8.210
REMARK INTER:                  -7.683
REMARK INTRA:                  -0.527
REMARK UNBOUND:                -0.686
REMARK  Name = 
REMARK  6 active torsions:
REMARK  status: ('A' for Active; 'I' for Inactive)
REMARK    1  A    between atoms: C_2  and  O_3
REMARK    2  A    between atoms: C_2  and  C_4
REMARK    3  A    between atoms: C_7  and  O_8
REMARK    4  A    between atoms: O_8  and  C_9
REMARK    5  A    between atoms: C_9  and  C_10
REMARK    6  A    between atoms: C_10  and  C_11
REMARK                            x       y       z     vdW  Elec       q    Type
REMARK                         _______ _______ _______ _____ _____    ______ ____
ROOT
ATOM      1  C   UNL     1      47.960   5.839  14.703  0.00  0.00    +0.000 A 
ATOM      2  C   UNL     1      47.590   6.125  13.386  0.00  0.00    +0.000 A 
ATOM      3  C   UNL     1      46.646   5.310  12.756  0.00  0.00    +0.000 A 
ATOM      4  C   UNL     1      46.101   4.255  13.472  0.00  0.00    +0.000 A 
ATOM      5  N   UNL     1      46.470   3.944  14.734  0.00  0.00    +0.000 NA
ATOM      6  C   UNL     1      47.400   4.732  15.317  0.00  0.00    +0.000 A 
ENDROOT
BRANCH   1   8
ATOM      7  O   UNL     1      48.663   7.158  16.539  0.00  0.00    +0.000 OA
ATOM      8  C   UNL     1      48.931   6.642  15.468  0.00  0.00    +0.000 C 
BRANCH   8   9
ATOM      9  O   UNL     1      50.115   6.795  14.842  0.00  0.00    +0.000 OA
ATOM     10  H   UNL     1      50.288   7.684  14.479  0.00  0.00    +0.000 HD
ENDBRANCH   8   9
ENDBRANCH   1   8
BRANCH   4  11
ATOM     11  O   UNL     1      45.145   3.484  12.839  0.00  0.00    +0.000 OA
BRANCH  11  12
ATOM     12  C   UNL     1      43.886   4.167  12.763  0.00  0.00    +0.000 C 
BRANCH  12  13
ATOM     13  C   UNL     1      43.137   3.723  11.509  0.00  0.00    +0.000 C 
BRANCH  13  14
ATOM     14  C   UNL     1      44.083   3.492  10.356  0.00  0.00    +0.000 A 
ATOM     15  C   UNL     1      44.628   4.577   9.655  0.00  0.00    +0.000 A 
ATOM     16  C   UNL     1      45.483   4.363   8.572  0.00  0.00    +0.000 A 
ATOM     17  C   UNL     1      45.795   3.064   8.175  0.00  0.00    +0.000 A 
ATOM     18  C   UNL     1      45.248   1.978   8.856  0.00  0.00    +0.000 A 
ATOM     19  C   UNL     1      44.393   2.191   9.939  0.00  0.00    +0.000 A 
ENDBRANCH  13  14
ENDBRANCH  12  13
ENDBRANCH  11  12
ENDBRANCH   4  11
TORSDOF 6
ENDMDL
MODEL 8
REMARK VINA RESULT:    -5.388      4.138      6.498
REMARK INTER + INTRA:          -7.807
REMARK INTER:                  -7.474
REMARK INTRA:                  -0.332
REMARK UNBOUND:                -0.686
REMARK  Name = 
REMARK  6 active torsions:
REMARK  status: ('A' for Active; 'I' for Inactive)
REMARK    1  A    between atoms: C_2  and  O_3
REMARK    2  A    between atoms: C_2  and  C_4
REMARK    3  A    between atoms: C_7  and  O_8
REMARK    4  A    between atoms: O_8  and  C_9
REMARK    5  A    between atoms: C_9  and  C_10
REMARK    6  A    between atoms: C_10  and  C_11
REMARK                            x       y       z     vdW  Elec       q    Type
REMARK                         _______ _______ _______ _____ _____    ______ ____
ROOT
ATOM      1  C   UNL     1      44.649   4.790  11.709  0.00  0.00    +0.000 A 
ATOM      2  C   UNL     1      45.491   5.778  12.225  0.00  0.00    +0.000 A 
ATOM      3  C   UNL     1      46.467   5.417  13.157  0.00  0.00    +0.000 A 
ATOM      4  C   UNL     1      46.572   4.083  13.521  0.00  0.00    +0.000 A 
ATOM      5  N   UNL     1      45.747   3.120  13.058  0.00  0.00    +0.000 NA
ATOM      6  C   UNL     1      44.795   3.493  12.174  0.00  0.00    +0.000 A 
ENDROOT
BRANCH   1   8
ATOM      7  O   UNL     1      42.511   5.520  11.001  0.00  0.00    +0.000 OA
ATOM      8  C   UNL     1      43.599   5.055  10.709  0.00  0.00    +0.000 C 
BRANCH   8   9
ATOM      9  O   UNL     1      43.939   4.682   9.459  0.00  0.00    +0.000 OA
ATOM     10  H   UNL     1      43.195   4.453   8.871  0.00  0.00    +0.000 HD
ENDBRANCH   8   9
ENDBRANCH   1   8
BRANCH   4  11
ATOM     11  O   UNL     1      47.567   3.746  14.418  0.00  0.00    +0.000 OA
BRANCH  11  12
ATOM     12  C   UNL     1      47.525   4.579  15.586  0.00  0.00    +0.000 C 
BRANCH  12  13
ATOM     13  C   UNL     1      47.174   3.732  16.807  0.00  0.00    +0.000 C 
BRANCH  13  14
ATOM     14  C   UNL     1      47.620   4.397  18.085  0.00  0.00    +0.000 A 
ATOM     15  C   UNL     1      46.934   5.514  18.582  0.00  0.00    +0.000 A 
ATOM     16  C   UNL     1      47.363   6.146  19.751  0.00  0.00    +0.000 A 
ATOM     17  C   UNL     1      48.484   5.672  20.431  0.00  0.00    +0.000 A 
ATOM     18  C   UNL     1      49.181   4.570  19.938  0.00  0.00    +0.000 A 
ATOM     19  C   UNL     1      48.754   3.938  18.769  0.00  0.00    +0.000 A 
ENDBRANCH  13  14
ENDBRANCH  12  13
ENDBRANCH  11  12
ENDBRANCH   4  11
TORSDOF 6
ENDMDL
MODEL 9
REMARK VINA RESULT:    -5.386      4.615      7.586
REMARK INTER + INTRA:          -7.804
REMARK INTER:                  -7.387
REMARK INTRA:                  -0.417
REMARK UNBOUND:                -0.686
REMARK  Name = 
REMARK  6 active torsions:
REMARK  status: ('A' for Active; 'I' for Inactive)
REMARK    1  A    between atoms: C_2  and  O_3
REMARK    2  A    between atoms: C_2  and  C_4
REMARK    3  A    between atoms: C_7  and  O_8
REMARK    4  A    between atoms: O_8  and  C_9
REMARK    5  A    between atoms: C_9  and  C_10
REMARK    6  A    between atoms: C_10  and  C_11
REMARK                            x       y       z     vdW  Elec       q    Type
REMARK                         _______ _______ _______ _____ _____    ______ ____
ROOT
ATOM      1  C   UNL     1      47.881   4.424  16.679  0.00  0.00    +0.000 A 
ATOM      2  C   UNL     1      48.600   5.613  16.822  0.00  0.00    +0.000 A 
ATOM      3  C   UNL     1      48.691   6.485  15.734  0.00  0.00    +0.000 A 
ATOM      4  C   UNL     1      48.048   6.139  14.555  0.00  0.00    +0.000 A 
ATOM      5  N   UNL     1      47.377   4.979  14.388  0.00  0.00    +0.000 NA
ATOM      6  C   UNL     1      47.319   4.140  15.446  0.00  0.00    +0.000 A 
ENDROOT
BRANCH   1   8
ATOM      7  O   UNL     1      48.561   3.229  18.607  0.00  0.00    +0.000 OA
ATOM      8  C   UNL     1      47.706   3.443  17.765  0.00  0.00    +0.000 C 
BRANCH   8   9
ATOM      9  O   UNL     1      46.539   2.770  17.700  0.00  0.00    +0.000 OA
ATOM     10  H   UNL     1      46.504   2.051  17.042  0.00  0.00    +0.000 HD
ENDBRANCH   8   9
ENDBRANCH   1   8
BRANCH   4  11
ATOM     11  O   UNL     1      48.124   7.033  13.504  0.00  0.00    +0.000 OA
BRANCH  11  12
ATOM     12  C   UNL     1      47.494   6.511  12.326  0.00  0.00    +0.000 C 
BRANCH  12  13
ATOM     13  C   UNL     1      46.121   7.156  12.151  0.00  0.00    +0.000 C 
BRANCH  13  14
ATOM     14  C   UNL     1      45.057   6.122  11.878  0.00  0.00    +0.000 A 
ATOM     15  C   UNL     1      44.126   5.780  12.869  0.00  0.00    +0.000 A 
ATOM     16  C   UNL     1      43.157   4.804  12.624  0.00  0.00    +0.000 A 
ATOM     17  C   UNL     1      43.115   4.155  11.391  0.00  0.00    +0.000 A 
ATOM     18  C   UNL     1      44.046   4.477  10.404  0.00  0.00    +0.000 A 
ATOM     19  C   UNL     1      45.014   5.453  10.647  0.00  0.00    +0.000 A 
ENDBRANCH  13  14
ENDBRANCH  12  13
ENDBRANCH  11  12
ENDBRANCH   4  11
TORSDOF 6
ENDMDL
