MODEL 1
REMARK VINA RESULT:    -7.907      0.000      0.000
REMARK INTER + INTRA:         -11.747
REMARK INTER:                 -10.681
REMARK INTRA:                  -1.066
REMARK UNBOUND:                -1.066
REMARK  Name = 
REMARK  7 active torsions:
REMARK  status: ('A' for Active; 'I' for Inactive)
REMARK    1  A    between atoms: C_1  and  C_2
REMARK    2  A    between atoms: C_2  and  N_3
REMARK    3  A    between atoms: C_2  and  C_18
REMARK    4  A    between atoms: C_7  and  C_8
REMARK    5  A    between atoms: C_8  and  N_9
REMARK    6  A    between atoms: N_9  and  C_10
REMARK    7  A    between atoms: C_18  and  C_20
REMARK                            x       y       z     vdW  Elec       q    Type
REMARK                         _______ _______ _______ _____ _____    ______ ____
ROOT
ATOM      1  N   UNL     1      46.994   6.577  14.052  0.00  0.00    +0.000 N 
ATOM      2  C   UNL     1      46.218   5.609  13.433  0.00  0.00    +0.000 A 
ATOM      3  C   UNL     1      46.525   4.248  13.359  0.00  0.00    +0.000 A 
ATOM      4  N   UNL     1      45.714   3.311  12.800  0.00  0.00    +0.000 NA
ATOM      5  C   UNL     1      44.551   3.782  12.302  0.00  0.00    +0.000 A 
ATOM      6  C   UNL     1      44.234   5.133  12.367  0.00  0.00    +0.000 A 
ATOM      7  N   UNL     1      45.050   6.059  12.935  0.00  0.00    +0.000 NA
ATOM      8  H   UNL     1      46.600   7.482  13.797  0.00  0.00    +0.000 HD
ENDROOT
BRANCH   1  10
ATOM      9  C   UNL     1      48.974   7.139  12.719  0.00  0.00    +0.000 C 
ATOM     10  C   UNL     1      48.459   6.491  14.015  0.00  0.00    +0.000 C 
BRANCH  10  11
ATOM     11  C   UNL     1      49.083   7.197  15.243  0.00  0.00    +0.000 C 
ATOM     12  O   UNL     1      49.005   8.429  15.331  0.00  0.00    +0.000 OA
BRANCH  11  13
ATOM     13  C   UNL     1      49.762   6.462  16.337  0.00  0.00    +0.000 A 
ATOM     14  C   UNL     1      51.141   6.593  16.473  0.00  0.00    +0.000 A 
ATOM     15  S   UNL     1      51.770   5.874  17.883  0.00  0.00    +0.000 S 
ATOM     16  C   UNL     1      50.227   5.332  18.351  0.00  0.00    +0.000 A 
ATOM     17  N   UNL     1      50.040   4.704  19.540  0.00  0.00    +0.000 NA
ATOM     18  C   UNL     1      48.816   4.363  19.772  0.00  0.00    +0.000 A 
ATOM     19  N   UNL     1      47.776   4.547  18.897  0.00  0.00    +0.000 N 
ATOM     20  C   UNL     1      47.985   4.966  17.603  0.00  0.00    +0.000 A 
ATOM     21  O   UNL     1      47.198   4.684  16.704  0.00  0.00    +0.000 OA
ATOM     22  C   UNL     1      49.274   5.588  17.378  0.00  0.00    +0.000 A 
ATOM     23  H   UNL     1      46.881   4.120  19.085  0.00  0.00    +0.000 HD
ENDBRANCH  11  13
ENDBRANCH  10  11
ENDBRANCH   1  10
BRANCH   5  24
ATOM     24  C   UNL     1      43.613   2.801  11.636  0.00  0.00    +0.000 C 
BRANCH  24  25
ATOM     25  N   UNL     1      43.531   2.934  10.172  0.00  0.00    +0.000 NA
ATOM     26  H   UNL     1      43.025   2.126   9.809  0.00  0.00    +0.000 HD
BRANCH  25  27
ATOM     27  C   UNL     1      44.853   2.999   9.512  0.00  0.00    +0.000 C 
ATOM     28  C   UNL     1      45.200   1.689   8.783  0.00  0.00    +0.000 C 
ATOM     29  C   UNL     1      46.453   1.843   7.927  0.00  0.00    +0.000 C 
ATOM     30  C   UNL     1      46.335   3.036   6.986  0.00  0.00    +0.000 C 
ATOM     31  N   UNL     1      46.115   4.267   7.742  0.00  0.00    +0.000 NA
ATOM     32  C   UNL     1      44.874   4.193   8.521  0.00  0.00    +0.000 C 
ATOM     33  H   UNL     1      46.066   5.058   7.101  0.00  0.00    +0.000 HD
ENDBRANCH  25  27
ENDBRANCH  24  25
ENDBRANCH   5  24
TORSDOF 6
ENDMDL
MODEL 2
REMARK VINA RESULT:    -7.808      2.455      3.698
REMARK INTER + INTRA:         -11.612
REMARK INTER:                 -10.506
REMARK INTRA:                  -1.106
REMARK UNBOUND:                -1.066
REMARK  Name = 
REMARK  7 active torsions:
REMARK  status: ('A' for Active; 'I' for Inactive)
REMARK    1  A    between atoms: C_1  and  C_2
REMARK    2  A    between atoms: C_2  and  N_3
REMARK    3  A    between atoms: C_2  and  C_18
REMARK    4  A    between atoms: C_7  and  C_8
REMARK    5  A    between atoms: C_8  and  N_9
REMARK    6  A    between atoms: N_9  and  C_10
REMARK    7  A    between atoms: C_18  and  C_20
REMARK                            x       y       z     vdW  Elec       q    Type
REMARK                         _______ _______ _______ _____ _____    ______ ____
ROOT
ATOM      1  N   UNL     1      47.932   4.270  16.609  0.00  0.00    +0.000 N 
ATOM      2  C   UNL     1      47.453   4.734  15.393  0.00  0.00    +0.000 A 
ATOM      3  C   UNL     1      47.857   5.910  14.757  0.00  0.00    +0.000 A 
ATOM      4  N   UNL     1      47.416   6.308  13.534  0.00  0.00    +0.000 NA
ATOM      5  C   UNL     1      46.534   5.474  12.942  0.00  0.00    +0.000 A 
ATOM      6  C   UNL     1      46.122   4.302  13.565  0.00  0.00    +0.000 A 
ATOM      7  N   UNL     1      46.576   3.911  14.785  0.00  0.00    +0.000 NA
ATOM      8  H   UNL     1      47.336   3.491  16.886  0.00  0.00    +0.000 HD
ENDROOT
BRANCH   1  10
ATOM      9  C   UNL     1      46.993   5.722  18.348  0.00  0.00    +0.000 C 
ATOM     10  C   UNL     1      48.281   5.214  17.679  0.00  0.00    +0.000 C 
BRANCH  10  11
ATOM     11  C   UNL     1      49.194   4.540  18.732  0.00  0.00    +0.000 C 
ATOM     12  O   UNL     1      48.722   4.251  19.839  0.00  0.00    +0.000 OA
BRANCH  11  13
ATOM     13  C   UNL     1      50.614   4.205  18.471  0.00  0.00    +0.000 A 
ATOM     14  C   UNL     1      51.594   5.126  18.830  0.00  0.00    +0.000 A 
ATOM     15  S   UNL     1      53.186   4.541  18.675  0.00  0.00    +0.000 S 
ATOM     16  C   UNL     1      52.628   3.044  18.090  0.00  0.00    +0.000 A 
ATOM     17  N   UNL     1      53.494   2.029  17.837  0.00  0.00    +0.000 NA
ATOM     18  C   UNL     1      52.931   0.946  17.416  0.00  0.00    +0.000 A 
ATOM     19  N   UNL     1      51.588   0.808  17.174  0.00  0.00    +0.000 N 
ATOM     20  C   UNL     1      50.733   1.887  17.200  0.00  0.00    +0.000 A 
ATOM     21  O   UNL     1      49.694   1.897  16.549  0.00  0.00    +0.000 OA
ATOM     22  C   UNL     1      51.256   3.044  17.899  0.00  0.00    +0.000 A 
ATOM     23  H   UNL     1      51.245  -0.017  16.703  0.00  0.00    +0.000 HD
ENDBRANCH  11  13
ENDBRANCH  10  11
ENDBRANCH   1  10
BRANCH   5  24
ATOM     24  C   UNL     1      45.976   5.867  11.595  0.00  0.00    +0.000 C 
BRANCH  24  25
ATOM     25  N   UNL     1      44.582   5.450  11.366  0.00  0.00    +0.000 NA
ATOM     26  H   UNL     1      44.253   4.971  12.204  0.00  0.00    +0.000 HD
BRANCH  25  27
ATOM     27  C   UNL     1      44.422   4.541  10.209  0.00  0.00    +0.000 C 
ATOM     28  C   UNL     1      45.497   4.781   9.134  0.00  0.00    +0.000 C 
ATOM     29  C   UNL     1      45.459   3.700   8.059  0.00  0.00    +0.000 C 
ATOM     30  C   UNL     1      45.532   2.307   8.674  0.00  0.00    +0.000 C 
ATOM     31  N   UNL     1      44.425   2.099   9.604  0.00  0.00    +0.000 NA
ATOM     32  C   UNL     1      44.468   3.070  10.702  0.00  0.00    +0.000 C 
ATOM     33  H   UNL     1      44.471   1.155   9.986  0.00  0.00    +0.000 HD
ENDBRANCH  25  27
ENDBRANCH  24  25
ENDBRANCH   5  24
TORSDOF 6
ENDMDL
MODEL 3
REMARK VINA RESULT:    -7.361      2.053      2.550
REMARK INTER + INTRA:         -11.009
REMARK INTER:                 -10.105
REMARK INTRA:                  -0.904
REMARK UNBOUND:                -1.066
REMARK  Name = 
REMARK  7 active torsions:
REMARK  status: ('A' for Active; 'I' for Inactive)
REMARK    1  A    between atoms: C_1  and  C_2
REMARK    2  A    between atoms: C_2  and  N_3
REMARK    3  A    between atoms: C_2  and  C_18
REMARK    4  A    between atoms: C_7  and  C_8
REMARK    5  A    between atoms: C_8  and  N_9
REMARK    6  A    between atoms: N_9  and  C_10
REMARK    7  A    between atoms: C_18  and  C_20
REMARK                            x       y       z     vdW  Elec       q    Type
REMARK                         _______ _______ _______ _____ _____    ______ ____
ROOT
ATOM      1  N   UNL     1      47.359   7.377  14.074  0.00  0.00    +0.000 N 
ATOM      2  C   UNL     1      46.653   6.556  13.208  0.00  0.00    +0.000 A 
ATOM      3  C   UNL     1      46.649   5.159  13.236  0.00  0.00    +0.000 A 
ATOM      4  N   UNL     1      45.897   4.380  12.414  0.00  0.00    +0.000 NA
ATOM      5  C   UNL     1      45.123   5.053  11.535  0.00  0.00    +0.000 A 
ATOM      6  C   UNL     1      45.119   6.441  11.496  0.00  0.00    +0.000 A 
ATOM      7  N   UNL     1      45.870   7.210  12.328  0.00  0.00    +0.000 NA
ATOM      8  H   UNL     1      47.296   8.324  13.704  0.00  0.00    +0.000 HD
ENDROOT
BRANCH   1  10
ATOM      9  C   UNL     1      49.699   8.086  14.254  0.00  0.00    +0.000 C 
ATOM     10  C   UNL     1      48.683   6.975  14.566  0.00  0.00    +0.000 C 
BRANCH  10  11
ATOM     11  C   UNL     1      48.646   6.705  16.090  0.00  0.00    +0.000 C 
ATOM     12  O   UNL     1      48.554   7.663  16.867  0.00  0.00    +0.000 OA
BRANCH  11  13
ATOM     13  C   UNL     1      48.701   5.341  16.668  0.00  0.00    +0.000 A 
ATOM     14  C   UNL     1      47.516   4.618  16.785  0.00  0.00    +0.000 A 
ATOM     15  S   UNL     1      47.737   2.998  17.263  0.00  0.00    +0.000 S 
ATOM     16  C   UNL     1      49.422   3.209  17.363  0.00  0.00    +0.000 A 
ATOM     17  N   UNL     1      50.239   2.162  17.646  0.00  0.00    +0.000 NA
ATOM     18  C   UNL     1      51.494   2.463  17.673  0.00  0.00    +0.000 A 
ATOM     19  N   UNL     1      51.998   3.726  17.497  0.00  0.00    +0.000 N 
ATOM     20  C   UNL     1      51.178   4.831  17.443  0.00  0.00    +0.000 A 
ATOM     21  O   UNL     1      51.581   5.944  17.765  0.00  0.00    +0.000 OA
ATOM     22  C   UNL     1      49.790   4.529  17.158  0.00  0.00    +0.000 A 
ATOM     23  H   UNL     1      52.974   3.908  17.682  0.00  0.00    +0.000 HD
ENDBRANCH  11  13
ENDBRANCH  10  11
ENDBRANCH   1  10
BRANCH   5  24
ATOM     24  C   UNL     1      44.283   4.252  10.568  0.00  0.00    +0.000 C 
BRANCH  24  25
ATOM     25  N   UNL     1      44.460   4.623   9.154  0.00  0.00    +0.000 NA
ATOM     26  H   UNL     1      43.573   4.988   8.809  0.00  0.00    +0.000 HD
BRANCH  25  27
ATOM     27  C   UNL     1      44.871   3.491   8.295  0.00  0.00    +0.000 C 
ATOM     28  C   UNL     1      46.066   3.853   7.396  0.00  0.00    +0.000 C 
ATOM     29  C   UNL     1      46.619   2.623   6.684  0.00  0.00    +0.000 C 
ATOM     30  C   UNL     1      46.933   1.506   7.673  0.00  0.00    +0.000 C 
ATOM     31  N   UNL     1      45.735   1.131   8.420  0.00  0.00    +0.000 NA
ATOM     32  C   UNL     1      45.213   2.268   9.186  0.00  0.00    +0.000 C 
ATOM     33  H   UNL     1      45.954   0.366   9.057  0.00  0.00    +0.000 HD
ENDBRANCH  25  27
ENDBRANCH  24  25
ENDBRANCH   5  24
TORSDOF 6
ENDMDL
MODEL 4
REMARK VINA RESULT:    -7.303      3.521      8.311
REMARK INTER + INTRA:         -10.930
REMARK INTER:                 -10.323
REMARK INTRA:                  -0.607
REMARK UNBOUND:                -1.066
REMARK  Name = 
REMARK  7 active torsions:
REMARK  status: ('A' for Active; 'I' for Inactive)
REMARK    1  A    between atoms: C_1  and  C_2
REMARK    2  A    between atoms: C_2  and  N_3
REMARK    3  A    between atoms: C_2  and  C_18
REMARK    4  A    between atoms: C_7  and  C_8
REMARK    5  A    between atoms: C_8  and  N_9
REMARK    6  A    between atoms: N_9  and  C_10
REMARK    7  A    between atoms: C_18  and  C_20
REMARK                            x       y       z     vdW  Elec       q    Type
REMARK                         _______ _______ _______ _____ _____    ______ ____
ROOT
ATOM      1  N   UNL     1      46.650   5.396  14.005  0.00  0.00    +0.000 N 
ATOM      2  C   UNL     1      47.388   4.911  15.073  0.00  0.00    +0.000 A 
ATOM      3  C   UNL     1      48.081   5.692  16.002  0.00  0.00    +0.000 A 
ATOM      4  N   UNL     1      48.746   5.191  17.077  0.00  0.00    +0.000 NA
ATOM      5  C   UNL     1      48.699   3.847  17.207  0.00  0.00    +0.000 A 
ATOM      6  C   UNL     1      48.015   3.060  16.289  0.00  0.00    +0.000 A 
ATOM      7  N   UNL     1      47.348   3.572  15.222  0.00  0.00    +0.000 NA
ATOM      8  H   UNL     1      46.408   4.595  13.422  0.00  0.00    +0.000 HD
ENDROOT
BRANCH   1  10
ATOM      9  C   UNL     1      48.514   6.377  12.749  0.00  0.00    +0.000 C 
ATOM     10  C   UNL     1      47.088   6.596  13.281  0.00  0.00    +0.000 C 
BRANCH  10  11
ATOM     11  C   UNL     1      46.129   6.914  12.109  0.00  0.00    +0.000 C 
ATOM     12  O   UNL     1      45.863   8.096  11.855  0.00  0.00    +0.000 OA
BRANCH  11  13
ATOM     13  C   UNL     1      45.520   5.864  11.259  0.00  0.00    +0.000 A 
ATOM     14  C   UNL     1      45.862   5.816   9.910  0.00  0.00    +0.000 A 
ATOM     15  S   UNL     1      45.266   4.447   9.091  0.00  0.00    +0.000 S 
ATOM     16  C   UNL     1      44.500   3.881  10.501  0.00  0.00    +0.000 A 
ATOM     17  N   UNL     1      43.865   2.680  10.515  0.00  0.00    +0.000 NA
ATOM     18  C   UNL     1      43.345   2.370  11.655  0.00  0.00    +0.000 A 
ATOM     19  N   UNL     1      43.356   3.177  12.763  0.00  0.00    +0.000 N 
ATOM     20  C   UNL     1      43.786   4.484  12.703  0.00  0.00    +0.000 A 
ATOM     21  O   UNL     1      43.376   5.330  13.491  0.00  0.00    +0.000 OA
ATOM     22  C   UNL     1      44.595   4.791  11.541  0.00  0.00    +0.000 A 
ATOM     23  H   UNL     1      42.799   2.931  13.569  0.00  0.00    +0.000 HD
ENDBRANCH  11  13
ENDBRANCH  10  11
ENDBRANCH   1  10
BRANCH   5  24
ATOM     24  C   UNL     1      49.442   3.217  18.361  0.00  0.00    +0.000 C 
BRANCH  24  25
ATOM     25  N   UNL     1      50.821   3.704  18.538  0.00  0.00    +0.000 NA
ATOM     26  H   UNL     1      50.859   4.670  18.216  0.00  0.00    +0.000 HD
BRANCH  25  27
ATOM     27  C   UNL     1      51.823   2.916  17.787  0.00  0.00    +0.000 C 
ATOM     28  C   UNL     1      53.195   2.916  18.483  0.00  0.00    +0.000 C 
ATOM     29  C   UNL     1      54.152   1.927  17.826  0.00  0.00    +0.000 C 
ATOM     30  C   UNL     1      53.532   0.538  17.731  0.00  0.00    +0.000 C 
ATOM     31  N   UNL     1      52.288   0.583  16.966  0.00  0.00    +0.000 NA
ATOM     32  C   UNL     1      51.306   1.464  17.609  0.00  0.00    +0.000 C 
ATOM     33  H   UNL     1      51.899  -0.356  16.889  0.00  0.00    +0.000 HD
ENDBRANCH  25  27
ENDBRANCH  24  25
ENDBRANCH   5  24
TORSDOF 6
ENDMDL
MODEL 5
REMARK VINA RESULT:    -6.883      1.443      1.719
REMARK INTER + INTRA:         -10.364
REMARK INTER:                  -9.621
REMARK INTRA:                  -0.743
REMARK UNBOUND:                -1.066
REMARK  Name = 
REMARK  7 active torsions:
REMARK  status: ('A' for Active; 'I' for Inactive)
REMARK    1  A    between atoms: C_1  and  C_2
REMARK    2  A    between atoms: C_2  and  N_3
REMARK    3  A    between atoms: C_2  and  C_18
REMARK    4  A    between atoms: C_7  and  C_8
REMARK    5  A    between atoms: C_8  and  N_9
REMARK    6  A    between atoms: N_9  and  C_10
REMARK    7  A    between atoms: C_18  and  C_20
REMARK                            x       y       z     vdW  Elec       q    Type
REMARK                         _______ _______ _______ _____ _____    ______ ____
ROOT
ATOM      1  N   UNL     1      47.602   7.523  14.335  0.00  0.00    +0.000 N 
ATOM      2  C   UNL     1      46.840   6.745  13.478  0.00  0.00    +0.000 A 
ATOM      3  C   UNL     1      46.656   5.364  13.584  0.00  0.00    +0.000 A 
ATOM      4  N   UNL     1      45.851   4.635  12.765  0.00  0.00    +0.000 NA
ATOM      5  C   UNL     1      45.213   5.343  11.808  0.00  0.00    +0.000 A 
ATOM      6  C   UNL     1      45.389   6.716  11.691  0.00  0.00    +0.000 A 
ATOM      7  N   UNL     1      46.191   7.435  12.520  0.00  0.00    +0.000 NA
ATOM      8  H   UNL     1      47.680   8.446  13.910  0.00  0.00    +0.000 HD
ENDROOT
BRANCH   1  10
ATOM      9  C   UNL     1      50.049   7.623  14.216  0.00  0.00    +0.000 C 
ATOM     10  C   UNL     1      48.838   6.991  14.923  0.00  0.00    +0.000 C 
BRANCH  10  11
ATOM     11  C   UNL     1      48.898   7.285  16.441  0.00  0.00    +0.000 C 
ATOM     12  O   UNL     1      48.440   8.354  16.864  0.00  0.00    +0.000 OA
BRANCH  11  13
ATOM     13  C   UNL     1      49.468   6.333  17.425  0.00  0.00    +0.000 A 
ATOM     14  C   UNL     1      50.769   5.875  17.234  0.00  0.00    +0.000 A 
ATOM     15  S   UNL     1      51.379   4.960  18.534  0.00  0.00    +0.000 S 
ATOM     16  C   UNL     1      49.916   5.113  19.389  0.00  0.00    +0.000 A 
ATOM     17  N   UNL     1      49.790   4.620  20.648  0.00  0.00    +0.000 NA
ATOM     18  C   UNL     1      48.632   4.823  21.182  0.00  0.00    +0.000 A 
ATOM     19  N   UNL     1      47.575   5.424  20.548  0.00  0.00    +0.000 N 
ATOM     20  C   UNL     1      47.609   5.718  19.204  0.00  0.00    +0.000 A 
ATOM     21  O   UNL     1      46.581   5.791  18.538  0.00  0.00    +0.000 OA
ATOM     22  C   UNL     1      48.941   5.744  18.633  0.00  0.00    +0.000 A 
ATOM     23  H   UNL     1      46.660   5.411  20.975  0.00  0.00    +0.000 HD
ENDBRANCH  11  13
ENDBRANCH  10  11
ENDBRANCH   1  10
BRANCH   5  24
ATOM     24  C   UNL     1      44.326   4.594  10.841  0.00  0.00    +0.000 C 
BRANCH  24  25
ATOM     25  N   UNL     1      44.560   4.917   9.423  0.00  0.00    +0.000 NA
ATOM     26  H   UNL     1      43.736   5.401   9.068  0.00  0.00    +0.000 HD
BRANCH  25  27
ATOM     27  C   UNL     1      44.808   3.725   8.582  0.00  0.00    +0.000 C 
ATOM     28  C   UNL     1      46.045   3.900   7.684  0.00  0.00    +0.000 C 
ATOM     29  C   UNL     1      46.418   2.594   6.991  0.00  0.00    +0.000 C 
ATOM     30  C   UNL     1      46.567   1.458   7.997  0.00  0.00    +0.000 C 
ATOM     31  N   UNL     1      45.326   1.268   8.744  0.00  0.00    +0.000 NA
ATOM     32  C   UNL     1      44.970   2.479   9.492  0.00  0.00    +0.000 C 
ATOM     33  H   UNL     1      45.432   0.489   9.392  0.00  0.00    +0.000 HD
ENDBRANCH  25  27
ENDBRANCH  24  25
ENDBRANCH   5  24
TORSDOF 6
ENDMDL
MODEL 6
REMARK VINA RESULT:    -6.748      3.372      5.923
REMARK INTER + INTRA:         -10.181
REMARK INTER:                 -10.635
REMARK INTRA:                   0.454
REMARK UNBOUND:                -1.066
REMARK  Name = 
REMARK  7 active torsions:
REMARK  status: ('A' for Active; 'I' for Inactive)
REMARK    1  A    between atoms: C_1  and  C_2
REMARK    2  A    between atoms: C_2  and  N_3
REMARK    3  A    between atoms: C_2  and  C_18
REMARK    4  A    between atoms: C_7  and  C_8
REMARK    5  A    between atoms: C_8  and  N_9
REMARK    6  A    between atoms: N_9  and  C_10
REMARK    7  A    between atoms: C_18  and  C_20
REMARK                            x       y       z     vdW  Elec       q    Type
REMARK                         _______ _______ _______ _____ _____    ______ ____
ROOT
ATOM      1  N   UNL     1      44.038   4.619   9.695  0.00  0.00    +0.000 N 
ATOM      2  C   UNL     1      44.921   3.896   8.909  0.00  0.00    +0.000 A 
ATOM      3  C   UNL     1      44.955   2.503   8.798  0.00  0.00    +0.000 A 
ATOM      4  N   UNL     1      45.792   1.823   7.969  0.00  0.00    +0.000 NA
ATOM      5  C   UNL     1      46.619   2.593   7.229  0.00  0.00    +0.000 A 
ATOM      6  C   UNL     1      46.596   3.978   7.332  0.00  0.00    +0.000 A 
ATOM      7  N   UNL     1      45.750   4.648   8.158  0.00  0.00    +0.000 NA
ATOM      8  H   UNL     1      44.364   5.585   9.697  0.00  0.00    +0.000 HD
ENDROOT
BRANCH   1  10
ATOM      9  C   UNL     1      44.463   2.880  11.371  0.00  0.00    +0.000 C 
ATOM     10  C   UNL     1      43.599   4.096  10.995  0.00  0.00    +0.000 C 
BRANCH  10  11
ATOM     11  C   UNL     1      43.709   5.182  12.092  0.00  0.00    +0.000 C 
ATOM     12  O   UNL     1      42.744   5.379  12.841  0.00  0.00    +0.000 OA
BRANCH  11  13
ATOM     13  C   UNL     1      44.932   5.994  12.303  0.00  0.00    +0.000 A 
ATOM     14  C   UNL     1      45.091   7.164  11.565  0.00  0.00    +0.000 A 
ATOM     15  S   UNL     1      46.422   8.111  12.045  0.00  0.00    +0.000 S 
ATOM     16  C   UNL     1      46.857   6.978  13.237  0.00  0.00    +0.000 A 
ATOM     17  N   UNL     1      47.885   7.223  14.089  0.00  0.00    +0.000 NA
ATOM     18  C   UNL     1      48.092   6.286  14.952  0.00  0.00    +0.000 A 
ATOM     19  N   UNL     1      47.398   5.105  15.003  0.00  0.00    +0.000 N 
ATOM     20  C   UNL     1      46.516   4.740  14.011  0.00  0.00    +0.000 A 
ATOM     21  O   UNL     1      46.267   3.562  13.776  0.00  0.00    +0.000 OA
ATOM     22  C   UNL     1      46.070   5.839  13.178  0.00  0.00    +0.000 A 
ATOM     23  H   UNL     1      47.716   4.361  15.607  0.00  0.00    +0.000 HD
ENDBRANCH  11  13
ENDBRANCH  10  11
ENDBRANCH   1  10
BRANCH   5  24
ATOM     24  C   UNL     1      47.599   1.904   6.309  0.00  0.00    +0.000 C 
BRANCH  24  25
ATOM     25  N   UNL     1      47.236   0.522   5.955  0.00  0.00    +0.000 NA
ATOM     26  H   UNL     1      47.929  -0.103   6.365  0.00  0.00    +0.000 HD
BRANCH  25  27
ATOM     27  C   UNL     1      47.188   0.281   4.495  0.00  0.00    +0.000 C 
ATOM     28  C   UNL     1      46.829  -1.178   4.163  0.00  0.00    +0.000 C 
ATOM     29  C   UNL     1      46.565  -1.359   2.672  0.00  0.00    +0.000 C 
ATOM     30  C   UNL     1      45.529  -0.361   2.169  0.00  0.00    +0.000 C 
ATOM     31  N   UNL     1      45.976   1.009   2.414  0.00  0.00    +0.000 NA
ATOM     32  C   UNL     1      46.165   1.253   3.848  0.00  0.00    +0.000 C 
ATOM     33  H   UNL     1      45.286   1.664   2.048  0.00  0.00    +0.000 HD
ENDBRANCH  25  27
ENDBRANCH  24  25
ENDBRANCH   5  24
TORSDOF 6
ENDMDL
MODEL 7
REMARK VINA RESULT:    -6.650      2.200      2.819
REMARK INTER + INTRA:         -10.049
REMARK INTER:                  -8.814
REMARK INTRA:                  -1.235
REMARK UNBOUND:                -1.066
REMARK  Name = 
REMARK  7 active torsions:
REMARK  status: ('A' for Active; 'I' for Inactive)
REMARK    1  A    between atoms: C_1  and  C_2
REMARK    2  A    between atoms: C_2  and  N_3
REMARK    3  A    between atoms: C_2  and  C_18
REMARK    4  A    between atoms: C_7  and  C_8
REMARK    5  A    between atoms: C_8  and  N_9
REMARK    6  A    between atoms: N_9  and  C_10
REMARK    7  A    between atoms: C_18  and  C_20
REMARK                            x       y       z     vdW  Elec       q    Type
REMARK                         _______ _______ _______ _____ _____    ______ ____
ROOT
ATOM      1  N   UNL     1      48.425   7.901  14.503  0.00  0.00    +0.000 N 
ATOM      2  C   UNL     1      47.519   7.172  13.750  0.00  0.00    +0.000 A 
ATOM      3  C   UNL     1      47.567   5.792  13.533  0.00  0.00    +0.000 A 
ATOM      4  N   UNL     1      46.628   5.094  12.840  0.00  0.00    +0.000 NA
ATOM      5  C   UNL     1      45.606   5.831  12.355  0.00  0.00    +0.000 A 
ATOM      6  C   UNL     1      45.548   7.203  12.562  0.00  0.00    +0.000 A 
ATOM      7  N   UNL     1      46.488   7.890  13.262  0.00  0.00    +0.000 NA
ATOM      8  H   UNL     1      48.225   8.886  14.338  0.00  0.00    +0.000 HD
ENDROOT
BRANCH   1  10
ATOM      9  C   UNL     1      50.697   8.798  14.284  0.00  0.00    +0.000 C 
ATOM     10  C   UNL     1      49.848   7.536  14.513  0.00  0.00    +0.000 C 
BRANCH  10  11
ATOM     11  C   UNL     1      50.238   6.873  15.856  0.00  0.00    +0.000 C 
ATOM     12  O   UNL     1      51.424   6.586  16.061  0.00  0.00    +0.000 OA
BRANCH  11  13
ATOM     13  C   UNL     1      49.254   6.576  16.924  0.00  0.00    +0.000 A 
ATOM     14  C   UNL     1      48.835   5.260  17.100  0.00  0.00    +0.000 A 
ATOM     15  S   UNL     1      47.873   5.017  18.483  0.00  0.00    +0.000 S 
ATOM     16  C   UNL     1      47.951   6.668  18.885  0.00  0.00    +0.000 A 
ATOM     17  N   UNL     1      47.397   7.133  20.033  0.00  0.00    +0.000 NA
ATOM     18  C   UNL     1      47.547   8.402  20.218  0.00  0.00    +0.000 A 
ATOM     19  N   UNL     1      48.153   9.253  19.331  0.00  0.00    +0.000 N 
ATOM     20  C   UNL     1      48.511   8.845  18.065  0.00  0.00    +0.000 A 
ATOM     21  O   UNL     1      48.592   9.640  17.135  0.00  0.00    +0.000 OA
ATOM     22  C   UNL     1      48.596   7.407  17.905  0.00  0.00    +0.000 A 
ATOM     23  H   UNL     1      48.098  10.251  19.474  0.00  0.00    +0.000 HD
ENDBRANCH  11  13
ENDBRANCH  10  11
ENDBRANCH   1  10
BRANCH   5  24
ATOM     24  C   UNL     1      44.541   5.127  11.547  0.00  0.00    +0.000 C 
BRANCH  24  25
ATOM     25  N   UNL     1      44.543   5.460  10.113  0.00  0.00    +0.000 NA
ATOM     26  H   UNL     1      43.703   6.002   9.913  0.00  0.00    +0.000 HD
BRANCH  25  27
ATOM     27  C   UNL     1      44.558   4.271   9.233  0.00  0.00    +0.000 C 
ATOM     28  C   UNL     1      45.728   4.308   8.234  0.00  0.00    +0.000 C 
ATOM     29  C   UNL     1      45.865   2.984   7.489  0.00  0.00    +0.000 C 
ATOM     30  C   UNL     1      45.945   1.810   8.458  0.00  0.00    +0.000 C 
ATOM     31  N   UNL     1      44.756   1.763   9.306  0.00  0.00    +0.000 NA
ATOM     32  C   UNL     1      44.628   2.988  10.103  0.00  0.00    +0.000 C 
ATOM     33  H   UNL     1      44.811   0.959   9.929  0.00  0.00    +0.000 HD
ENDBRANCH  25  27
ENDBRANCH  24  25
ENDBRANCH   5  24
TORSDOF 6
ENDMDL
MODEL 8
REMARK VINA RESULT:    -6.557      2.541      3.554
REMARK INTER + INTRA:          -9.923
REMARK INTER:                  -9.098
REMARK INTRA:                  -0.825
REMARK UNBOUND:                -1.066
REMARK  Name = 
REMARK  7 active torsions:
REMARK  status: ('A' for Active; 'I' for Inactive)
REMARK    1  A    between atoms: C_1  and  C_2
REMARK    2  A    between atoms: C_2  and  N_3
REMARK    3  A    between atoms: C_2  and  C_18
REMARK    4  A    between atoms: C_7  and  C_8
REMARK    5  A    between atoms: C_8  and  N_9
REMARK    6  A    between atoms: N_9  and  C_10
REMARK    7  A    between atoms: C_18  and  C_20
REMARK                            x       y       z     vdW  Elec       q    Type
REMARK                         _______ _______ _______ _____ _____    ______ ____
ROOT
ATOM      1  N   UNL     1      49.195   7.789  15.393  0.00  0.00    +0.000 N 
ATOM      2  C   UNL     1      48.259   7.411  14.443  0.00  0.00    +0.000 A 
ATOM      3  C   UNL     1      47.756   6.119  14.268  0.00  0.00    +0.000 A 
ATOM      4  N   UNL     1      46.791   5.789  13.368  0.00  0.00    +0.000 NA
ATOM      5  C   UNL     1      46.325   6.815  12.624  0.00  0.00    +0.000 A 
ATOM      6  C   UNL     1      46.818   8.103  12.787  0.00  0.00    +0.000 A 
ATOM      7  N   UNL     1      47.778   8.423  13.694  0.00  0.00    +0.000 NA
ATOM      8  H   UNL     1      49.482   8.741  15.166  0.00  0.00    +0.000 HD
ENDROOT
BRANCH   1  10
ATOM      9  C   UNL     1      51.596   7.663  15.878  0.00  0.00    +0.000 C 
ATOM     10  C   UNL     1      50.279   6.875  15.774  0.00  0.00    +0.000 C 
BRANCH  10  11
ATOM     11  C   UNL     1      49.968   6.185  17.124  0.00  0.00    +0.000 C 
ATOM     12  O   UNL     1      49.818   6.884  18.135  0.00  0.00    +0.000 OA
BRANCH  11  13
ATOM     13  C   UNL     1      49.824   4.716  17.265  0.00  0.00    +0.000 A 
ATOM     14  C   UNL     1      48.568   4.147  17.071  0.00  0.00    +0.000 A 
ATOM     15  S   UNL     1      48.574   2.444  17.051  0.00  0.00    +0.000 S 
ATOM     16  C   UNL     1      50.251   2.401  17.332  0.00  0.00    +0.000 A 
ATOM     17  N   UNL     1      50.925   1.222  17.343  0.00  0.00    +0.000 NA
ATOM     18  C   UNL     1      52.194   1.340  17.550  0.00  0.00    +0.000 A 
ATOM     19  N   UNL     1      52.837   2.525  17.802  0.00  0.00    +0.000 N 
ATOM     20  C   UNL     1      52.142   3.692  18.026  0.00  0.00    +0.000 A 
ATOM     21  O   UNL     1      52.617   4.601  18.698  0.00  0.00    +0.000 OA
ATOM     22  C   UNL     1      50.769   3.665  17.564  0.00  0.00    +0.000 A 
ATOM     23  H   UNL     1      53.801   2.519  18.103  0.00  0.00    +0.000 HD
ENDBRANCH  11  13
ENDBRANCH  10  11
ENDBRANCH   1  10
BRANCH   5  24
ATOM     24  C   UNL     1      45.274   6.517  11.581  0.00  0.00    +0.000 C 
BRANCH  24  25
ATOM     25  N   UNL     1      45.797   5.921  10.340  0.00  0.00    +0.000 NA
ATOM     26  H   UNL     1      45.841   6.653   9.631  0.00  0.00    +0.000 HD
BRANCH  25  27
ATOM     27  C   UNL     1      44.964   4.813   9.824  0.00  0.00    +0.000 C 
ATOM     28  C   UNL     1      45.455   4.313   8.454  0.00  0.00    +0.000 C 
ATOM     29  C   UNL     1      44.734   3.035   8.037  0.00  0.00    +0.000 C 
ATOM     30  C   UNL     1      44.821   1.972   9.126  0.00  0.00    +0.000 C 
ATOM     31  N   UNL     1      44.241   2.466  10.373  0.00  0.00    +0.000 NA
ATOM     32  C   UNL     1      44.958   3.652  10.854  0.00  0.00    +0.000 C 
ATOM     33  H   UNL     1      44.282   1.735  11.082  0.00  0.00    +0.000 HD
ENDBRANCH  25  27
ENDBRANCH  24  25
ENDBRANCH   5  24
TORSDOF 6
ENDMDL
MODEL 9
REMARK VINA RESULT:    -6.409      2.119      3.184
REMARK INTER + INTRA:          -9.723
REMARK INTER:                  -8.666
REMARK INTRA:                  -1.057
REMARK UNBOUND:                -1.066
REMARK  Name = 
REMARK  7 active torsions:
REMARK  status: ('A' for Active; 'I' for Inactive)
REMARK    1  A    between atoms: C_1  and  C_2
REMARK    2  A    between atoms: C_2  and  N_3
REMARK    3  A    between atoms: C_2  and  C_18
REMARK    4  A    between atoms: C_7  and  C_8
REMARK    5  A    between atoms: C_8  and  N_9
REMARK    6  A    between atoms: N_9  and  C_10
REMARK    7  A    between atoms: C_18  and  C_20
REMARK                            x       y       z     vdW  Elec       q    Type
REMARK                         _______ _______ _______ _____ _____    ______ ____
ROOT
ATOM      1  N   UNL     1      49.200   6.450  15.543  0.00  0.00    +0.000 N 
ATOM      2  C   UNL     1      48.425   6.464  14.393  0.00  0.00    +0.000 A 
ATOM      3  C   UNL     1      48.561   7.365  13.334  0.00  0.00    +0.000 A 
ATOM      4  N   UNL     1      47.828   7.316  12.190  0.00  0.00    +0.000 NA
ATOM      5  C   UNL     1      46.928   6.312  12.127  0.00  0.00    +0.000 A 
ATOM      6  C   UNL     1      46.781   5.411  13.174  0.00  0.00    +0.000 A 
ATOM      7  N   UNL     1      47.525   5.465  14.310  0.00  0.00    +0.000 NA
ATOM      8  H   UNL     1      48.759   5.797  16.190  0.00  0.00    +0.000 HD
ENDROOT
BRANCH   1  10
ATOM      9  C   UNL     1      48.467   8.535  16.606  0.00  0.00    +0.000 C 
ATOM     10  C   UNL     1      49.675   7.707  16.136  0.00  0.00    +0.000 C 
BRANCH  10  11
ATOM     11  C   UNL     1      50.623   7.430  17.327  0.00  0.00    +0.000 C 
ATOM     12  O   UNL     1      50.394   7.974  18.415  0.00  0.00    +0.000 OA
BRANCH  11  13
ATOM     13  C   UNL     1      51.794   6.526  17.232  0.00  0.00    +0.000 A 
ATOM     14  C   UNL     1      53.038   7.075  16.933  0.00  0.00    +0.000 A 
ATOM     15  S   UNL     1      54.331   5.973  17.059  0.00  0.00    +0.000 S 
ATOM     16  C   UNL     1      53.273   4.711  17.488  0.00  0.00    +0.000 A 
ATOM     17  N   UNL     1      53.752   3.486  17.826  0.00  0.00    +0.000 NA
ATOM     18  C   UNL     1      52.838   2.631  18.145  0.00  0.00    +0.000 A 
ATOM     19  N   UNL     1      51.490   2.877  18.104  0.00  0.00    +0.000 N 
ATOM     20  C   UNL     1      50.981   4.028  17.544  0.00  0.00    +0.000 A 
ATOM     21  O   UNL     1      49.852   4.063  17.068  0.00  0.00    +0.000 OA
ATOM     22  C   UNL     1      51.946   5.101  17.409  0.00  0.00    +0.000 A 
ATOM     23  H   UNL     1      50.837   2.117  18.221  0.00  0.00    +0.000 HD
ENDBRANCH  11  13
ENDBRANCH  10  11
ENDBRANCH   1  10
BRANCH   5  24
ATOM     24  C   UNL     1      46.055   6.214  10.898  0.00  0.00    +0.000 C 
BRANCH  24  25
ATOM     25  N   UNL     1      44.766   5.536  11.117  0.00  0.00    +0.000 NA
ATOM     26  H   UNL     1      44.784   5.114  12.045  0.00  0.00    +0.000 HD
BRANCH  25  27
ATOM     27  C   UNL     1      44.481   4.478  10.123  0.00  0.00    +0.000 C 
ATOM     28  C   UNL     1      45.421   4.561   8.907  0.00  0.00    +0.000 C 
ATOM     29  C   UNL     1      45.269   3.343   8.002  0.00  0.00    +0.000 C 
ATOM     30  C   UNL     1      45.426   2.047   8.790  0.00  0.00    +0.000 C 
ATOM     31  N   UNL     1      44.436   1.975   9.862  0.00  0.00    +0.000 NA
ATOM     32  C   UNL     1      44.598   3.088  10.804  0.00  0.00    +0.000 C 
ATOM     33  H   UNL     1      44.535   1.093  10.362  0.00  0.00    +0.000 HD
ENDBRANCH  25  27
ENDBRANCH  24  25
ENDBRANCH   5  24
TORSDOF 6
ENDMDL
