MODEL 1
REMARK VINA RESULT:    -8.113      0.000      0.000
REMARK INTER + INTRA:         -12.483
REMARK INTER:                 -11.432
REMARK INTRA:                  -1.051
REMARK UNBOUND:                -1.051
REMARK  Name = 
REMARK  7 active torsions:
REMARK  status: ('A' for Active; 'I' for Inactive)
REMARK    1  A    between atoms: C_2  and  C_20
REMARK    2  A    between atoms: N_3  and  C_4
REMARK    3  A    between atoms: C_4  and  C_5
REMARK    4  A    between atoms: C_9  and  C_10
REMARK    5  A    between atoms: C_10  and  O_11
REMARK    6  A    between atoms: O_11  and  C_12
REMARK    7  A    between atoms: C_12  and  C_13
REMARK                            x       y       z     vdW  Elec       q    Type
REMARK                         _______ _______ _______ _____ _____    ______ ____
ROOT
ATOM      1  C   UNL     1      46.988   3.774  14.514  0.00  0.00    +0.000 C 
ENDROOT
BRANCH   1   2
ATOM      2  C   UNL     1      46.432   4.717  13.486  0.00  0.00    +0.000 A 
ATOM      3  C   UNL     1      46.954   6.003  13.338  0.00  0.00    +0.000 A 
ATOM      4  C   UNL     1      46.421   6.826  12.362  0.00  0.00    +0.000 A 
ATOM      5  N   UNL     1      45.412   6.463  11.540  0.00  0.00    +0.000 NA
ATOM      6  C   UNL     1      44.887   5.223  11.707  0.00  0.00    +0.000 A 
ATOM      7  C   UNL     1      45.367   4.332  12.666  0.00  0.00    +0.000 A 
BRANCH   6   8
ATOM      8  C   UNL     1      43.765   4.813  10.783  0.00  0.00    +0.000 C 
BRANCH   8   9
ATOM      9  O   UNL     1      44.200   3.736   9.953  0.00  0.00    +0.000 OA
BRANCH   9  10
ATOM     10  C   UNL     1      44.692   4.195   8.697  0.00  0.00    +0.000 C 
BRANCH  10  11
ATOM     11  C   UNL     1      45.622   3.166   8.119  0.00  0.00    +0.000 A 
ATOM     12  C   UNL     1      46.581   3.476   7.149  0.00  0.00    +0.000 A 
ATOM     13  C   UNL     1      47.435   2.484   6.674  0.00  0.00    +0.000 A 
ATOM     14  C   UNL     1      47.309   1.207   7.196  0.00  0.00    +0.000 A 
ATOM     15  N   UNL     1      46.405   0.868   8.139  0.00  0.00    +0.000 NA
ATOM     16  C   UNL     1      45.589   1.853   8.579  0.00  0.00    +0.000 A 
ENDBRANCH  10  11
ENDBRANCH   9  10
ENDBRANCH   8   9
ENDBRANCH   6   8
ENDBRANCH   1   2
BRANCH   1  19
ATOM     17  O   UNL     1      46.591   3.076  17.213  0.00  0.00    +0.000 OA
ATOM     18  C   UNL     1      47.196   4.112  16.941  0.00  0.00    +0.000 C 
ATOM     19  N   UNL     1      47.483   4.488  15.658  0.00  0.00    +0.000 N 
ATOM     20  H   UNL     1      47.952   5.367  15.482  0.00  0.00    +0.000 HD
BRANCH  18  21
ATOM     21  C   UNL     1      47.681   5.009  17.986  0.00  0.00    +0.000 A 
ATOM     22  C   UNL     1      46.799   5.721  18.786  0.00  0.00    +0.000 A 
ATOM     23  S   UNL     1      47.582   6.734  19.916  0.00  0.00    +0.000 S 
ATOM     24  C   UNL     1      49.121   6.259  19.363  0.00  0.00    +0.000 A 
ATOM     25  N   UNL     1      50.257   6.773  19.907  0.00  0.00    +0.000 NA
ATOM     26  C   UNL     1      51.348   6.299  19.407  0.00  0.00    +0.000 A 
ATOM     27  N   UNL     1      51.414   5.358  18.413  0.00  0.00    +0.000 N 
ATOM     28  C   UNL     1      50.298   4.832  17.811  0.00  0.00    +0.000 A 
ATOM     29  O   UNL     1      50.398   3.992  16.928  0.00  0.00    +0.000 OA
ATOM     30  C   UNL     1      49.039   5.324  18.348  0.00  0.00    +0.000 A 
ATOM     31  H   UNL     1      52.299   5.013  18.075  0.00  0.00    +0.000 HD
ENDBRANCH  18  21
ENDBRANCH   1  19
TORSDOF 7
ENDMDL
MODEL 2
REMARK VINA RESULT:    -8.112      2.023      3.107
REMARK INTER + INTRA:         -12.483
REMARK INTER:                 -11.958
REMARK INTRA:                  -0.524
REMARK UNBOUND:                -1.051
REMARK  Name = 
REMARK  7 active torsions:
REMARK  status: ('A' for Active; 'I' for Inactive)
REMARK    1  A    between atoms: C_2  and  C_20
REMARK    2  A    between atoms: N_3  and  C_4
REMARK    3  A    between atoms: C_4  and  C_5
REMARK    4  A    between atoms: C_9  and  C_10
REMARK    5  A    between atoms: C_10  and  O_11
REMARK    6  A    between atoms: O_11  and  C_12
REMARK    7  A    between atoms: C_12  and  C_13
REMARK                            x       y       z     vdW  Elec       q    Type
REMARK                         _______ _______ _______ _____ _____    ______ ____
ROOT
ATOM      1  C   UNL     1      46.387   7.277  12.320  0.00  0.00    +0.000 C 
ENDROOT
BRANCH   1   2
ATOM      2  C   UNL     1      45.402   6.202  11.962  0.00  0.00    +0.000 A 
ATOM      3  C   UNL     1      44.537   5.677  12.924  0.00  0.00    +0.000 A 
ATOM      4  C   UNL     1      43.634   4.702  12.539  0.00  0.00    +0.000 A 
ATOM      5  N   UNL     1      43.540   4.216  11.281  0.00  0.00    +0.000 NA
ATOM      6  C   UNL     1      44.403   4.708  10.357  0.00  0.00    +0.000 A 
ATOM      7  C   UNL     1      45.343   5.691  10.662  0.00  0.00    +0.000 A 
BRANCH   6   8
ATOM      8  C   UNL     1      44.295   4.171   8.950  0.00  0.00    +0.000 C 
BRANCH   8   9
ATOM      9  O   UNL     1      44.233   2.745   8.988  0.00  0.00    +0.000 OA
BRANCH   9  10
ATOM     10  C   UNL     1      45.522   2.157   9.139  0.00  0.00    +0.000 C 
BRANCH  10  11
ATOM     11  C   UNL     1      46.234   2.166   7.816  0.00  0.00    +0.000 A 
ATOM     12  C   UNL     1      46.184   3.255   6.940  0.00  0.00    +0.000 A 
ATOM     13  C   UNL     1      46.890   3.214   5.740  0.00  0.00    +0.000 A 
ATOM     14  C   UNL     1      47.638   2.083   5.459  0.00  0.00    +0.000 A 
ATOM     15  N   UNL     1      47.722   1.015   6.281  0.00  0.00    +0.000 NA
ATOM     16  C   UNL     1      47.024   1.084   7.437  0.00  0.00    +0.000 A 
ENDBRANCH  10  11
ENDBRANCH   9  10
ENDBRANCH   8   9
ENDBRANCH   6   8
ENDBRANCH   1   2
BRANCH   1  19
ATOM     17  O   UNL     1      48.864   6.113  12.982  0.00  0.00    +0.000 OA
ATOM     18  C   UNL     1      48.100   6.455  13.883  0.00  0.00    +0.000 C 
ATOM     19  N   UNL     1      46.908   7.084  13.644  0.00  0.00    +0.000 N 
ATOM     20  H   UNL     1      46.296   7.316  14.417  0.00  0.00    +0.000 HD
BRANCH  18  21
ATOM     21  C   UNL     1      48.430   6.239  15.288  0.00  0.00    +0.000 A 
ATOM     22  C   UNL     1      49.172   7.169  16.001  0.00  0.00    +0.000 A 
ATOM     23  S   UNL     1      49.472   6.697  17.615  0.00  0.00    +0.000 S 
ATOM     24  C   UNL     1      48.628   5.233  17.405  0.00  0.00    +0.000 A 
ATOM     25  N   UNL     1      48.514   4.332  18.417  0.00  0.00    +0.000 NA
ATOM     26  C   UNL     1      47.824   3.283  18.121  0.00  0.00    +0.000 A 
ATOM     27  N   UNL     1      47.235   3.046  16.906  0.00  0.00    +0.000 N 
ATOM     28  C   UNL     1      47.347   3.909  15.844  0.00  0.00    +0.000 A 
ATOM     29  O   UNL     1      46.806   3.663  14.776  0.00  0.00    +0.000 OA
ATOM     30  C   UNL     1      48.106   5.117  16.131  0.00  0.00    +0.000 A 
ATOM     31  H   UNL     1      46.692   2.213  16.741  0.00  0.00    +0.000 HD
ENDBRANCH  18  21
ENDBRANCH   1  19
TORSDOF 7
ENDMDL
MODEL 3
REMARK VINA RESULT:    -7.888      2.019      3.050
REMARK INTER + INTRA:         -12.167
REMARK INTER:                 -10.879
REMARK INTRA:                  -1.287
REMARK UNBOUND:                -1.051
REMARK  Name = 
REMARK  7 active torsions:
REMARK  status: ('A' for Active; 'I' for Inactive)
REMARK    1  A    between atoms: C_2  and  C_20
REMARK    2  A    between atoms: N_3  and  C_4
REMARK    3  A    between atoms: C_4  and  C_5
REMARK    4  A    between atoms: C_9  and  C_10
REMARK    5  A    between atoms: C_10  and  O_11
REMARK    6  A    between atoms: O_11  and  C_12
REMARK    7  A    between atoms: C_12  and  C_13
REMARK                            x       y       z     vdW  Elec       q    Type
REMARK                         _______ _______ _______ _____ _____    ______ ____
ROOT
ATOM      1  C   UNL     1      47.058   7.154  12.577  0.00  0.00    +0.000 C 
ENDROOT
BRANCH   1   2
ATOM      2  C   UNL     1      45.711   6.649  12.147  0.00  0.00    +0.000 A 
ATOM      3  C   UNL     1      44.727   7.530  11.696  0.00  0.00    +0.000 A 
ATOM      4  C   UNL     1      43.510   7.012  11.291  0.00  0.00    +0.000 A 
ATOM      5  N   UNL     1      43.207   5.695  11.312  0.00  0.00    +0.000 NA
ATOM      6  C   UNL     1      44.156   4.845  11.778  0.00  0.00    +0.000 A 
ATOM      7  C   UNL     1      45.409   5.285  12.205  0.00  0.00    +0.000 A 
BRANCH   6   8
ATOM      8  C   UNL     1      43.823   3.372  11.794  0.00  0.00    +0.000 C 
BRANCH   8   9
ATOM      9  O   UNL     1      44.788   2.657  11.022  0.00  0.00    +0.000 OA
BRANCH   9  10
ATOM     10  C   UNL     1      44.299   2.331   9.724  0.00  0.00    +0.000 C 
BRANCH  10  11
ATOM     11  C   UNL     1      45.373   2.589   8.706  0.00  0.00    +0.000 A 
ATOM     12  C   UNL     1      46.178   1.572   8.183  0.00  0.00    +0.000 A 
ATOM     13  C   UNL     1      47.138   1.871   7.220  0.00  0.00    +0.000 A 
ATOM     14  C   UNL     1      47.255   3.185   6.798  0.00  0.00    +0.000 A 
ATOM     15  N   UNL     1      46.492   4.194   7.268  0.00  0.00    +0.000 NA
ATOM     16  C   UNL     1      45.570   3.873   8.205  0.00  0.00    +0.000 A 
ENDBRANCH  10  11
ENDBRANCH   9  10
ENDBRANCH   8   9
ENDBRANCH   6   8
ENDBRANCH   1   2
BRANCH   1  19
ATOM     17  O   UNL     1      49.583   6.936  13.804  0.00  0.00    +0.000 OA
ATOM     18  C   UNL     1      48.571   6.706  14.464  0.00  0.00    +0.000 C 
ATOM     19  N   UNL     1      47.308   6.851  13.959  0.00  0.00    +0.000 N 
ATOM     20  H   UNL     1      46.506   6.616  14.530  0.00  0.00    +0.000 HD
BRANCH  18  21
ATOM     21  C   UNL     1      48.649   6.286  15.860  0.00  0.00    +0.000 A 
ATOM     22  C   UNL     1      49.211   7.109  16.825  0.00  0.00    +0.000 A 
ATOM     23  S   UNL     1      49.231   6.406  18.381  0.00  0.00    +0.000 S 
ATOM     24  C   UNL     1      48.501   4.978  17.809  0.00  0.00    +0.000 A 
ATOM     25  N   UNL     1      48.241   3.934  18.642  0.00  0.00    +0.000 NA
ATOM     26  C   UNL     1      47.660   2.932  18.073  0.00  0.00    +0.000 A 
ATOM     27  N   UNL     1      47.312   2.872  16.749  0.00  0.00    +0.000 N 
ATOM     28  C   UNL     1      47.580   3.885  15.863  0.00  0.00    +0.000 A 
ATOM     29  O   UNL     1      47.252   3.794  14.688  0.00  0.00    +0.000 OA
ATOM     30  C   UNL     1      48.224   5.046  16.457  0.00  0.00    +0.000 A 
ATOM     31  H   UNL     1      46.843   2.066  16.367  0.00  0.00    +0.000 HD
ENDBRANCH  18  21
ENDBRANCH   1  19
TORSDOF 7
ENDMDL
MODEL 4
REMARK VINA RESULT:    -7.879      1.742      2.210
REMARK INTER + INTRA:         -12.155
REMARK INTER:                 -11.036
REMARK INTRA:                  -1.119
REMARK UNBOUND:                -1.051
REMARK  Name = 
REMARK  7 active torsions:
REMARK  status: ('A' for Active; 'I' for Inactive)
REMARK    1  A    between atoms: C_2  and  C_20
REMARK    2  A    between atoms: N_3  and  C_4
REMARK    3  A    between atoms: C_4  and  C_5
REMARK    4  A    between atoms: C_9  and  C_10
REMARK    5  A    between atoms: C_10  and  O_11
REMARK    6  A    between atoms: O_11  and  C_12
REMARK    7  A    between atoms: C_12  and  C_13
REMARK                            x       y       z     vdW  Elec       q    Type
REMARK                         _______ _______ _______ _____ _____    ______ ____
ROOT
ATOM      1  C   UNL     1      47.529   4.802  14.326  0.00  0.00    +0.000 C 
ENDROOT
BRANCH   1   2
ATOM      2  C   UNL     1      46.413   5.409  13.526  0.00  0.00    +0.000 A 
ATOM      3  C   UNL     1      46.488   6.731  13.084  0.00  0.00    +0.000 A 
ATOM      4  C   UNL     1      45.443   7.237  12.332  0.00  0.00    +0.000 A 
ATOM      5  N   UNL     1      44.340   6.529  12.001  0.00  0.00    +0.000 NA
ATOM      6  C   UNL     1      44.258   5.254  12.458  0.00  0.00    +0.000 A 
ATOM      7  C   UNL     1      45.267   4.668  13.221  0.00  0.00    +0.000 A 
BRANCH   6   8
ATOM      8  C   UNL     1      43.031   4.459  12.083  0.00  0.00    +0.000 C 
BRANCH   8   9
ATOM      9  O   UNL     1      43.141   4.025  10.727  0.00  0.00    +0.000 OA
BRANCH   9  10
ATOM     10  C   UNL     1      43.951   2.860  10.602  0.00  0.00    +0.000 C 
BRANCH  10  11
ATOM     11  C   UNL     1      44.905   3.036   9.455  0.00  0.00    +0.000 A 
ATOM     12  C   UNL     1      45.489   1.955   8.786  0.00  0.00    +0.000 A 
ATOM     13  C   UNL     1      46.343   2.183   7.710  0.00  0.00    +0.000 A 
ATOM     14  C   UNL     1      46.578   3.492   7.326  0.00  0.00    +0.000 A 
ATOM     15  N   UNL     1      46.027   4.563   7.936  0.00  0.00    +0.000 NA
ATOM     16  C   UNL     1      45.204   4.310   8.979  0.00  0.00    +0.000 A 
ENDBRANCH  10  11
ENDBRANCH   9  10
ENDBRANCH   8   9
ENDBRANCH   6   8
ENDBRANCH   1   2
BRANCH   1  19
ATOM     17  O   UNL     1      49.597   6.404  15.368  0.00  0.00    +0.000 OA
ATOM     18  C   UNL     1      48.657   6.087  16.095  0.00  0.00    +0.000 C 
ATOM     19  N   UNL     1      47.585   5.364  15.647  0.00  0.00    +0.000 N 
ATOM     20  H   UNL     1      46.851   5.097  16.291  0.00  0.00    +0.000 HD
BRANCH  18  21
ATOM     21  C   UNL     1      48.606   6.491  17.497  0.00  0.00    +0.000 A 
ATOM     22  C   UNL     1      48.597   7.830  17.856  0.00  0.00    +0.000 A 
ATOM     23  S   UNL     1      48.571   8.074  19.547  0.00  0.00    +0.000 S 
ATOM     24  C   UNL     1      48.582   6.397  19.847  0.00  0.00    +0.000 A 
ATOM     25  N   UNL     1      48.582   5.907  21.115  0.00  0.00    +0.000 NA
ATOM     26  C   UNL     1      48.562   4.619  21.188  0.00  0.00    +0.000 A 
ATOM     27  N   UNL     1      48.542   3.771  20.111  0.00  0.00    +0.000 N 
ATOM     28  C   UNL     1      48.571   4.216  18.813  0.00  0.00    +0.000 A 
ATOM     29  O   UNL     1      48.550   3.427  17.879  0.00  0.00    +0.000 OA
ATOM     30  C   UNL     1      48.581   5.664  18.676  0.00  0.00    +0.000 A 
ATOM     31  H   UNL     1      48.509   2.771  20.233  0.00  0.00    +0.000 HD
ENDBRANCH  18  21
ENDBRANCH   1  19
TORSDOF 7
ENDMDL
MODEL 5
REMARK VINA RESULT:    -7.329      1.793      1.923
REMARK INTER + INTRA:         -11.380
REMARK INTER:                 -10.546
REMARK INTRA:                  -0.834
REMARK UNBOUND:                -1.051
REMARK  Name = 
REMARK  7 active torsions:
REMARK  status: ('A' for Active; 'I' for Inactive)
REMARK    1  A    between atoms: C_2  and  C_20
REMARK    2  A    between atoms: N_3  and  C_4
REMARK    3  A    between atoms: C_4  and  C_5
REMARK    4  A    between atoms: C_9  and  C_10
REMARK    5  A    between atoms: C_10  and  O_11
REMARK    6  A    between atoms: O_11  and  C_12
REMARK    7  A    between atoms: C_12  and  C_13
REMARK                            x       y       z     vdW  Elec       q    Type
REMARK                         _______ _______ _______ _____ _____    ______ ____
ROOT
ATOM      1  C   UNL     1      46.752   3.540  13.859  0.00  0.00    +0.000 C 
ENDROOT
BRANCH   1   2
ATOM      2  C   UNL     1      45.831   4.198  12.872  0.00  0.00    +0.000 A 
ATOM      3  C   UNL     1      45.408   5.515  13.058  0.00  0.00    +0.000 A 
ATOM      4  C   UNL     1      44.577   6.082  12.109  0.00  0.00    +0.000 A 
ATOM      5  N   UNL     1      44.138   5.434  11.007  0.00  0.00    +0.000 NA
ATOM      6  C   UNL     1      44.528   4.145  10.846  0.00  0.00    +0.000 A 
ATOM      7  C   UNL     1      45.365   3.499  11.755  0.00  0.00    +0.000 A 
BRANCH   6   8
ATOM      8  C   UNL     1      44.045   3.421   9.612  0.00  0.00    +0.000 C 
BRANCH   8   9
ATOM      9  O   UNL     1      44.491   4.117   8.447  0.00  0.00    +0.000 OA
BRANCH   9  10
ATOM     10  C   UNL     1      45.913   4.154   8.358  0.00  0.00    +0.000 C 
BRANCH  10  11
ATOM     11  C   UNL     1      46.381   3.095   7.401  0.00  0.00    +0.000 A 
ATOM     12  C   UNL     1      46.663   3.362   6.058  0.00  0.00    +0.000 A 
ATOM     13  C   UNL     1      47.122   2.343   5.228  0.00  0.00    +0.000 A 
ATOM     14  C   UNL     1      47.298   1.083   5.774  0.00  0.00    +0.000 A 
ATOM     15  N   UNL     1      47.048   0.784   7.066  0.00  0.00    +0.000 NA
ATOM     16  C   UNL     1      46.601   1.795   7.847  0.00  0.00    +0.000 A 
ENDBRANCH  10  11
ENDBRANCH   9  10
ENDBRANCH   8   9
ENDBRANCH   6   8
ENDBRANCH   1   2
BRANCH   1  19
ATOM     17  O   UNL     1      48.236   2.903  16.166  0.00  0.00    +0.000 OA
ATOM     18  C   UNL     1      47.792   4.041  16.031  0.00  0.00    +0.000 C 
ATOM     19  N   UNL     1      47.116   4.446  14.912  0.00  0.00    +0.000 N 
ATOM     20  H   UNL     1      46.739   5.384  14.862  0.00  0.00    +0.000 HD
BRANCH  18  21
ATOM     21  C   UNL     1      47.984   5.063  17.057  0.00  0.00    +0.000 A 
ATOM     22  C   UNL     1      47.541   4.864  18.357  0.00  0.00    +0.000 A 
ATOM     23  S   UNL     1      47.837   6.198  19.380  0.00  0.00    +0.000 S 
ATOM     24  C   UNL     1      48.554   7.084  18.115  0.00  0.00    +0.000 A 
ATOM     25  N   UNL     1      49.024   8.345  18.313  0.00  0.00    +0.000 NA
ATOM     26  C   UNL     1      49.567   8.880  17.272  0.00  0.00    +0.000 A 
ATOM     27  N   UNL     1      49.685   8.275  16.048  0.00  0.00    +0.000 N 
ATOM     28  C   UNL     1      49.200   7.017  15.790  0.00  0.00    +0.000 A 
ATOM     29  O   UNL     1      49.327   6.511  14.684  0.00  0.00    +0.000 OA
ATOM     30  C   UNL     1      48.589   6.363  16.936  0.00  0.00    +0.000 A 
ATOM     31  H   UNL     1      50.136   8.740  15.275  0.00  0.00    +0.000 HD
ENDBRANCH  18  21
ENDBRANCH   1  19
TORSDOF 7
ENDMDL
MODEL 6
REMARK VINA RESULT:    -7.150      2.520      3.148
REMARK INTER + INTRA:         -11.127
REMARK INTER:                 -10.133
REMARK INTRA:                  -0.994
REMARK UNBOUND:                -1.051
REMARK  Name = 
REMARK  7 active torsions:
REMARK  status: ('A' for Active; 'I' for Inactive)
REMARK    1  A    between atoms: C_2  and  C_20
REMARK    2  A    between atoms: N_3  and  C_4
REMARK    3  A    between atoms: C_4  and  C_5
REMARK    4  A    between atoms: C_9  and  C_10
REMARK    5  A    between atoms: C_10  and  O_11
REMARK    6  A    between atoms: O_11  and  C_12
REMARK    7  A    between atoms: C_12  and  C_13
REMARK                            x       y       z     vdW  Elec       q    Type
REMARK                         _______ _______ _______ _____ _____    ______ ____
ROOT
ATOM      1  C   UNL     1      47.623   7.171  12.272  0.00  0.00    +0.000 C 
ENDROOT
BRANCH   1   2
ATOM      2  C   UNL     1      46.726   5.968  12.315  0.00  0.00    +0.000 A 
ATOM      3  C   UNL     1      46.917   4.968  13.271  0.00  0.00    +0.000 A 
ATOM      4  C   UNL     1      46.051   3.890  13.282  0.00  0.00    +0.000 A 
ATOM      5  N   UNL     1      45.027   3.737  12.414  0.00  0.00    +0.000 NA
ATOM      6  C   UNL     1      44.863   4.696  11.468  0.00  0.00    +0.000 A 
ATOM      7  C   UNL     1      45.692   5.815  11.388  0.00  0.00    +0.000 A 
BRANCH   6   8
ATOM      8  C   UNL     1      43.714   4.531  10.502  0.00  0.00    +0.000 C 
BRANCH   8   9
ATOM      9  O   UNL     1      44.039   3.523   9.544  0.00  0.00    +0.000 OA
BRANCH   9  10
ATOM     10  C   UNL     1      44.731   4.058   8.419  0.00  0.00    +0.000 C 
BRANCH  10  11
ATOM     11  C   UNL     1      45.634   3.005   7.841  0.00  0.00    +0.000 A 
ATOM     12  C   UNL     1      46.423   3.226   6.708  0.00  0.00    +0.000 A 
ATOM     13  C   UNL     1      47.263   2.220   6.238  0.00  0.00    +0.000 A 
ATOM     14  C   UNL     1      47.296   1.020   6.928  0.00  0.00    +0.000 A 
ATOM     15  N   UNL     1      46.560   0.768   8.032  0.00  0.00    +0.000 NA
ATOM     16  C   UNL     1      45.752   1.765   8.462  0.00  0.00    +0.000 A 
ENDBRANCH  10  11
ENDBRANCH   9  10
ENDBRANCH   8   9
ENDBRANCH   6   8
ENDBRANCH   1   2
BRANCH   1  19
ATOM     17  O   UNL     1      48.137   8.711  14.573  0.00  0.00    +0.000 OA
ATOM     18  C   UNL     1      48.946   7.849  14.232  0.00  0.00    +0.000 C 
ATOM     19  N   UNL     1      48.738   7.019  13.165  0.00  0.00    +0.000 N 
ATOM     20  H   UNL     1      49.449   6.348  12.901  0.00  0.00    +0.000 HD
BRANCH  18  21
ATOM     21  C   UNL     1      50.186   7.630  14.972  0.00  0.00    +0.000 A 
ATOM     22  C   UNL     1      51.332   8.352  14.677  0.00  0.00    +0.000 A 
ATOM     23  S   UNL     1      52.672   7.910  15.639  0.00  0.00    +0.000 S 
ATOM     24  C   UNL     1      51.762   6.734  16.469  0.00  0.00    +0.000 A 
ATOM     25  N   UNL     1      52.322   5.963  17.439  0.00  0.00    +0.000 NA
ATOM     26  C   UNL     1      51.505   5.136  17.999  0.00  0.00    +0.000 A 
ATOM     27  N   UNL     1      50.178   5.006  17.682  0.00  0.00    +0.000 N 
ATOM     28  C   UNL     1      49.574   5.738  16.691  0.00  0.00    +0.000 A 
ATOM     29  O   UNL     1      48.386   5.593  16.439  0.00  0.00    +0.000 OA
ATOM     30  C   UNL     1      50.451   6.696  16.035  0.00  0.00    +0.000 A 
ATOM     31  H   UNL     1      49.585   4.352  18.169  0.00  0.00    +0.000 HD
ENDBRANCH  18  21
ENDBRANCH   1  19
TORSDOF 7
ENDMDL
MODEL 7
REMARK VINA RESULT:    -6.972      3.480      8.698
REMARK INTER + INTRA:         -10.876
REMARK INTER:                  -9.788
REMARK INTRA:                  -1.088
REMARK UNBOUND:                -1.051
REMARK  Name = 
REMARK  7 active torsions:
REMARK  status: ('A' for Active; 'I' for Inactive)
REMARK    1  A    between atoms: C_2  and  C_20
REMARK    2  A    between atoms: N_3  and  C_4
REMARK    3  A    between atoms: C_4  and  C_5
REMARK    4  A    between atoms: C_9  and  C_10
REMARK    5  A    between atoms: C_10  and  O_11
REMARK    6  A    between atoms: O_11  and  C_12
REMARK    7  A    between atoms: C_12  and  C_13
REMARK                            x       y       z     vdW  Elec       q    Type
REMARK                         _______ _______ _______ _____ _____    ______ ____
ROOT
ATOM      1  C   UNL     1      48.379   7.858  12.282  0.00  0.00    +0.000 C 
ENDROOT
BRANCH   1   2
ATOM      2  C   UNL     1      48.870   7.346  13.605  0.00  0.00    +0.000 A 
ATOM      3  C   UNL     1      50.073   7.801  14.146  0.00  0.00    +0.000 A 
ATOM      4  C   UNL     1      50.471   7.313  15.378  0.00  0.00    +0.000 A 
ATOM      5  N   UNL     1      49.765   6.410  16.095  0.00  0.00    +0.000 NA
ATOM      6  C   UNL     1      48.611   5.949  15.551  0.00  0.00    +0.000 A 
ATOM      7  C   UNL     1      48.139   6.389  14.315  0.00  0.00    +0.000 A 
BRANCH   6   8
ATOM      8  C   UNL     1      47.817   4.946  16.354  0.00  0.00    +0.000 C 
BRANCH   8   9
ATOM      9  O   UNL     1      48.656   4.363  17.351  0.00  0.00    +0.000 OA
BRANCH   9  10
ATOM     10  C   UNL     1      48.978   3.007  17.053  0.00  0.00    +0.000 C 
BRANCH  10  11
ATOM     11  C   UNL     1      50.420   2.751  17.386  0.00  0.00    +0.000 A 
ATOM     12  C   UNL     1      51.276   3.752  17.854  0.00  0.00    +0.000 A 
ATOM     13  C   UNL     1      52.596   3.446  18.174  0.00  0.00    +0.000 A 
ATOM     14  C   UNL     1      53.018   2.135  18.025  0.00  0.00    +0.000 A 
ATOM     15  N   UNL     1      52.223   1.136  17.587  0.00  0.00    +0.000 NA
ATOM     16  C   UNL     1      50.947   1.466  17.283  0.00  0.00    +0.000 A 
ENDBRANCH  10  11
ENDBRANCH   9  10
ENDBRANCH   8   9
ENDBRANCH   6   8
ENDBRANCH   1   2
BRANCH   1  19
ATOM     17  O   UNL     1      45.593   7.812  11.878  0.00  0.00    +0.000 OA
ATOM     18  C   UNL     1      46.275   6.871  11.475  0.00  0.00    +0.000 C 
ATOM     19  N   UNL     1      47.639   6.849  11.577  0.00  0.00    +0.000 N 
ATOM     20  H   UNL     1      48.156   6.037  11.262  0.00  0.00    +0.000 HD
BRANCH  18  21
ATOM     21  C   UNL     1      45.671   5.712  10.824  0.00  0.00    +0.000 A 
ATOM     22  C   UNL     1      45.793   5.514   9.457  0.00  0.00    +0.000 A 
ATOM     23  S   UNL     1      44.980   4.118   8.904  0.00  0.00    +0.000 S 
ATOM     24  C   UNL     1      44.433   3.744  10.472  0.00  0.00    +0.000 A 
ATOM     25  N   UNL     1      43.654   2.654  10.707  0.00  0.00    +0.000 NA
ATOM     26  C   UNL     1      43.340   2.482  11.947  0.00  0.00    +0.000 A 
ATOM     27  N   UNL     1      43.731   3.297  12.978  0.00  0.00    +0.000 N 
ATOM     28  C   UNL     1      44.491   4.424  12.788  0.00  0.00    +0.000 A 
ATOM     29  O   UNL     1      44.821   5.124  13.734  0.00  0.00    +0.000 OA
ATOM     30  C   UNL     1      44.883   4.657  11.407  0.00  0.00    +0.000 A 
ATOM     31  H   UNL     1      43.467   3.099  13.930  0.00  0.00    +0.000 HD
ENDBRANCH  18  21
ENDBRANCH   1  19
TORSDOF 7
ENDMDL
MODEL 8
REMARK VINA RESULT:    -6.758      3.618      8.361
REMARK INTER + INTRA:         -10.574
REMARK INTER:                  -9.316
REMARK INTRA:                  -1.258
REMARK UNBOUND:                -1.051
REMARK  Name = 
REMARK  7 active torsions:
REMARK  status: ('A' for Active; 'I' for Inactive)
REMARK    1  A    between atoms: C_2  and  C_20
REMARK    2  A    between atoms: N_3  and  C_4
REMARK    3  A    between atoms: C_4  and  C_5
REMARK    4  A    between atoms: C_9  and  C_10
REMARK    5  A    between atoms: C_10  and  O_11
REMARK    6  A    between atoms: O_11  and  C_12
REMARK    7  A    between atoms: C_12  and  C_13
REMARK                            x       y       z     vdW  Elec       q    Type
REMARK                         _______ _______ _______ _____ _____    ______ ____
ROOT
ATOM      1  C   UNL     1      49.130   8.221  14.809  0.00  0.00    +0.000 C 
ENDROOT
BRANCH   1   2
ATOM      2  C   UNL     1      49.105   8.122  16.307  0.00  0.00    +0.000 A 
ATOM      3  C   UNL     1      48.082   8.719  17.046  0.00  0.00    +0.000 A 
ATOM      4  C   UNL     1      48.094   8.580  18.422  0.00  0.00    +0.000 A 
ATOM      5  N   UNL     1      49.045   7.904  19.104  0.00  0.00    +0.000 NA
ATOM      6  C   UNL     1      50.053   7.351  18.384  0.00  0.00    +0.000 A 
ATOM      7  C   UNL     1      50.116   7.443  16.994  0.00  0.00    +0.000 A 
BRANCH   6   8
ATOM      8  C   UNL     1      51.112   6.588  19.143  0.00  0.00    +0.000 C 
BRANCH   8   9
ATOM      9  O   UNL     1      50.635   5.275  19.437  0.00  0.00    +0.000 OA
BRANCH   9  10
ATOM     10  C   UNL     1      51.300   4.279  18.665  0.00  0.00    +0.000 C 
BRANCH  10  11
ATOM     11  C   UNL     1      50.289   3.508  17.865  0.00  0.00    +0.000 A 
ATOM     12  C   UNL     1      48.939   3.871  17.804  0.00  0.00    +0.000 A 
ATOM     13  C   UNL     1      48.056   3.133  17.020  0.00  0.00    +0.000 A 
ATOM     14  C   UNL     1      48.556   2.056  16.308  0.00  0.00    +0.000 A 
ATOM     15  N   UNL     1      49.852   1.678  16.330  0.00  0.00    +0.000 NA
ATOM     16  C   UNL     1      50.684   2.413  17.102  0.00  0.00    +0.000 A 
ENDBRANCH  10  11
ENDBRANCH   9  10
ENDBRANCH   8   9
ENDBRANCH   6   8
ENDBRANCH   1   2
BRANCH   1  19
ATOM     17  O   UNL     1      48.898   6.145  12.920  0.00  0.00    +0.000 OA
ATOM     18  C   UNL     1      47.888   6.749  13.278  0.00  0.00    +0.000 C 
ATOM     19  N   UNL     1      47.909   7.726  14.236  0.00  0.00    +0.000 N 
ATOM     20  H   UNL     1      47.058   8.220  14.472  0.00  0.00    +0.000 HD
BRANCH  18  21
ATOM     21  C   UNL     1      46.575   6.441  12.719  0.00  0.00    +0.000 A 
ATOM     22  C   UNL     1      45.772   7.437  12.185  0.00  0.00    +0.000 A 
ATOM     23  S   UNL     1      44.267   6.860  11.621  0.00  0.00    +0.000 S 
ATOM     24  C   UNL     1      44.641   5.264  12.084  0.00  0.00    +0.000 A 
ATOM     25  N   UNL     1      43.756   4.248  11.894  0.00  0.00    +0.000 NA
ATOM     26  C   UNL     1      44.188   3.091  12.267  0.00  0.00    +0.000 A 
ATOM     27  N   UNL     1      45.421   2.850  12.814  0.00  0.00    +0.000 N 
ATOM     28  C   UNL     1      46.336   3.844  13.053  0.00  0.00    +0.000 A 
ATOM     29  O   UNL     1      47.427   3.589  13.542  0.00  0.00    +0.000 OA
ATOM     30  C   UNL     1      45.903   5.170  12.638  0.00  0.00    +0.000 A 
ATOM     31  H   UNL     1      45.707   1.918  13.070  0.00  0.00    +0.000 HD
ENDBRANCH  18  21
ENDBRANCH   1  19
TORSDOF 7
ENDMDL
MODEL 9
REMARK VINA RESULT:    -6.628      3.500      8.830
REMARK INTER + INTRA:         -10.391
REMARK INTER:                  -9.373
REMARK INTRA:                  -1.018
REMARK UNBOUND:                -1.051
REMARK  Name = 
REMARK  7 active torsions:
REMARK  status: ('A' for Active; 'I' for Inactive)
REMARK    1  A    between atoms: C_2  and  C_20
REMARK    2  A    between atoms: N_3  and  C_4
REMARK    3  A    between atoms: C_4  and  C_5
REMARK    4  A    between atoms: C_9  and  C_10
REMARK    5  A    between atoms: C_10  and  O_11
REMARK    6  A    between atoms: O_11  and  C_12
REMARK    7  A    between atoms: C_12  and  C_13
REMARK                            x       y       z     vdW  Elec       q    Type
REMARK                         _______ _______ _______ _____ _____    ______ ____
ROOT
ATOM      1  C   UNL     1      48.885   7.573  15.417  0.00  0.00    +0.000 C 
ENDROOT
BRANCH   1   2
ATOM      2  C   UNL     1      49.056   6.744  16.657  0.00  0.00    +0.000 A 
ATOM      3  C   UNL     1      49.191   7.348  17.908  0.00  0.00    +0.000 A 
ATOM      4  C   UNL     1      49.326   6.539  19.021  0.00  0.00    +0.000 A 
ATOM      5  N   UNL     1      49.343   5.188  18.974  0.00  0.00    +0.000 NA
ATOM      6  C   UNL     1      49.242   4.606  17.753  0.00  0.00    +0.000 A 
ATOM      7  C   UNL     1      49.102   5.349  16.581  0.00  0.00    +0.000 A 
BRANCH   6   8
ATOM      8  C   UNL     1      49.253   3.097  17.699  0.00  0.00    +0.000 C 
BRANCH   8   9
ATOM      9  O   UNL     1      50.329   2.658  16.869  0.00  0.00    +0.000 OA
BRANCH   9  10
ATOM     10  C   UNL     1      50.995   1.522  17.413  0.00  0.00    +0.000 C 
BRANCH  10  11
ATOM     11  C   UNL     1      52.415   1.886  17.742  0.00  0.00    +0.000 A 
ATOM     12  C   UNL     1      52.752   3.039  18.458  0.00  0.00    +0.000 A 
ATOM     13  C   UNL     1      54.085   3.306  18.758  0.00  0.00    +0.000 A 
ATOM     14  C   UNL     1      55.045   2.400  18.339  0.00  0.00    +0.000 A 
ATOM     15  N   UNL     1      54.762   1.270  17.656  0.00  0.00    +0.000 NA
ATOM     16  C   UNL     1      53.459   1.040  17.378  0.00  0.00    +0.000 A 
ENDBRANCH  10  11
ENDBRANCH   9  10
ENDBRANCH   8   9
ENDBRANCH   6   8
ENDBRANCH   1   2
BRANCH   1  19
ATOM     17  O   UNL     1      48.874   6.108  13.012  0.00  0.00    +0.000 OA
ATOM     18  C   UNL     1      47.808   6.502  13.482  0.00  0.00    +0.000 C 
ATOM     19  N   UNL     1      47.724   7.164  14.676  0.00  0.00    +0.000 N 
ATOM     20  H   UNL     1      46.827   7.499  15.006  0.00  0.00    +0.000 HD
BRANCH  18  21
ATOM     21  C   UNL     1      46.538   6.259  12.803  0.00  0.00    +0.000 A 
ATOM     22  C   UNL     1      45.835   7.296  12.208  0.00  0.00    +0.000 A 
ATOM     23  S   UNL     1      44.362   6.793  11.504  0.00  0.00    +0.000 S 
ATOM     24  C   UNL     1      44.617   5.179  11.983  0.00  0.00    +0.000 A 
ATOM     25  N   UNL     1      43.707   4.207  11.703  0.00  0.00    +0.000 NA
ATOM     26  C   UNL     1      44.048   3.029  12.103  0.00  0.00    +0.000 A 
ATOM     27  N   UNL     1      45.214   2.726  12.756  0.00  0.00    +0.000 N 
ATOM     28  C   UNL     1      46.148   3.675  13.088  0.00  0.00    +0.000 A 
ATOM     29  O   UNL     1      47.178   3.365  13.671  0.00  0.00    +0.000 OA
ATOM     30  C   UNL     1      45.818   5.022  12.648  0.00  0.00    +0.000 A 
ATOM     31  H   UNL     1      45.432   1.781  13.028  0.00  0.00    +0.000 HD
ENDBRANCH  18  21
ENDBRANCH   1  19
TORSDOF 7
ENDMDL
