MODEL 1
REMARK VINA RESULT:    -7.648      0.000      0.000
REMARK INTER + INTRA:         -10.745
REMARK INTER:                  -9.884
REMARK INTRA:                  -0.861
REMARK UNBOUND:                -0.861
REMARK  Name = 
REMARK  5 active torsions:
REMARK  status: ('A' for Active; 'I' for Inactive)
REMARK    1  A    between atoms: C_2  and  C_3
REMARK    2  A    between atoms: C_8  and  O_9
REMARK    3  A    between atoms: O_9  and  C_10
REMARK    4  A    between atoms: C_10  and  C_11
REMARK    5  A    between atoms: C_16  and  C_17
REMARK                            x       y       z     vdW  Elec       q    Type
REMARK                         _______ _______ _______ _____ _____    ______ ____
ROOT
ATOM      1  C   UNL     1      43.941   4.851  10.574  0.00  0.00    +0.000 A 
ATOM      2  C   UNL     1      43.319   3.880  11.365  0.00  0.00    +0.000 A 
ATOM      3  C   UNL     1      43.498   2.536  11.072  0.00  0.00    +0.000 A 
ATOM      4  F   UNL     1      42.880   1.610  11.819  0.00  0.00    +0.000 F 
ATOM      5  C   UNL     1      44.304   2.127  10.014  0.00  0.00    +0.000 A 
ATOM      6  C   UNL     1      44.959   3.071   9.207  0.00  0.00    +0.000 A 
ATOM      7  C   UNL     1      44.756   4.434   9.509  0.00  0.00    +0.000 A 
ENDROOT
BRANCH   6   8
ATOM      8  C   UNL     1      45.825   2.659   8.083  0.00  0.00    +0.000 A 
ATOM      9  C   UNL     1      46.090   3.498   6.991  0.00  0.00    +0.000 A 
ATOM     10  C   UNL     1      46.925   3.075   5.957  0.00  0.00    +0.000 A 
ATOM     11  C   UNL     1      47.488   1.815   6.040  0.00  0.00    +0.000 A 
ATOM     12  N   UNL     1      47.264   0.965   7.061  0.00  0.00    +0.000 NA
ATOM     13  C   UNL     1      46.439   1.404   8.042  0.00  0.00    +0.000 A 
ENDBRANCH   6   8
BRANCH   1  14
ATOM     14  C   UNL     1      43.740   6.319  10.849  0.00  0.00    +0.000 C 
BRANCH  14  15
ATOM     15  O   UNL     1      44.045   6.601  12.215  0.00  0.00    +0.000 OA
BRANCH  15  21
ATOM     16  C   UNL     1      47.019   5.121  13.890  0.00  0.00    +0.000 A 
ATOM     17  C   UNL     1      48.016   5.905  13.312  0.00  0.00    +0.000 A 
ATOM     18  C   UNL     1      47.663   6.891  12.396  0.00  0.00    +0.000 A 
ATOM     19 CL   UNL     1      48.892   7.862  11.684  0.00  0.00    +0.000 Cl
ATOM     20  C   UNL     1      46.326   7.095  12.051  0.00  0.00    +0.000 A 
ATOM     21  C   UNL     1      45.320   6.314  12.630  0.00  0.00    +0.000 A 
ATOM     22  C   UNL     1      45.673   5.328  13.555  0.00  0.00    +0.000 A 
BRANCH  16  24
ATOM     23  N   UNL     1      47.646   3.252  15.575  0.00  0.00    +0.000 NA
ATOM     24  C   UNL     1      47.367   4.095  14.826  0.00  0.00    +0.000 C 
ENDBRANCH  16  24
ENDBRANCH  15  21
ENDBRANCH  14  15
ENDBRANCH   1  14
TORSDOF 5
ENDMDL
MODEL 2
REMARK VINA RESULT:    -7.308      1.836      2.277
REMARK INTER + INTRA:         -10.306
REMARK INTER:                  -9.369
REMARK INTRA:                  -0.937
REMARK UNBOUND:                -0.861
REMARK  Name = 
REMARK  5 active torsions:
REMARK  status: ('A' for Active; 'I' for Inactive)
REMARK    1  A    between atoms: C_2  and  C_3
REMARK    2  A    between atoms: C_8  and  O_9
REMARK    3  A    between atoms: O_9  and  C_10
REMARK    4  A    between atoms: C_10  and  C_11
REMARK    5  A    between atoms: C_16  and  C_17
REMARK                            x       y       z     vdW  Elec       q    Type
REMARK                         _______ _______ _______ _____ _____    ______ ____
ROOT
ATOM      1  C   UNL     1      44.214   5.019  10.510  0.00  0.00    +0.000 A 
ATOM      2  C   UNL     1      43.526   4.098  11.306  0.00  0.00    +0.000 A 
ATOM      3  C   UNL     1      43.601   2.744  11.013  0.00  0.00    +0.000 A 
ATOM      4  F   UNL     1      42.919   1.868  11.764  0.00  0.00    +0.000 F 
ATOM      5  C   UNL     1      44.366   2.275   9.949  0.00  0.00    +0.000 A 
ATOM      6  C   UNL     1      45.086   3.167   9.138  0.00  0.00    +0.000 A 
ATOM      7  C   UNL     1      44.989   4.542   9.440  0.00  0.00    +0.000 A 
ENDROOT
BRANCH   6   8
ATOM      8  C   UNL     1      45.910   2.690   8.008  0.00  0.00    +0.000 A 
ATOM      9  C   UNL     1      46.196   3.492   6.894  0.00  0.00    +0.000 A 
ATOM     10  C   UNL     1      46.990   3.008   5.855  0.00  0.00    +0.000 A 
ATOM     11  C   UNL     1      47.494   1.724   5.957  0.00  0.00    +0.000 A 
ATOM     12  N   UNL     1      47.248   0.908   6.999  0.00  0.00    +0.000 NA
ATOM     13  C   UNL     1      46.463   1.406   7.984  0.00  0.00    +0.000 A 
ENDBRANCH   6   8
BRANCH   1  14
ATOM     14  C   UNL     1      44.127   6.498  10.785  0.00  0.00    +0.000 C 
BRANCH  14  15
ATOM     15  O   UNL     1      44.429   6.753  12.158  0.00  0.00    +0.000 OA
BRANCH  15  21
ATOM     16  C   UNL     1      48.129   6.891  12.505  0.00  0.00    +0.000 A 
ATOM     17  C   UNL     1      48.295   5.962  13.531  0.00  0.00    +0.000 A 
ATOM     18  C   UNL     1      47.175   5.328  14.063  0.00  0.00    +0.000 A 
ATOM     19 CL   UNL     1      47.377   4.178  15.326  0.00  0.00    +0.000 Cl
ATOM     20  C   UNL     1      45.898   5.618  13.580  0.00  0.00    +0.000 A 
ATOM     21  C   UNL     1      45.726   6.546  12.548  0.00  0.00    +0.000 A 
ATOM     22  C   UNL     1      46.849   7.179  12.010  0.00  0.00    +0.000 A 
BRANCH  16  24
ATOM     23  N   UNL     1      50.196   8.111  11.523  0.00  0.00    +0.000 NA
ATOM     24  C   UNL     1      49.270   7.560  11.956  0.00  0.00    +0.000 C 
ENDBRANCH  16  24
ENDBRANCH  15  21
ENDBRANCH  14  15
ENDBRANCH   1  14
TORSDOF 5
ENDMDL
MODEL 3
REMARK VINA RESULT:    -7.203      2.096      2.738
REMARK INTER + INTRA:         -10.169
REMARK INTER:                  -9.357
REMARK INTRA:                  -0.812
REMARK UNBOUND:                -0.861
REMARK  Name = 
REMARK  5 active torsions:
REMARK  status: ('A' for Active; 'I' for Inactive)
REMARK    1  A    between atoms: C_2  and  C_3
REMARK    2  A    between atoms: C_8  and  O_9
REMARK    3  A    between atoms: O_9  and  C_10
REMARK    4  A    between atoms: C_10  and  C_11
REMARK    5  A    between atoms: C_16  and  C_17
REMARK                            x       y       z     vdW  Elec       q    Type
REMARK                         _______ _______ _______ _____ _____    ______ ____
ROOT
ATOM      1  C   UNL     1      45.305   6.257  11.822  0.00  0.00    +0.000 A 
ATOM      2  C   UNL     1      43.936   6.270  12.105  0.00  0.00    +0.000 A 
ATOM      3  C   UNL     1      43.080   5.437  11.399  0.00  0.00    +0.000 A 
ATOM      4  F   UNL     1      41.765   5.470  11.658  0.00  0.00    +0.000 F 
ATOM      5  C   UNL     1      43.557   4.568  10.423  0.00  0.00    +0.000 A 
ATOM      6  C   UNL     1      44.928   4.513  10.122  0.00  0.00    +0.000 A 
ATOM      7  C   UNL     1      45.784   5.376  10.838  0.00  0.00    +0.000 A 
ENDROOT
BRANCH   6   8
ATOM      8  C   UNL     1      45.457   3.593   9.094  0.00  0.00    +0.000 A 
ATOM      9  C   UNL     1      46.048   4.050   7.907  0.00  0.00    +0.000 A 
ATOM     10  C   UNL     1      46.548   3.148   6.969  0.00  0.00    +0.000 A 
ATOM     11  C   UNL     1      46.454   1.795   7.243  0.00  0.00    +0.000 A 
ATOM     12  N   UNL     1      45.892   1.299   8.361  0.00  0.00    +0.000 NA
ATOM     13  C   UNL     1      45.405   2.204   9.245  0.00  0.00    +0.000 A 
ENDBRANCH   6   8
BRANCH   1  14
ATOM     14  C   UNL     1      46.255   7.173  12.549  0.00  0.00    +0.000 C 
BRANCH  14  15
ATOM     15  O   UNL     1      47.498   6.504  12.767  0.00  0.00    +0.000 OA
BRANCH  15  21
ATOM     16  C   UNL     1      47.705   4.921  16.125  0.00  0.00    +0.000 A 
ATOM     17  C   UNL     1      48.625   5.780  16.724  0.00  0.00    +0.000 A 
ATOM     18  C   UNL     1      49.135   6.849  15.992  0.00  0.00    +0.000 A 
ATOM     19 CL   UNL     1      50.266   7.914  16.730  0.00  0.00    +0.000 Cl
ATOM     20  C   UNL     1      48.737   7.060  14.671  0.00  0.00    +0.000 A 
ATOM     21  C   UNL     1      47.812   6.203  14.066  0.00  0.00    +0.000 A 
ATOM     22  C   UNL     1      47.295   5.133  14.802  0.00  0.00    +0.000 A 
BRANCH  16  24
ATOM     23  N   UNL     1      46.768   2.905  17.462  0.00  0.00    +0.000 NA
ATOM     24  C   UNL     1      47.180   3.811  16.861  0.00  0.00    +0.000 C 
ENDBRANCH  16  24
ENDBRANCH  15  21
ENDBRANCH  14  15
ENDBRANCH   1  14
TORSDOF 5
ENDMDL
MODEL 4
REMARK VINA RESULT:    -7.170      2.563      3.187
REMARK INTER + INTRA:         -10.127
REMARK INTER:                  -9.421
REMARK INTRA:                  -0.706
REMARK UNBOUND:                -0.861
REMARK  Name = 
REMARK  5 active torsions:
REMARK  status: ('A' for Active; 'I' for Inactive)
REMARK    1  A    between atoms: C_2  and  C_3
REMARK    2  A    between atoms: C_8  and  O_9
REMARK    3  A    between atoms: O_9  and  C_10
REMARK    4  A    between atoms: C_10  and  C_11
REMARK    5  A    between atoms: C_16  and  C_17
REMARK                            x       y       z     vdW  Elec       q    Type
REMARK                         _______ _______ _______ _____ _____    ______ ____
ROOT
ATOM      1  C   UNL     1      44.694   5.193  10.716  0.00  0.00    +0.000 A 
ATOM      2  C   UNL     1      43.853   4.359  11.458  0.00  0.00    +0.000 A 
ATOM      3  C   UNL     1      43.683   3.036  11.074  0.00  0.00    +0.000 A 
ATOM      4  F   UNL     1      42.857   2.247  11.775  0.00  0.00    +0.000 F 
ATOM      5  C   UNL     1      44.350   2.511   9.971  0.00  0.00    +0.000 A 
ATOM      6  C   UNL     1      45.217   3.313   9.211  0.00  0.00    +0.000 A 
ATOM      7  C   UNL     1      45.369   4.659   9.605  0.00  0.00    +0.000 A 
ENDROOT
BRANCH   6   8
ATOM      8  C   UNL     1      45.941   2.774   8.041  0.00  0.00    +0.000 A 
ATOM      9  C   UNL     1      46.207   3.545   6.901  0.00  0.00    +0.000 A 
ATOM     10  C   UNL     1      46.906   3.002   5.823  0.00  0.00    +0.000 A 
ATOM     11  C   UNL     1      47.336   1.690   5.913  0.00  0.00    +0.000 A 
ATOM     12  N   UNL     1      47.104   0.902   6.979  0.00  0.00    +0.000 NA
ATOM     13  C   UNL     1      46.411   1.458   8.003  0.00  0.00    +0.000 A 
ENDBRANCH   6   8
BRANCH   1  14
ATOM     14  C   UNL     1      44.874   6.642  11.089  0.00  0.00    +0.000 C 
BRANCH  14  15
ATOM     15  O   UNL     1      45.834   6.754  12.141  0.00  0.00    +0.000 OA
BRANCH  15  21
ATOM     16  C   UNL     1      47.614  10.015  11.979  0.00  0.00    +0.000 A 
ATOM     17  C   UNL     1      48.899   9.557  11.691  0.00  0.00    +0.000 A 
ATOM     18  C   UNL     1      49.121   8.190  11.560  0.00  0.00    +0.000 A 
ATOM     19 CL   UNL     1      50.704   7.622  11.200  0.00  0.00    +0.000 Cl
ATOM     20  C   UNL     1      48.073   7.281  11.718  0.00  0.00    +0.000 A 
ATOM     21  C   UNL     1      46.781   7.734  12.004  0.00  0.00    +0.000 A 
ATOM     22  C   UNL     1      46.556   9.108  12.130  0.00  0.00    +0.000 A 
BRANCH  16  24
ATOM     23  N   UNL     1      47.170  12.554  12.264  0.00  0.00    +0.000 NA
ATOM     24  C   UNL     1      47.372  11.418  12.129  0.00  0.00    +0.000 C 
ENDBRANCH  16  24
ENDBRANCH  15  21
ENDBRANCH  14  15
ENDBRANCH   1  14
TORSDOF 5
ENDMDL
MODEL 5
REMARK VINA RESULT:    -6.793      2.452      3.088
REMARK INTER + INTRA:          -9.639
REMARK INTER:                  -8.964
REMARK INTRA:                  -0.676
REMARK UNBOUND:                -0.861
REMARK  Name = 
REMARK  5 active torsions:
REMARK  status: ('A' for Active; 'I' for Inactive)
REMARK    1  A    between atoms: C_2  and  C_3
REMARK    2  A    between atoms: C_8  and  O_9
REMARK    3  A    between atoms: O_9  and  C_10
REMARK    4  A    between atoms: C_10  and  C_11
REMARK    5  A    between atoms: C_16  and  C_17
REMARK                            x       y       z     vdW  Elec       q    Type
REMARK                         _______ _______ _______ _____ _____    ______ ____
ROOT
ATOM      1  C   UNL     1      44.790   5.127  10.848  0.00  0.00    +0.000 A 
ATOM      2  C   UNL     1      43.908   4.285  11.531  0.00  0.00    +0.000 A 
ATOM      3  C   UNL     1      43.696   2.993  11.073  0.00  0.00    +0.000 A 
ATOM      4  F   UNL     1      42.830   2.198  11.717  0.00  0.00    +0.000 F 
ATOM      5  C   UNL     1      44.361   2.505   9.952  0.00  0.00    +0.000 A 
ATOM      6  C   UNL     1      45.268   3.314   9.249  0.00  0.00    +0.000 A 
ATOM      7  C   UNL     1      45.462   4.630   9.719  0.00  0.00    +0.000 A 
ENDROOT
BRANCH   6   8
ATOM      8  C   UNL     1      45.990   2.814   8.061  0.00  0.00    +0.000 A 
ATOM      9  C   UNL     1      46.483   1.503   7.977  0.00  0.00    +0.000 A 
ATOM     10  C   UNL     1      47.147   1.067   6.831  0.00  0.00    +0.000 A 
ATOM     11  C   UNL     1      47.298   1.954   5.781  0.00  0.00    +0.000 A 
ATOM     12  N   UNL     1      46.852   3.224   5.808  0.00  0.00    +0.000 NA
ATOM     13  C   UNL     1      46.222   3.618   6.942  0.00  0.00    +0.000 A 
ENDBRANCH   6   8
BRANCH   1  14
ATOM     14  C   UNL     1      45.017   6.546  11.304  0.00  0.00    +0.000 C 
BRANCH  14  15
ATOM     15  O   UNL     1      46.122   6.591  12.207  0.00  0.00    +0.000 OA
BRANCH  15  21
ATOM     16  C   UNL     1      49.169   8.665  11.707  0.00  0.00    +0.000 A 
ATOM     17  C   UNL     1      48.588   9.931  11.742  0.00  0.00    +0.000 A 
ATOM     18  C   UNL     1      47.214  10.046  11.932  0.00  0.00    +0.000 A 
ATOM     19 CL   UNL     1      46.496  11.608  11.981  0.00  0.00    +0.000 Cl
ATOM     20  C   UNL     1      46.421   8.908  12.083  0.00  0.00    +0.000 A 
ATOM     21  C   UNL     1      46.997   7.634  12.052  0.00  0.00    +0.000 A 
ATOM     22  C   UNL     1      48.378   7.518  11.867  0.00  0.00    +0.000 A 
BRANCH  16  24
ATOM     23  N   UNL     1      51.726   8.419  11.347  0.00  0.00    +0.000 NA
ATOM     24  C   UNL     1      50.579   8.530  11.500  0.00  0.00    +0.000 C 
ENDBRANCH  16  24
ENDBRANCH  15  21
ENDBRANCH  14  15
ENDBRANCH   1  14
TORSDOF 5
ENDMDL
MODEL 6
REMARK VINA RESULT:    -6.777      2.813      3.770
REMARK INTER + INTRA:          -9.619
REMARK INTER:                  -9.044
REMARK INTRA:                  -0.575
REMARK UNBOUND:                -0.861
REMARK  Name = 
REMARK  5 active torsions:
REMARK  status: ('A' for Active; 'I' for Inactive)
REMARK    1  A    between atoms: C_2  and  C_3
REMARK    2  A    between atoms: C_8  and  O_9
REMARK    3  A    between atoms: O_9  and  C_10
REMARK    4  A    between atoms: C_10  and  C_11
REMARK    5  A    between atoms: C_16  and  C_17
REMARK                            x       y       z     vdW  Elec       q    Type
REMARK                         _______ _______ _______ _____ _____    ______ ____
ROOT
ATOM      1  C   UNL     1      45.268   4.936  12.871  0.00  0.00    +0.000 A 
ATOM      2  C   UNL     1      43.935   5.352  12.941  0.00  0.00    +0.000 A 
ATOM      3  C   UNL     1      43.112   5.212  11.833  0.00  0.00    +0.000 A 
ATOM      4  F   UNL     1      41.842   5.635  11.897  0.00  0.00    +0.000 F 
ATOM      5  C   UNL     1      43.579   4.644  10.651  0.00  0.00    +0.000 A 
ATOM      6  C   UNL     1      44.906   4.197  10.548  0.00  0.00    +0.000 A 
ATOM      7  C   UNL     1      45.735   4.359  11.678  0.00  0.00    +0.000 A 
ENDROOT
BRANCH   6   8
ATOM      8  C   UNL     1      45.421   3.584   9.306  0.00  0.00    +0.000 A 
ATOM      9  C   UNL     1      45.854   4.349   8.213  0.00  0.00    +0.000 A 
ATOM     10  C   UNL     1      46.346   3.731   7.064  0.00  0.00    +0.000 A 
ATOM     11  C   UNL     1      46.403   2.349   7.034  0.00  0.00    +0.000 A 
ATOM     12  N   UNL     1      45.996   1.565   8.050  0.00  0.00    +0.000 NA
ATOM     13  C   UNL     1      45.512   2.198   9.146  0.00  0.00    +0.000 A 
ENDBRANCH   6   8
BRANCH   1  14
ATOM     14  C   UNL     1      46.195   5.104  14.048  0.00  0.00    +0.000 C 
BRANCH  14  15
ATOM     15  O   UNL     1      46.412   3.840  14.676  0.00  0.00    +0.000 OA
BRANCH  15  21
ATOM     16  C   UNL     1      49.186   2.969  16.994  0.00  0.00    +0.000 A 
ATOM     17  C   UNL     1      49.027   3.989  17.930  0.00  0.00    +0.000 A 
ATOM     18  C   UNL     1      48.007   4.920  17.756  0.00  0.00    +0.000 A 
ATOM     19 CL   UNL     1      47.806   6.178  18.912  0.00  0.00    +0.000 Cl
ATOM     20  C   UNL     1      47.152   4.840  16.656  0.00  0.00    +0.000 A 
ATOM     21  C   UNL     1      47.305   3.817  15.715  0.00  0.00    +0.000 A 
ATOM     22  C   UNL     1      48.324   2.878  15.891  0.00  0.00    +0.000 A 
BRANCH  16  24
ATOM     23  N   UNL     1      51.095   1.239  17.295  0.00  0.00    +0.000 NA
ATOM     24  C   UNL     1      50.238   2.011  17.153  0.00  0.00    +0.000 C 
ENDBRANCH  16  24
ENDBRANCH  15  21
ENDBRANCH  14  15
ENDBRANCH   1  14
TORSDOF 5
ENDMDL
MODEL 7
REMARK VINA RESULT:    -6.748      3.494      4.301
REMARK INTER + INTRA:          -9.582
REMARK INTER:                  -8.977
REMARK INTRA:                  -0.605
REMARK UNBOUND:                -0.861
REMARK  Name = 
REMARK  5 active torsions:
REMARK  status: ('A' for Active; 'I' for Inactive)
REMARK    1  A    between atoms: C_2  and  C_3
REMARK    2  A    between atoms: C_8  and  O_9
REMARK    3  A    between atoms: O_9  and  C_10
REMARK    4  A    between atoms: C_10  and  C_11
REMARK    5  A    between atoms: C_16  and  C_17
REMARK                            x       y       z     vdW  Elec       q    Type
REMARK                         _______ _______ _______ _____ _____    ______ ____
ROOT
ATOM      1  C   UNL     1      45.040   5.349  10.631  0.00  0.00    +0.000 A 
ATOM      2  C   UNL     1      44.088   4.632  11.361  0.00  0.00    +0.000 A 
ATOM      3  C   UNL     1      43.754   3.342  10.976  0.00  0.00    +0.000 A 
ATOM      4  F   UNL     1      42.822   2.668  11.666  0.00  0.00    +0.000 F 
ATOM      5  C   UNL     1      44.362   2.732   9.883  0.00  0.00    +0.000 A 
ATOM      6  C   UNL     1      45.336   3.413   9.135  0.00  0.00    +0.000 A 
ATOM      7  C   UNL     1      45.655   4.729   9.530  0.00  0.00    +0.000 A 
ENDROOT
BRANCH   6   8
ATOM      8  C   UNL     1      46.000   2.782   7.976  0.00  0.00    +0.000 A 
ATOM      9  C   UNL     1      46.260   3.478   6.786  0.00  0.00    +0.000 A 
ATOM     10  C   UNL     1      46.902   2.849   5.720  0.00  0.00    +0.000 A 
ATOM     11  C   UNL     1      47.282   1.527   5.870  0.00  0.00    +0.000 A 
ATOM     12  N   UNL     1      47.053   0.808   6.984  0.00  0.00    +0.000 NA
ATOM     13  C   UNL     1      46.416   1.447   7.996  0.00  0.00    +0.000 A 
ENDBRANCH   6   8
BRANCH   1  14
ATOM     14  C   UNL     1      45.401   6.763  11.006  0.00  0.00    +0.000 C 
BRANCH  14  15
ATOM     15  O   UNL     1      44.238   7.451  11.469  0.00  0.00    +0.000 OA
BRANCH  15  21
ATOM     16  C   UNL     1      45.085  11.072  11.446  0.00  0.00    +0.000 A 
ATOM     17  C   UNL     1      43.955  11.565  10.795  0.00  0.00    +0.000 A 
ATOM     18  C   UNL     1      42.960  10.678  10.394  0.00  0.00    +0.000 A 
ATOM     19 CL   UNL     1      41.562  11.283   9.594  0.00  0.00    +0.000 Cl
ATOM     20  C   UNL     1      43.088   9.309  10.634  0.00  0.00    +0.000 A 
ATOM     21  C   UNL     1      44.218   8.809  11.290  0.00  0.00    +0.000 A 
ATOM     22  C   UNL     1      45.215   9.699  11.699  0.00  0.00    +0.000 A 
BRANCH  16  24
ATOM     23  N   UNL     1      46.972  12.695  12.174  0.00  0.00    +0.000 NA
ATOM     24  C   UNL     1      46.122  11.970  11.855  0.00  0.00    +0.000 C 
ENDBRANCH  16  24
ENDBRANCH  15  21
ENDBRANCH  14  15
ENDBRANCH   1  14
TORSDOF 5
ENDMDL
MODEL 8
REMARK VINA RESULT:    -6.564      3.433      5.129
REMARK INTER + INTRA:          -9.343
REMARK INTER:                  -8.484
REMARK INTRA:                  -0.860
REMARK UNBOUND:                -0.861
REMARK  Name = 
REMARK  5 active torsions:
REMARK  status: ('A' for Active; 'I' for Inactive)
REMARK    1  A    between atoms: C_2  and  C_3
REMARK    2  A    between atoms: C_8  and  O_9
REMARK    3  A    between atoms: O_9  and  C_10
REMARK    4  A    between atoms: C_10  and  C_11
REMARK    5  A    between atoms: C_16  and  C_17
REMARK                            x       y       z     vdW  Elec       q    Type
REMARK                         _______ _______ _______ _____ _____    ______ ____
ROOT
ATOM      1  C   UNL     1      47.673   7.579  12.791  0.00  0.00    +0.000 A 
ATOM      2  C   UNL     1      46.860   8.702  12.969  0.00  0.00    +0.000 A 
ATOM      3  C   UNL     1      45.574   8.711  12.448  0.00  0.00    +0.000 A 
ATOM      4  F   UNL     1      44.808   9.800  12.601  0.00  0.00    +0.000 F 
ATOM      5  C   UNL     1      45.063   7.612  11.764  0.00  0.00    +0.000 A 
ATOM      6  C   UNL     1      45.842   6.458  11.580  0.00  0.00    +0.000 A 
ATOM      7  C   UNL     1      47.152   6.470  12.103  0.00  0.00    +0.000 A 
ENDROOT
BRANCH   6   8
ATOM      8  C   UNL     1      45.317   5.278  10.863  0.00  0.00    +0.000 A 
ATOM      9  C   UNL     1      45.484   5.100   9.482  0.00  0.00    +0.000 A 
ATOM     10  C   UNL     1      44.984   3.964   8.846  0.00  0.00    +0.000 A 
ATOM     11  C   UNL     1      44.329   3.017   9.612  0.00  0.00    +0.000 A 
ATOM     12  N   UNL     1      44.134   3.138  10.939  0.00  0.00    +0.000 NA
ATOM     13  C   UNL     1      44.622   4.259  11.522  0.00  0.00    +0.000 A 
ENDBRANCH   6   8
BRANCH   1  14
ATOM     14  C   UNL     1      49.084   7.552  13.318  0.00  0.00    +0.000 C 
BRANCH  14  15
ATOM     15  O   UNL     1      49.086   7.867  14.711  0.00  0.00    +0.000 OA
BRANCH  15  21
ATOM     16  C   UNL     1      48.495   4.840  16.789  0.00  0.00    +0.000 A 
ATOM     17  C   UNL     1      49.751   4.724  17.382  0.00  0.00    +0.000 A 
ATOM     18  C   UNL     1      50.739   5.654  17.071  0.00  0.00    +0.000 A 
ATOM     19 CL   UNL     1      52.289   5.517  17.804  0.00  0.00    +0.000 Cl
ATOM     20  C   UNL     1      50.482   6.691  16.172  0.00  0.00    +0.000 A 
ATOM     21  C   UNL     1      49.223   6.815  15.577  0.00  0.00    +0.000 A 
ATOM     22  C   UNL     1      48.228   5.885  15.893  0.00  0.00    +0.000 A 
BRANCH  16  24
ATOM     23  N   UNL     1      46.634   3.115  17.322  0.00  0.00    +0.000 NA
ATOM     24  C   UNL     1      47.472   3.885  17.090  0.00  0.00    +0.000 C 
ENDBRANCH  16  24
ENDBRANCH  15  21
ENDBRANCH  14  15
ENDBRANCH   1  14
TORSDOF 5
ENDMDL
MODEL 9
REMARK VINA RESULT:    -6.549      3.051      3.876
REMARK INTER + INTRA:          -9.325
REMARK INTER:                  -8.574
REMARK INTRA:                  -0.751
REMARK UNBOUND:                -0.861
REMARK  Name = 
REMARK  5 active torsions:
REMARK  status: ('A' for Active; 'I' for Inactive)
REMARK    1  A    between atoms: C_2  and  C_3
REMARK    2  A    between atoms: C_8  and  O_9
REMARK    3  A    between atoms: O_9  and  C_10
REMARK    4  A    between atoms: C_10  and  C_11
REMARK    5  A    between atoms: C_16  and  C_17
REMARK                            x       y       z     vdW  Elec       q    Type
REMARK                         _______ _______ _______ _____ _____    ______ ____
ROOT
ATOM      1  C   UNL     1      45.307   6.569  11.605  0.00  0.00    +0.000 A 
ATOM      2  C   UNL     1      43.963   6.507  11.983  0.00  0.00    +0.000 A 
ATOM      3  C   UNL     1      43.129   5.559  11.408  0.00  0.00    +0.000 A 
ATOM      4  F   UNL     1      41.835   5.521  11.756  0.00  0.00    +0.000 F 
ATOM      5  C   UNL     1      43.608   4.647  10.472  0.00  0.00    +0.000 A 
ATOM      6  C   UNL     1      44.956   4.665  10.080  0.00  0.00    +0.000 A 
ATOM      7  C   UNL     1      45.788   5.645  10.663  0.00  0.00    +0.000 A 
ENDROOT
BRANCH   6   8
ATOM      8  C   UNL     1      45.487   3.702   9.093  0.00  0.00    +0.000 A 
ATOM      9  C   UNL     1      46.102   4.109   7.900  0.00  0.00    +0.000 A 
ATOM     10  C   UNL     1      46.603   3.167   7.002  0.00  0.00    +0.000 A 
ATOM     11  C   UNL     1      46.484   1.827   7.321  0.00  0.00    +0.000 A 
ATOM     12  N   UNL     1      45.898   1.378   8.448  0.00  0.00    +0.000 NA
ATOM     13  C   UNL     1      45.412   2.320   9.292  0.00  0.00    +0.000 A 
ENDBRANCH   6   8
BRANCH   1  14
ATOM     14  C   UNL     1      46.230   7.608  12.189  0.00  0.00    +0.000 C 
BRANCH  14  15
ATOM     15  O   UNL     1      47.562   7.097  12.239  0.00  0.00    +0.000 OA
BRANCH  15  21
ATOM     16  C   UNL     1      50.837   8.600  11.318  0.00  0.00    +0.000 A 
ATOM     17  C   UNL     1      50.441   9.927  11.163  0.00  0.00    +0.000 A 
ATOM     18  C   UNL     1      49.108  10.269  11.373  0.00  0.00    +0.000 A 
ATOM     19 CL   UNL     1      48.617  11.907  11.187  0.00  0.00    +0.000 Cl
ATOM     20  C   UNL     1      48.173   9.296  11.730  0.00  0.00    +0.000 A 
ATOM     21  C   UNL     1      48.565   7.963  11.890  0.00  0.00    +0.000 A 
ATOM     22  C   UNL     1      49.904   7.620  11.686  0.00  0.00    +0.000 A 
BRANCH  16  24
ATOM     23  N   UNL     1      53.306   7.917  10.909  0.00  0.00    +0.000 NA
ATOM     24  C   UNL     1      52.202   8.230  11.094  0.00  0.00    +0.000 C 
ENDBRANCH  16  24
ENDBRANCH  15  21
ENDBRANCH  14  15
ENDBRANCH   1  14
TORSDOF 5
ENDMDL
