MODEL 1
REMARK VINA RESULT:    -6.804      0.000      0.000
REMARK INTER + INTRA:          -9.712
REMARK INTER:                  -8.991
REMARK INTRA:                  -0.721
REMARK UNBOUND:                -0.721
REMARK  Name = 
REMARK  7 active torsions:
REMARK  status: ('A' for Active; 'I' for Inactive)
REMARK    1  A    between atoms: C_1  and  C_2
REMARK    2  A    between atoms: C_7  and  C_8
REMARK    3  A    between atoms: C_8  and  C_9
REMARK    4  A    between atoms: C_9  and  O_10
REMARK    5  A    between atoms: O_10  and  C_11
REMARK    6  A    between atoms: C_15  and  C_16
REMARK    7  A    between atoms: C_16  and  N_17
REMARK                            x       y       z     vdW  Elec       q    Type
REMARK                         _______ _______ _______ _____ _____    ______ ____
ROOT
ATOM      1  O   UNL     1      43.731   2.641  10.651  0.00  0.00    +0.000 OA
ENDROOT
BRANCH   1   2
ATOM      2  C   UNL     1      44.586   2.990   9.629  0.00  0.00    +0.000 A 
ATOM      3  C   UNL     1      44.816   4.297   9.187  0.00  0.00    +0.000 A 
ATOM      4  C   UNL     1      45.735   4.557   8.173  0.00  0.00    +0.000 A 
ATOM      5  C   UNL     1      46.435   3.511   7.582  0.00  0.00    +0.000 A 
ATOM      6  C   UNL     1      46.207   2.184   7.975  0.00  0.00    +0.000 A 
ATOM      7  C   UNL     1      45.277   1.939   9.006  0.00  0.00    +0.000 A 
BRANCH   6   8
ATOM      8  C   UNL     1      47.016   1.049   7.389  0.00  0.00    +0.000 C 
BRANCH   8   9
ATOM      9  N   UNL     1      48.175   1.497   6.616  0.00  0.00    +0.000 NA
ATOM     10  H   UNL     1      48.422   0.768   5.949  0.00  0.00    +0.000 HD
ATOM     11  H   UNL     1      48.972   1.603   7.238  0.00  0.00    +0.000 HD
ENDBRANCH   8   9
ENDBRANCH   6   8
ENDBRANCH   1   2
BRANCH   1  12
ATOM     12  C   UNL     1      43.192   3.753  11.384  0.00  0.00    +0.000 C 
BRANCH  12  13
ATOM     13  C   UNL     1      43.836   3.911  12.764  0.00  0.00    +0.000 C 
BRANCH  13  20
ATOM     14  C   UNL     1      46.786   3.604  13.537  0.00  0.00    +0.000 C 
ATOM     15  C   UNL     1      46.193   4.898  13.067  0.00  0.00    +0.000 A 
ATOM     16  C   UNL     1      47.024   6.023  12.949  0.00  0.00    +0.000 A 
ATOM     17  C   UNL     1      46.510   7.235  12.507  0.00  0.00    +0.000 A 
ATOM     18  C   UNL     1      45.167   7.291  12.201  0.00  0.00    +0.000 A 
ATOM     19  N   UNL     1      44.334   6.235  12.306  0.00  0.00    +0.000 NA
ATOM     20  C   UNL     1      44.842   5.044  12.726  0.00  0.00    +0.000 A 
ENDBRANCH  13  20
ENDBRANCH  12  13
ENDBRANCH   1  12
TORSDOF 6
ENDMDL
MODEL 2
REMARK VINA RESULT:    -6.711      1.136      1.837
REMARK INTER + INTRA:          -9.590
REMARK INTER:                  -9.101
REMARK INTRA:                  -0.489
REMARK UNBOUND:                -0.721
REMARK  Name = 
REMARK  7 active torsions:
REMARK  status: ('A' for Active; 'I' for Inactive)
REMARK    1  A    between atoms: C_1  and  C_2
REMARK    2  A    between atoms: C_7  and  C_8
REMARK    3  A    between atoms: C_8  and  C_9
REMARK    4  A    between atoms: C_9  and  O_10
REMARK    5  A    between atoms: O_10  and  C_11
REMARK    6  A    between atoms: C_15  and  C_16
REMARK    7  A    between atoms: C_16  and  N_17
REMARK                            x       y       z     vdW  Elec       q    Type
REMARK                         _______ _______ _______ _____ _____    ______ ____
ROOT
ATOM      1  O   UNL     1      44.370   2.431  10.222  0.00  0.00    +0.000 OA
ENDROOT
BRANCH   1   2
ATOM      2  C   UNL     1      45.176   2.837   9.181  0.00  0.00    +0.000 A 
ATOM      3  C   UNL     1      45.384   4.166   8.798  0.00  0.00    +0.000 A 
ATOM      4  C   UNL     1      46.255   4.483   7.758  0.00  0.00    +0.000 A 
ATOM      5  C   UNL     1      46.929   3.471   7.081  0.00  0.00    +0.000 A 
ATOM      6  C   UNL     1      46.720   2.125   7.414  0.00  0.00    +0.000 A 
ATOM      7  C   UNL     1      45.839   1.822   8.472  0.00  0.00    +0.000 A 
BRANCH   6   8
ATOM      8  C   UNL     1      47.503   1.025   6.733  0.00  0.00    +0.000 C 
BRANCH   8   9
ATOM      9  N   UNL     1      48.266   1.485   5.572  0.00  0.00    +0.000 NA
ATOM     10  H   UNL     1      49.162   1.848   5.894  0.00  0.00    +0.000 HD
ATOM     11  H   UNL     1      47.777   2.263   5.136  0.00  0.00    +0.000 HD
ENDBRANCH   8   9
ENDBRANCH   6   8
ENDBRANCH   1   2
BRANCH   1  12
ATOM     12  C   UNL     1      43.504   3.454  10.738  0.00  0.00    +0.000 C 
BRANCH  12  13
ATOM     13  C   UNL     1      43.574   3.564  12.264  0.00  0.00    +0.000 C 
BRANCH  13  20
ATOM     14  C   UNL     1      44.169   6.517  11.698  0.00  0.00    +0.000 C 
ATOM     15  C   UNL     1      45.125   5.612  12.413  0.00  0.00    +0.000 A 
ATOM     16  C   UNL     1      46.344   6.137  12.871  0.00  0.00    +0.000 A 
ATOM     17  C   UNL     1      47.249   5.330  13.547  0.00  0.00    +0.000 A 
ATOM     18  C   UNL     1      46.912   4.007  13.740  0.00  0.00    +0.000 A 
ATOM     19  N   UNL     1      45.754   3.463  13.312  0.00  0.00    +0.000 NA
ATOM     20  C   UNL     1      44.861   4.259  12.662  0.00  0.00    +0.000 A 
ENDBRANCH  13  20
ENDBRANCH  12  13
ENDBRANCH   1  12
TORSDOF 6
ENDMDL
MODEL 3
REMARK VINA RESULT:    -6.052      1.624      5.862
REMARK INTER + INTRA:          -8.719
REMARK INTER:                  -8.100
REMARK INTRA:                  -0.618
REMARK UNBOUND:                -0.721
REMARK  Name = 
REMARK  7 active torsions:
REMARK  status: ('A' for Active; 'I' for Inactive)
REMARK    1  A    between atoms: C_1  and  C_2
REMARK    2  A    between atoms: C_7  and  C_8
REMARK    3  A    between atoms: C_8  and  C_9
REMARK    4  A    between atoms: C_9  and  O_10
REMARK    5  A    between atoms: O_10  and  C_11
REMARK    6  A    between atoms: C_15  and  C_16
REMARK    7  A    between atoms: C_16  and  N_17
REMARK                            x       y       z     vdW  Elec       q    Type
REMARK                         _______ _______ _______ _____ _____    ______ ____
ROOT
ATOM      1  O   UNL     1      44.154   3.763  11.650  0.00  0.00    +0.000 OA
ENDROOT
BRANCH   1   2
ATOM      2  C   UNL     1      44.751   4.990  11.837  0.00  0.00    +0.000 A 
ATOM      3  C   UNL     1      44.231   6.210  11.395  0.00  0.00    +0.000 A 
ATOM      4  C   UNL     1      44.887   7.408  11.670  0.00  0.00    +0.000 A 
ATOM      5  C   UNL     1      46.077   7.401  12.389  0.00  0.00    +0.000 A 
ATOM      6  C   UNL     1      46.647   6.194  12.820  0.00  0.00    +0.000 A 
ATOM      7  C   UNL     1      45.968   4.991  12.536  0.00  0.00    +0.000 A 
BRANCH   6   8
ATOM      8  C   UNL     1      47.902   6.183  13.663  0.00  0.00    +0.000 C 
BRANCH   8   9
ATOM      9  N   UNL     1      47.728   5.528  14.960  0.00  0.00    +0.000 NA
ATOM     10  H   UNL     1      46.955   4.868  14.891  0.00  0.00    +0.000 HD
ATOM     11  H   UNL     1      47.456   6.222  15.653  0.00  0.00    +0.000 HD
ENDBRANCH   8   9
ENDBRANCH   6   8
ENDBRANCH   1   2
BRANCH   1  12
ATOM     12  C   UNL     1      44.962   2.807  10.944  0.00  0.00    +0.000 C 
BRANCH  12  13
ATOM     13  C   UNL     1      44.405   2.482   9.556  0.00  0.00    +0.000 C 
BRANCH  13  20
ATOM     14  C   UNL     1      45.969   4.725   8.171  0.00  0.00    +0.000 C 
ATOM     15  C   UNL     1      46.273   3.271   7.973  0.00  0.00    +0.000 A 
ATOM     16  C   UNL     1      47.339   2.908   7.133  0.00  0.00    +0.000 A 
ATOM     17  C   UNL     1      47.656   1.571   6.935  0.00  0.00    +0.000 A 
ATOM     18  C   UNL     1      46.887   0.625   7.579  0.00  0.00    +0.000 A 
ATOM     19  N   UNL     1      45.852   0.932   8.390  0.00  0.00    +0.000 NA
ATOM     20  C   UNL     1      45.552   2.244   8.594  0.00  0.00    +0.000 A 
ENDBRANCH  13  20
ENDBRANCH  12  13
ENDBRANCH   1  12
TORSDOF 6
ENDMDL
MODEL 4
REMARK VINA RESULT:    -5.914      4.259      6.046
REMARK INTER + INTRA:          -8.536
REMARK INTER:                  -8.207
REMARK INTRA:                  -0.329
REMARK UNBOUND:                -0.721
REMARK  Name = 
REMARK  7 active torsions:
REMARK  status: ('A' for Active; 'I' for Inactive)
REMARK    1  A    between atoms: C_1  and  C_2
REMARK    2  A    between atoms: C_7  and  C_8
REMARK    3  A    between atoms: C_8  and  C_9
REMARK    4  A    between atoms: C_9  and  O_10
REMARK    5  A    between atoms: O_10  and  C_11
REMARK    6  A    between atoms: C_15  and  C_16
REMARK    7  A    between atoms: C_16  and  N_17
REMARK                            x       y       z     vdW  Elec       q    Type
REMARK                         _______ _______ _______ _____ _____    ______ ____
ROOT
ATOM      1  O   UNL     1      47.141   3.476  14.437  0.00  0.00    +0.000 OA
ENDROOT
BRANCH   1   2
ATOM      2  C   UNL     1      46.530   4.143  13.398  0.00  0.00    +0.000 A 
ATOM      3  C   UNL     1      46.835   5.446  12.992  0.00  0.00    +0.000 A 
ATOM      4  C   UNL     1      46.193   6.023  11.898  0.00  0.00    +0.000 A 
ATOM      5  C   UNL     1      45.233   5.303  11.196  0.00  0.00    +0.000 A 
ATOM      6  C   UNL     1      44.876   4.007  11.593  0.00  0.00    +0.000 A 
ATOM      7  C   UNL     1      45.538   3.436  12.699  0.00  0.00    +0.000 A 
BRANCH   6   8
ATOM      8  C   UNL     1      43.886   3.192  10.792  0.00  0.00    +0.000 C 
BRANCH   8   9
ATOM      9  N   UNL     1      43.063   2.302  11.611  0.00  0.00    +0.000 NA
ATOM     10  H   UNL     1      43.435   2.295  12.559  0.00  0.00    +0.000 HD
ATOM     11  H   UNL     1      43.145   1.351  11.260  0.00  0.00    +0.000 HD
ENDBRANCH   8   9
ENDBRANCH   6   8
ENDBRANCH   1   2
BRANCH   1  12
ATOM     12  C   UNL     1      47.338   4.268  15.619  0.00  0.00    +0.000 C 
BRANCH  12  13
ATOM     13  C   UNL     1      47.494   3.411  16.878  0.00  0.00    +0.000 C 
BRANCH  13  20
ATOM     14  C   UNL     1      49.214   5.403  18.449  0.00  0.00    +0.000 C 
ATOM     15  C   UNL     1      49.748   4.114  17.901  0.00  0.00    +0.000 A 
ATOM     16  C   UNL     1      51.092   3.782  18.134  0.00  0.00    +0.000 A 
ATOM     17  C   UNL     1      51.617   2.590  17.650  0.00  0.00    +0.000 A 
ATOM     18  C   UNL     1      50.780   1.762  16.934  0.00  0.00    +0.000 A 
ATOM     19  N   UNL     1      49.484   2.046  16.685  0.00  0.00    +0.000 NA
ATOM     20  C   UNL     1      48.967   3.208  17.172  0.00  0.00    +0.000 A 
ENDBRANCH  13  20
ENDBRANCH  12  13
ENDBRANCH   1  12
TORSDOF 6
ENDMDL
MODEL 5
REMARK VINA RESULT:    -5.881      1.562      2.356
REMARK INTER + INTRA:          -8.493
REMARK INTER:                  -7.938
REMARK INTRA:                  -0.555
REMARK UNBOUND:                -0.721
REMARK  Name = 
REMARK  7 active torsions:
REMARK  status: ('A' for Active; 'I' for Inactive)
REMARK    1  A    between atoms: C_1  and  C_2
REMARK    2  A    between atoms: C_7  and  C_8
REMARK    3  A    between atoms: C_8  and  C_9
REMARK    4  A    between atoms: C_9  and  O_10
REMARK    5  A    between atoms: O_10  and  C_11
REMARK    6  A    between atoms: C_15  and  C_16
REMARK    7  A    between atoms: C_16  and  N_17
REMARK                            x       y       z     vdW  Elec       q    Type
REMARK                         _______ _______ _______ _____ _____    ______ ____
ROOT
ATOM      1  O   UNL     1      44.922   4.947   8.767  0.00  0.00    +0.000 OA
ENDROOT
BRANCH   1   2
ATOM      2  C   UNL     1      45.460   3.742   8.369  0.00  0.00    +0.000 A 
ATOM      3  C   UNL     1      45.271   2.523   9.029  0.00  0.00    +0.000 A 
ATOM      4  C   UNL     1      45.819   1.346   8.526  0.00  0.00    +0.000 A 
ATOM      5  C   UNL     1      46.570   1.372   7.355  0.00  0.00    +0.000 A 
ATOM      6  C   UNL     1      46.808   2.580   6.684  0.00  0.00    +0.000 A 
ATOM      7  C   UNL     1      46.243   3.762   7.205  0.00  0.00    +0.000 A 
BRANCH   6   8
ATOM      8  C   UNL     1      47.561   2.606   5.373  0.00  0.00    +0.000 C 
BRANCH   8   9
ATOM      9  N   UNL     1      48.291   1.368   5.094  0.00  0.00    +0.000 NA
ATOM     10  H   UNL     1      48.433   1.294   4.087  0.00  0.00    +0.000 HD
ATOM     11  H   UNL     1      47.718   0.573   5.365  0.00  0.00    +0.000 HD
ENDBRANCH   8   9
ENDBRANCH   6   8
ENDBRANCH   1   2
BRANCH   1  12
ATOM     12  C   UNL     1      45.697   5.649   9.753  0.00  0.00    +0.000 C 
BRANCH  12  13
ATOM     13  C   UNL     1      44.914   5.895  11.045  0.00  0.00    +0.000 C 
BRANCH  13  20
ATOM     14  C   UNL     1      45.190   3.278  12.617  0.00  0.00    +0.000 C 
ATOM     15  C   UNL     1      45.969   4.516  12.944  0.00  0.00    +0.000 A 
ATOM     16  C   UNL     1      46.889   4.480  14.004  0.00  0.00    +0.000 A 
ATOM     17  C   UNL     1      47.635   5.605  14.328  0.00  0.00    +0.000 A 
ATOM     18  C   UNL     1      47.433   6.747  13.584  0.00  0.00    +0.000 A 
ATOM     19  N   UNL     1      46.555   6.825  12.561  0.00  0.00    +0.000 NA
ATOM     20  C   UNL     1      45.835   5.717  12.236  0.00  0.00    +0.000 A 
ENDBRANCH  13  20
ENDBRANCH  12  13
ENDBRANCH   1  12
TORSDOF 6
ENDMDL
MODEL 6
REMARK VINA RESULT:    -5.831      2.894      6.595
REMARK INTER + INTRA:          -8.427
REMARK INTER:                  -7.938
REMARK INTRA:                  -0.488
REMARK UNBOUND:                -0.721
REMARK  Name = 
REMARK  7 active torsions:
REMARK  status: ('A' for Active; 'I' for Inactive)
REMARK    1  A    between atoms: C_1  and  C_2
REMARK    2  A    between atoms: C_7  and  C_8
REMARK    3  A    between atoms: C_8  and  C_9
REMARK    4  A    between atoms: C_9  and  O_10
REMARK    5  A    between atoms: O_10  and  C_11
REMARK    6  A    between atoms: C_15  and  C_16
REMARK    7  A    between atoms: C_16  and  N_17
REMARK                            x       y       z     vdW  Elec       q    Type
REMARK                         _______ _______ _______ _____ _____    ______ ____
ROOT
ATOM      1  O   UNL     1      46.522   4.830  13.136  0.00  0.00    +0.000 OA
ENDROOT
BRANCH   1   2
ATOM      2  C   UNL     1      47.274   5.209  14.226  0.00  0.00    +0.000 A 
ATOM      3  C   UNL     1      48.090   6.343  14.283  0.00  0.00    +0.000 A 
ATOM      4  C   UNL     1      48.780   6.670  15.448  0.00  0.00    +0.000 A 
ATOM      5  C   UNL     1      48.666   5.863  16.575  0.00  0.00    +0.000 A 
ATOM      6  C   UNL     1      47.884   4.700  16.546  0.00  0.00    +0.000 A 
ATOM      7  C   UNL     1      47.189   4.386  15.360  0.00  0.00    +0.000 A 
BRANCH   6   8
ATOM      8  C   UNL     1      47.697   3.857  17.787  0.00  0.00    +0.000 C 
BRANCH   8   9
ATOM      9  N   UNL     1      46.633   2.860  17.662  0.00  0.00    +0.000 NA
ATOM     10  H   UNL     1      47.014   2.032  17.206  0.00  0.00    +0.000 HD
ATOM     11  H   UNL     1      45.906   3.220  17.048  0.00  0.00    +0.000 HD
ENDBRANCH   8   9
ENDBRANCH   6   8
ENDBRANCH   1   2
BRANCH   1  12
ATOM     12  C   UNL     1      46.295   5.875  12.176  0.00  0.00    +0.000 C 
BRANCH  12  13
ATOM     13  C   UNL     1      44.919   5.771  11.514  0.00  0.00    +0.000 C 
BRANCH  13  20
ATOM     14  C   UNL     1      43.643   3.018  11.945  0.00  0.00    +0.000 C 
ATOM     15  C   UNL     1      44.342   3.407  10.678  0.00  0.00    +0.000 A 
ATOM     16  C   UNL     1      44.400   2.482   9.623  0.00  0.00    +0.000 A 
ATOM     17  C   UNL     1      45.031   2.813   8.431  0.00  0.00    +0.000 A 
ATOM     18  C   UNL     1      45.598   4.065   8.329  0.00  0.00    +0.000 A 
ATOM     19  N   UNL     1      45.568   4.980   9.320  0.00  0.00    +0.000 NA
ATOM     20  C   UNL     1      44.937   4.659  10.483  0.00  0.00    +0.000 A 
ENDBRANCH  13  20
ENDBRANCH  12  13
ENDBRANCH   1  12
TORSDOF 6
ENDMDL
MODEL 7
REMARK VINA RESULT:    -5.336      2.838      4.549
REMARK INTER + INTRA:          -7.772
REMARK INTER:                  -7.243
REMARK INTRA:                  -0.529
REMARK UNBOUND:                -0.721
REMARK  Name = 
REMARK  7 active torsions:
REMARK  status: ('A' for Active; 'I' for Inactive)
REMARK    1  A    between atoms: C_1  and  C_2
REMARK    2  A    between atoms: C_7  and  C_8
REMARK    3  A    between atoms: C_8  and  C_9
REMARK    4  A    between atoms: C_9  and  O_10
REMARK    5  A    between atoms: O_10  and  C_11
REMARK    6  A    between atoms: C_15  and  C_16
REMARK    7  A    between atoms: C_16  and  N_17
REMARK                            x       y       z     vdW  Elec       q    Type
REMARK                         _______ _______ _______ _____ _____    ______ ____
ROOT
ATOM      1  O   UNL     1      46.417   6.885  11.353  0.00  0.00    +0.000 OA
ENDROOT
BRANCH   1   2
ATOM      2  C   UNL     1      45.759   5.805  10.807  0.00  0.00    +0.000 A 
ATOM      3  C   UNL     1      45.808   5.433   9.459  0.00  0.00    +0.000 A 
ATOM      4  C   UNL     1      45.144   4.296   9.006  0.00  0.00    +0.000 A 
ATOM      5  C   UNL     1      44.415   3.514   9.897  0.00  0.00    +0.000 A 
ATOM      6  C   UNL     1      44.315   3.873  11.248  0.00  0.00    +0.000 A 
ATOM      7  C   UNL     1      44.997   5.025  11.691  0.00  0.00    +0.000 A 
BRANCH   6   8
ATOM      8  C   UNL     1      43.585   2.990  12.236  0.00  0.00    +0.000 C 
BRANCH   8   9
ATOM      9  N   UNL     1      42.957   1.821  11.620  0.00  0.00    +0.000 NA
ATOM     10  H   UNL     1      43.681   1.254  11.183  0.00  0.00    +0.000 HD
ATOM     11  H   UNL     1      42.338   2.128  10.872  0.00  0.00    +0.000 HD
ENDBRANCH   8   9
ENDBRANCH   6   8
ENDBRANCH   1   2
BRANCH   1  12
ATOM     12  C   UNL     1      46.584   6.823  12.778  0.00  0.00    +0.000 C 
BRANCH  12  13
ATOM     13  C   UNL     1      48.030   6.527  13.185  0.00  0.00    +0.000 C 
BRANCH  13  20
ATOM     14  C   UNL     1      49.448   7.738  15.617  0.00  0.00    +0.000 C 
ATOM     15  C   UNL     1      48.685   6.449  15.672  0.00  0.00    +0.000 A 
ATOM     16  C   UNL     1      48.589   5.768  16.896  0.00  0.00    +0.000 A 
ATOM     17  C   UNL     1      47.881   4.577  16.986  0.00  0.00    +0.000 A 
ATOM     18  C   UNL     1      47.292   4.091  15.838  0.00  0.00    +0.000 A 
ATOM     19  N   UNL     1      47.365   4.712  14.642  0.00  0.00    +0.000 NA
ATOM     20  C   UNL     1      48.047   5.887  14.560  0.00  0.00    +0.000 A 
ENDBRANCH  13  20
ENDBRANCH  12  13
ENDBRANCH   1  12
TORSDOF 6
ENDMDL
MODEL 8
REMARK VINA RESULT:    -5.329      4.113      5.774
REMARK INTER + INTRA:          -7.763
REMARK INTER:                  -7.437
REMARK INTRA:                  -0.326
REMARK UNBOUND:                -0.721
REMARK  Name = 
REMARK  7 active torsions:
REMARK  status: ('A' for Active; 'I' for Inactive)
REMARK    1  A    between atoms: C_1  and  C_2
REMARK    2  A    between atoms: C_7  and  C_8
REMARK    3  A    between atoms: C_8  and  C_9
REMARK    4  A    between atoms: C_9  and  O_10
REMARK    5  A    between atoms: O_10  and  C_11
REMARK    6  A    between atoms: C_15  and  C_16
REMARK    7  A    between atoms: C_16  and  N_17
REMARK                            x       y       z     vdW  Elec       q    Type
REMARK                         _______ _______ _______ _____ _____    ______ ____
ROOT
ATOM      1  O   UNL     1      46.894   3.634  14.226  0.00  0.00    +0.000 OA
ENDROOT
BRANCH   1   2
ATOM      2  C   UNL     1      46.462   4.515  13.259  0.00  0.00    +0.000 A 
ATOM      3  C   UNL     1      47.107   5.707  12.914  0.00  0.00    +0.000 A 
ATOM      4  C   UNL     1      46.618   6.514  11.890  0.00  0.00    +0.000 A 
ATOM      5  C   UNL     1      45.470   6.142  11.198  0.00  0.00    +0.000 A 
ATOM      6  C   UNL     1      44.777   4.972  11.538  0.00  0.00    +0.000 A 
ATOM      7  C   UNL     1      45.288   4.164  12.574  0.00  0.00    +0.000 A 
BRANCH   6   8
ATOM      8  C   UNL     1      43.571   4.523  10.743  0.00  0.00    +0.000 C 
BRANCH   8   9
ATOM      9  N   UNL     1      43.752   4.632   9.295  0.00  0.00    +0.000 NA
ATOM     10  H   UNL     1      43.261   3.860   8.846  0.00  0.00    +0.000 HD
ATOM     11  H   UNL     1      44.738   4.518   9.071  0.00  0.00    +0.000 HD
ENDBRANCH   8   9
ENDBRANCH   6   8
ENDBRANCH   1   2
BRANCH   1  12
ATOM     12  C   UNL     1      47.175   4.236  15.500  0.00  0.00    +0.000 C 
BRANCH  12  13
ATOM     13  C   UNL     1      47.768   3.240  16.499  0.00  0.00    +0.000 C 
BRANCH  13  20
ATOM     14  C   UNL     1      50.519   2.033  17.108  0.00  0.00    +0.000 C 
ATOM     15  C   UNL     1      50.090   3.383  17.598  0.00  0.00    +0.000 A 
ATOM     16  C   UNL     1      50.993   4.149  18.353  0.00  0.00    +0.000 A 
ATOM     17  C   UNL     1      50.633   5.409  18.814  0.00  0.00    +0.000 A 
ATOM     18  C   UNL     1      49.368   5.867  18.513  0.00  0.00    +0.000 A 
ATOM     19  N   UNL     1      48.470   5.160  17.795  0.00  0.00    +0.000 NA
ATOM     20  C   UNL     1      48.829   3.931  17.332  0.00  0.00    +0.000 A 
ENDBRANCH  13  20
ENDBRANCH  12  13
ENDBRANCH   1  12
TORSDOF 6
ENDMDL
MODEL 9
REMARK VINA RESULT:    -5.158      2.883      4.409
REMARK INTER + INTRA:          -7.538
REMARK INTER:                  -7.105
REMARK INTRA:                  -0.433
REMARK UNBOUND:                -0.721
REMARK  Name = 
REMARK  7 active torsions:
REMARK  status: ('A' for Active; 'I' for Inactive)
REMARK    1  A    between atoms: C_1  and  C_2
REMARK    2  A    between atoms: C_7  and  C_8
REMARK    3  A    between atoms: C_8  and  C_9
REMARK    4  A    between atoms: C_9  and  O_10
REMARK    5  A    between atoms: O_10  and  C_11
REMARK    6  A    between atoms: C_15  and  C_16
REMARK    7  A    between atoms: C_16  and  N_17
REMARK                            x       y       z     vdW  Elec       q    Type
REMARK                         _______ _______ _______ _____ _____    ______ ____
ROOT
ATOM      1  O   UNL     1      45.634   4.305  14.088  0.00  0.00    +0.000 OA
ENDROOT
BRANCH   1   2
ATOM      2  C   UNL     1      44.784   4.435  13.012  0.00  0.00    +0.000 A 
ATOM      3  C   UNL     1      43.732   5.352  12.927  0.00  0.00    +0.000 A 
ATOM      4  C   UNL     1      42.951   5.441  11.777  0.00  0.00    +0.000 A 
ATOM      5  C   UNL     1      43.209   4.607  10.694  0.00  0.00    +0.000 A 
ATOM      6  C   UNL     1      44.233   3.652  10.755  0.00  0.00    +0.000 A 
ATOM      7  C   UNL     1      45.017   3.579  11.924  0.00  0.00    +0.000 A 
BRANCH   6   8
ATOM      8  C   UNL     1      44.567   2.792   9.556  0.00  0.00    +0.000 C 
BRANCH   8   9
ATOM      9  N   UNL     1      44.340   3.462   8.275  0.00  0.00    +0.000 NA
ATOM     10  H   UNL     1      45.042   3.140   7.611  0.00  0.00    +0.000 HD
ATOM     11  H   UNL     1      44.486   4.463   8.390  0.00  0.00    +0.000 HD
ENDBRANCH   8   9
ENDBRANCH   6   8
ENDBRANCH   1   2
BRANCH   1  12
ATOM     12  C   UNL     1      47.021   4.520  13.781  0.00  0.00    +0.000 C 
BRANCH  12  13
ATOM     13  C   UNL     1      47.282   5.911  13.197  0.00  0.00    +0.000 C 
BRANCH  13  20
ATOM     14  C   UNL     1      49.250   7.807  11.810  0.00  0.00    +0.000 C 
ATOM     15  C   UNL     1      49.376   7.405  13.248  0.00  0.00    +0.000 A 
ATOM     16  C   UNL     1      50.429   7.935  14.012  0.00  0.00    +0.000 A 
ATOM     17  C   UNL     1      50.569   7.592  15.350  0.00  0.00    +0.000 A 
ATOM     18  C   UNL     1      49.653   6.715  15.890  0.00  0.00    +0.000 A 
ATOM     19  N   UNL     1      48.631   6.180  15.189  0.00  0.00    +0.000 NA
ATOM     20  C   UNL     1      48.486   6.529  13.881  0.00  0.00    +0.000 A 
ENDBRANCH  13  20
ENDBRANCH  12  13
ENDBRANCH   1  12
TORSDOF 6
ENDMDL
