MODEL 1
REMARK VINA RESULT:    -7.319      0.000      0.000
REMARK INTER + INTRA:         -11.452
REMARK INTER:                 -10.527
REMARK INTRA:                  -0.924
REMARK UNBOUND:                -0.924
REMARK  Name = 
REMARK  10 active torsions:
REMARK  status: ('A' for Active; 'I' for Inactive)
REMARK    1  A    between atoms: C_1  and  O_2
REMARK    2  A    between atoms: O_2  and  C_3
REMARK    3  A    between atoms: C_5  and  C_6
REMARK    4  A    between atoms: C_11  and  C_12
REMARK    5  A    between atoms: C_12  and  O_13
REMARK    6  A    between atoms: O_13  and  C_14
REMARK    7  A    between atoms: C_18  and  C_19
REMARK    8  A    between atoms: C_19  and  C_20
REMARK    9  A    between atoms: C_20  and  O_21
REMARK   10  A    between atoms: C_25  and  C_26
REMARK                            x       y       z     vdW  Elec       q    Type
REMARK                         _______ _______ _______ _____ _____    ______ ____
ROOT
ATOM      1  C   UNL     1      47.916   7.111  13.373  0.00  0.00    +0.000 A 
ATOM      2  C   UNL     1      47.363   8.366  13.628  0.00  0.00    +0.000 A 
ATOM      3  C   UNL     1      46.223   8.774  12.934  0.00  0.00    +0.000 A 
ATOM      4  C   UNL     1      45.631   7.927  11.994  0.00  0.00    +0.000 A 
ATOM      5  C   UNL     1      46.171   6.659  11.739  0.00  0.00    +0.000 A 
ATOM      6  C   UNL     1      47.309   6.258  12.450  0.00  0.00    +0.000 A 
ENDROOT
BRANCH   1   7
ATOM      7  O   UNL     1      49.031   6.616  13.984  0.00  0.00    +0.000 OA
BRANCH   7   8
ATOM      8  C   UNL     1      49.390   7.283  15.199  0.00  0.00    +0.000 C 
BRANCH   8  13
ATOM      9  C   UNL     1      48.115   6.431  18.526  0.00  0.00    +0.000 A 
ATOM     10  C   UNL     1      47.961   5.067  18.492  0.00  0.00    +0.000 A 
ATOM     11  C   UNL     1      48.306   4.444  17.307  0.00  0.00    +0.000 A 
ATOM     12  N   UNL     1      48.774   5.151  16.247  0.00  0.00    +0.000 NA
ATOM     13  C   UNL     1      48.870   6.488  16.374  0.00  0.00    +0.000 A 
ATOM     14  N   UNL     1      48.567   7.160  17.494  0.00  0.00    +0.000 NA
BRANCH  11  15
ATOM     15  C   UNL     1      48.164   2.939  17.168  0.00  0.00    +0.000 C 
ATOM     16  F   UNL     1      49.182   2.240  17.754  0.00  0.00    +0.000 F 
ATOM     17  F   UNL     1      47.022   2.457  17.738  0.00  0.00    +0.000 F 
ATOM     18  F   UNL     1      48.136   2.524  15.868  0.00  0.00    +0.000 F 
ENDBRANCH  11  15
BRANCH   9  20
ATOM     19  C   UNL     1      47.400   6.153  20.733  0.00  0.00    +0.000 C 
ATOM     20  O   UNL     1      47.779   7.067  19.705  0.00  0.00    +0.000 OA
ENDBRANCH   9  20
ENDBRANCH   8  13
ENDBRANCH   7   8
ENDBRANCH   1   7
BRANCH   5  21
ATOM     21  C   UNL     1      45.571   5.762  10.677  0.00  0.00    +0.000 C 
BRANCH  21  22
ATOM     22  C   UNL     1      44.286   5.006  11.073  0.00  0.00    +0.000 C 
ATOM     23  C   UNL     1      43.772   5.291  12.481  0.00  0.00    +0.000 C 
ATOM     24  C   UNL     1      43.425   3.933  13.069  0.00  0.00    +0.000 C 
ATOM     25  O   UNL     1      43.598   2.950  12.051  0.00  0.00    +0.000 OA
ATOM     26  C   UNL     1      44.542   3.486  11.110  0.00  0.00    +0.000 C 
ATOM     27  C   UNL     1      44.375   2.754   9.788  0.00  0.00    +0.000 C 
BRANCH  22  28
ATOM     28  O   UNL     1      43.245   5.309  10.132  0.00  0.00    +0.000 OA
ATOM     29  H   UNL     1      43.084   4.509   9.603  0.00  0.00    +0.000 HD
ENDBRANCH  22  28
ENDBRANCH  21  22
ENDBRANCH   5  21
TORSDOF 8
ENDMDL
MODEL 2
REMARK VINA RESULT:    -6.904      2.022      2.731
REMARK INTER + INTRA:         -10.856
REMARK INTER:                  -9.971
REMARK INTRA:                  -0.884
REMARK UNBOUND:                -0.924
REMARK  Name = 
REMARK  10 active torsions:
REMARK  status: ('A' for Active; 'I' for Inactive)
REMARK    1  A    between atoms: C_1  and  O_2
REMARK    2  A    between atoms: O_2  and  C_3
REMARK    3  A    between atoms: C_5  and  C_6
REMARK    4  A    between atoms: C_11  and  C_12
REMARK    5  A    between atoms: C_12  and  O_13
REMARK    6  A    between atoms: O_13  and  C_14
REMARK    7  A    between atoms: C_18  and  C_19
REMARK    8  A    between atoms: C_19  and  C_20
REMARK    9  A    between atoms: C_20  and  O_21
REMARK   10  A    between atoms: C_25  and  C_26
REMARK                            x       y       z     vdW  Elec       q    Type
REMARK                         _______ _______ _______ _____ _____    ______ ____
ROOT
ATOM      1  C   UNL     1      47.839   7.056  13.465  0.00  0.00    +0.000 A 
ATOM      2  C   UNL     1      47.320   8.330  13.692  0.00  0.00    +0.000 A 
ATOM      3  C   UNL     1      46.224   8.773  12.951  0.00  0.00    +0.000 A 
ATOM      4  C   UNL     1      45.640   7.941  11.992  0.00  0.00    +0.000 A 
ATOM      5  C   UNL     1      46.146   6.654  11.765  0.00  0.00    +0.000 A 
ATOM      6  C   UNL     1      47.241   6.219  12.523  0.00  0.00    +0.000 A 
ENDROOT
BRANCH   1   7
ATOM      7  O   UNL     1      48.911   6.526  14.124  0.00  0.00    +0.000 OA
BRANCH   7   8
ATOM      8  C   UNL     1      49.224   7.168  15.365  0.00  0.00    +0.000 C 
BRANCH   8  13
ATOM      9  C   UNL     1      48.513   4.140  17.301  0.00  0.00    +0.000 A 
ATOM     10  C   UNL     1      48.145   4.607  18.540  0.00  0.00    +0.000 A 
ATOM     11  C   UNL     1      48.143   5.981  18.697  0.00  0.00    +0.000 A 
ATOM     12  N   UNL     1      48.481   6.810  17.677  0.00  0.00    +0.000 NA
ATOM     13  C   UNL     1      48.846   6.252  16.506  0.00  0.00    +0.000 A 
ATOM     14  N   UNL     1      48.861   4.932  16.275  0.00  0.00    +0.000 NA
BRANCH  11  15
ATOM     15  C   UNL     1      47.758   6.594  20.031  0.00  0.00    +0.000 C 
ATOM     16  F   UNL     1      47.290   7.874  19.926  0.00  0.00    +0.000 F 
ATOM     17  F   UNL     1      46.772   5.902  20.670  0.00  0.00    +0.000 F 
ATOM     18  F   UNL     1      48.800   6.657  20.909  0.00  0.00    +0.000 F 
ENDBRANCH  11  15
BRANCH   9  20
ATOM     19  C   UNL     1      49.835   2.230  17.049  0.00  0.00    +0.000 C 
ATOM     20  O   UNL     1      48.517   2.771  17.128  0.00  0.00    +0.000 OA
ENDBRANCH   9  20
ENDBRANCH   8  13
ENDBRANCH   7   8
ENDBRANCH   1   7
BRANCH   5  21
ATOM     21  C   UNL     1      45.559   5.772  10.684  0.00  0.00    +0.000 C 
BRANCH  21  22
ATOM     22  C   UNL     1      44.273   5.006  11.056  0.00  0.00    +0.000 C 
ATOM     23  C   UNL     1      43.746   5.267  12.464  0.00  0.00    +0.000 C 
ATOM     24  C   UNL     1      43.398   3.898  13.027  0.00  0.00    +0.000 C 
ATOM     25  O   UNL     1      43.584   2.931  11.995  0.00  0.00    +0.000 OA
ATOM     26  C   UNL     1      44.534   3.486  11.070  0.00  0.00    +0.000 C 
ATOM     27  C   UNL     1      44.380   2.775   9.736  0.00  0.00    +0.000 C 
BRANCH  22  28
ATOM     28  O   UNL     1      43.239   5.321  10.112  0.00  0.00    +0.000 OA
ATOM     29  H   UNL     1      42.607   5.914  10.553  0.00  0.00    +0.000 HD
ENDBRANCH  22  28
ENDBRANCH  21  22
ENDBRANCH   5  21
TORSDOF 8
ENDMDL
MODEL 3
REMARK VINA RESULT:    -6.904      2.384      3.157
REMARK INTER + INTRA:         -10.855
REMARK INTER:                 -10.207
REMARK INTRA:                  -0.648
REMARK UNBOUND:                -0.924
REMARK  Name = 
REMARK  10 active torsions:
REMARK  status: ('A' for Active; 'I' for Inactive)
REMARK    1  A    between atoms: C_1  and  O_2
REMARK    2  A    between atoms: O_2  and  C_3
REMARK    3  A    between atoms: C_5  and  C_6
REMARK    4  A    between atoms: C_11  and  C_12
REMARK    5  A    between atoms: C_12  and  O_13
REMARK    6  A    between atoms: O_13  and  C_14
REMARK    7  A    between atoms: C_18  and  C_19
REMARK    8  A    between atoms: C_19  and  C_20
REMARK    9  A    between atoms: C_20  and  O_21
REMARK   10  A    between atoms: C_25  and  C_26
REMARK                            x       y       z     vdW  Elec       q    Type
REMARK                         _______ _______ _______ _____ _____    ______ ____
ROOT
ATOM      1  C   UNL     1      47.198   5.442  13.403  0.00  0.00    +0.000 A 
ATOM      2  C   UNL     1      47.280   6.803  13.696  0.00  0.00    +0.000 A 
ATOM      3  C   UNL     1      46.800   7.739  12.780  0.00  0.00    +0.000 A 
ATOM      4  C   UNL     1      46.230   7.317  11.576  0.00  0.00    +0.000 A 
ATOM      5  C   UNL     1      46.131   5.951  11.277  0.00  0.00    +0.000 A 
ATOM      6  C   UNL     1      46.607   5.022  12.211  0.00  0.00    +0.000 A 
ENDROOT
BRANCH   1   7
ATOM      7  O   UNL     1      47.643   4.444  14.220  0.00  0.00    +0.000 OA
BRANCH   7   8
ATOM      8  C   UNL     1      47.023   4.409  15.510  0.00  0.00    +0.000 C 
BRANCH   8  13
ATOM      9  C   UNL     1      49.672   2.443  17.104  0.00  0.00    +0.000 A 
ATOM     10  C   UNL     1      49.797   2.993  18.356  0.00  0.00    +0.000 A 
ATOM     11  C   UNL     1      48.953   4.049  18.645  0.00  0.00    +0.000 A 
ATOM     12  N   UNL     1      48.053   4.504  17.737  0.00  0.00    +0.000 NA
ATOM     13  C   UNL     1      48.022   3.910  16.528  0.00  0.00    +0.000 A 
ATOM     14  N   UNL     1      48.799   2.874  16.181  0.00  0.00    +0.000 NA
BRANCH  11  15
ATOM     15  C   UNL     1      49.020   4.730  20.001  0.00  0.00    +0.000 C 
ATOM     16  F   UNL     1      50.284   5.112  20.355  0.00  0.00    +0.000 F 
ATOM     17  F   UNL     1      48.270   5.866  20.063  0.00  0.00    +0.000 F 
ATOM     18  F   UNL     1      48.580   3.934  21.018  0.00  0.00    +0.000 F 
ENDBRANCH  11  15
BRANCH   9  20
ATOM     19  C   UNL     1      51.724   1.415  17.544  0.00  0.00    +0.000 C 
ATOM     20  O   UNL     1      50.505   1.384  16.802  0.00  0.00    +0.000 OA
ENDBRANCH   9  20
ENDBRANCH   8  13
ENDBRANCH   7   8
ENDBRANCH   1   7
BRANCH   5  21
ATOM     21  C   UNL     1      45.571   5.490   9.948  0.00  0.00    +0.000 C 
BRANCH  21  22
ATOM     22  C   UNL     1      44.295   4.626  10.011  0.00  0.00    +0.000 C 
ATOM     23  C   UNL     1      43.294   5.024  11.092  0.00  0.00    +0.000 C 
ATOM     24  C   UNL     1      42.871   3.722  11.753  0.00  0.00    +0.000 C 
ATOM     25  O   UNL     1      43.473   2.644  11.038  0.00  0.00    +0.000 OA
ATOM     26  C   UNL     1      44.643   3.173  10.393  0.00  0.00    +0.000 C 
ATOM     27  C   UNL     1      45.014   2.256   9.239  0.00  0.00    +0.000 C 
BRANCH  22  28
ATOM     28  O   UNL     1      43.634   4.658   8.737  0.00  0.00    +0.000 OA
ATOM     29  H   UNL     1      43.476   5.591   8.510  0.00  0.00    +0.000 HD
ENDBRANCH  22  28
ENDBRANCH  21  22
ENDBRANCH   5  21
TORSDOF 8
ENDMDL
MODEL 4
REMARK VINA RESULT:    -6.550      1.776      2.189
REMARK INTER + INTRA:         -10.346
REMARK INTER:                  -9.179
REMARK INTRA:                  -1.168
REMARK UNBOUND:                -0.924
REMARK  Name = 
REMARK  10 active torsions:
REMARK  status: ('A' for Active; 'I' for Inactive)
REMARK    1  A    between atoms: C_1  and  O_2
REMARK    2  A    between atoms: O_2  and  C_3
REMARK    3  A    between atoms: C_5  and  C_6
REMARK    4  A    between atoms: C_11  and  C_12
REMARK    5  A    between atoms: C_12  and  O_13
REMARK    6  A    between atoms: O_13  and  C_14
REMARK    7  A    between atoms: C_18  and  C_19
REMARK    8  A    between atoms: C_19  and  C_20
REMARK    9  A    between atoms: C_20  and  O_21
REMARK   10  A    between atoms: C_25  and  C_26
REMARK                            x       y       z     vdW  Elec       q    Type
REMARK                         _______ _______ _______ _____ _____    ______ ____
ROOT
ATOM      1  C   UNL     1      48.033   7.624  13.221  0.00  0.00    +0.000 A 
ATOM      2  C   UNL     1      47.260   8.739  13.546  0.00  0.00    +0.000 A 
ATOM      3  C   UNL     1      46.003   8.903  12.965  0.00  0.00    +0.000 A 
ATOM      4  C   UNL     1      45.512   7.951  12.068  0.00  0.00    +0.000 A 
ATOM      5  C   UNL     1      46.274   6.821  11.744  0.00  0.00    +0.000 A 
ATOM      6  C   UNL     1      47.531   6.663  12.342  0.00  0.00    +0.000 A 
ENDROOT
BRANCH   1   7
ATOM      7  O   UNL     1      49.276   7.368  13.721  0.00  0.00    +0.000 OA
BRANCH   7   8
ATOM      8  C   UNL     1      49.474   7.797  15.073  0.00  0.00    +0.000 C 
BRANCH   8  13
ATOM      9  C   UNL     1      51.009   5.415  17.395  0.00  0.00    +0.000 A 
ATOM     10  C   UNL     1      50.084   4.406  17.507  0.00  0.00    +0.000 A 
ATOM     11  C   UNL     1      48.925   4.556  16.769  0.00  0.00    +0.000 A 
ATOM     12  N   UNL     1      48.726   5.641  15.978  0.00  0.00    +0.000 NA
ATOM     13  C   UNL     1      49.687   6.586  15.951  0.00  0.00    +0.000 A 
ATOM     14  N   UNL     1      50.840   6.503  16.628  0.00  0.00    +0.000 NA
BRANCH  11  15
ATOM     15  C   UNL     1      47.838   3.498  16.833  0.00  0.00    +0.000 C 
ATOM     16  F   UNL     1      47.787   2.704  15.722  0.00  0.00    +0.000 F 
ATOM     17  F   UNL     1      47.992   2.640  17.881  0.00  0.00    +0.000 F 
ATOM     18  F   UNL     1      46.587   4.026  16.962  0.00  0.00    +0.000 F 
ENDBRANCH  11  15
BRANCH   9  20
ATOM     19  C   UNL     1      52.802   4.011  17.920  0.00  0.00    +0.000 C 
ATOM     20  O   UNL     1      52.174   5.276  18.123  0.00  0.00    +0.000 OA
ENDBRANCH   9  20
ENDBRANCH   8  13
ENDBRANCH   7   8
ENDBRANCH   1   7
BRANCH   5  21
ATOM     21  C   UNL     1      45.775   5.819  10.725  0.00  0.00    +0.000 C 
BRANCH  21  22
ATOM     22  C   UNL     1      44.736   4.797  11.229  0.00  0.00    +0.000 C 
ATOM     23  C   UNL     1      43.303   5.313  11.309  0.00  0.00    +0.000 C 
ATOM     24  C   UNL     1      42.777   4.843  12.656  0.00  0.00    +0.000 C 
ATOM     25  O   UNL     1      43.771   4.016  13.258  0.00  0.00    +0.000 OA
ATOM     26  C   UNL     1      45.033   4.399  12.690  0.00  0.00    +0.000 C 
ATOM     27  C   UNL     1      46.015   3.255  12.879  0.00  0.00    +0.000 C 
BRANCH  22  28
ATOM     28  O   UNL     1      44.762   3.635  10.387  0.00  0.00    +0.000 OA
ATOM     29  H   UNL     1      44.657   3.935   9.467  0.00  0.00    +0.000 HD
ENDBRANCH  22  28
ENDBRANCH  21  22
ENDBRANCH   5  21
TORSDOF 8
ENDMDL
MODEL 5
REMARK VINA RESULT:    -6.213      1.366      2.126
REMARK INTER + INTRA:          -9.862
REMARK INTER:                  -9.016
REMARK INTRA:                  -0.846
REMARK UNBOUND:                -0.924
REMARK  Name = 
REMARK  10 active torsions:
REMARK  status: ('A' for Active; 'I' for Inactive)
REMARK    1  A    between atoms: C_1  and  O_2
REMARK    2  A    between atoms: O_2  and  C_3
REMARK    3  A    between atoms: C_5  and  C_6
REMARK    4  A    between atoms: C_11  and  C_12
REMARK    5  A    between atoms: C_12  and  O_13
REMARK    6  A    between atoms: O_13  and  C_14
REMARK    7  A    between atoms: C_18  and  C_19
REMARK    8  A    between atoms: C_19  and  C_20
REMARK    9  A    between atoms: C_20  and  O_21
REMARK   10  A    between atoms: C_25  and  C_26
REMARK                            x       y       z     vdW  Elec       q    Type
REMARK                         _______ _______ _______ _____ _____    ______ ____
ROOT
ATOM      1  C   UNL     1      49.244   7.175  13.662  0.00  0.00    +0.000 A 
ATOM      2  C   UNL     1      49.854   7.705  12.525  0.00  0.00    +0.000 A 
ATOM      3  C   UNL     1      49.090   7.964  11.387  0.00  0.00    +0.000 A 
ATOM      4  C   UNL     1      47.718   7.705  11.386  0.00  0.00    +0.000 A 
ATOM      5  C   UNL     1      47.092   7.184  12.527  0.00  0.00    +0.000 A 
ATOM      6  C   UNL     1      47.869   6.937  13.666  0.00  0.00    +0.000 A 
ENDROOT
BRANCH   1   7
ATOM      7  O   UNL     1      49.895   6.874  14.823  0.00  0.00    +0.000 OA
BRANCH   7   8
ATOM      8  C   UNL     1      49.316   7.455  15.997  0.00  0.00    +0.000 C 
BRANCH   8  13
ATOM      9  C   UNL     1      49.009   5.701  19.199  0.00  0.00    +0.000 A 
ATOM     10  C   UNL     1      48.657   4.419  18.852  0.00  0.00    +0.000 A 
ATOM     11  C   UNL     1      48.529   4.167  17.498  0.00  0.00    +0.000 A 
ATOM     12  N   UNL     1      48.747   5.138  16.575  0.00  0.00    +0.000 NA
ATOM     13  C   UNL     1      49.070   6.368  17.018  0.00  0.00    +0.000 A 
ATOM     14  N   UNL     1      49.225   6.684  18.312  0.00  0.00    +0.000 NA
BRANCH  11  15
ATOM     15  C   UNL     1      48.135   2.783  17.015  0.00  0.00    +0.000 C 
ATOM     16  F   UNL     1      47.056   2.264  17.674  0.00  0.00    +0.000 F 
ATOM     17  F   UNL     1      47.796   2.758  15.694  0.00  0.00    +0.000 F 
ATOM     18  F   UNL     1      49.132   1.863  17.163  0.00  0.00    +0.000 F 
ENDBRANCH  11  15
BRANCH   9  20
ATOM     19  C   UNL     1      50.067   5.088  21.190  0.00  0.00    +0.000 C 
ATOM     20  O   UNL     1      49.145   5.966  20.547  0.00  0.00    +0.000 OA
ENDBRANCH   9  20
ENDBRANCH   8  13
ENDBRANCH   7   8
ENDBRANCH   1   7
BRANCH   5  21
ATOM     21  C   UNL     1      45.618   6.842  12.512  0.00  0.00    +0.000 C 
BRANCH  21  22
ATOM     22  C   UNL     1      45.246   5.466  11.923  0.00  0.00    +0.000 C 
ATOM     23  C   UNL     1      45.582   5.278  10.447  0.00  0.00    +0.000 C 
ATOM     24  C   UNL     1      44.350   4.635   9.829  0.00  0.00    +0.000 C 
ATOM     25  O   UNL     1      43.423   4.354  10.875  0.00  0.00    +0.000 OA
ATOM     26  C   UNL     1      43.717   5.261  11.949  0.00  0.00    +0.000 C 
ATOM     27  C   UNL     1      43.147   4.686  13.236  0.00  0.00    +0.000 C 
BRANCH  22  28
ATOM     28  O   UNL     1      45.895   4.432  12.679  0.00  0.00    +0.000 OA
ATOM     29  H   UNL     1      46.853   4.603  12.649  0.00  0.00    +0.000 HD
ENDBRANCH  22  28
ENDBRANCH  21  22
ENDBRANCH   5  21
TORSDOF 8
ENDMDL
MODEL 6
REMARK VINA RESULT:    -6.191      3.127      7.928
REMARK INTER + INTRA:          -9.830
REMARK INTER:                  -8.959
REMARK INTRA:                  -0.871
REMARK UNBOUND:                -0.924
REMARK  Name = 
REMARK  10 active torsions:
REMARK  status: ('A' for Active; 'I' for Inactive)
REMARK    1  A    between atoms: C_1  and  O_2
REMARK    2  A    between atoms: O_2  and  C_3
REMARK    3  A    between atoms: C_5  and  C_6
REMARK    4  A    between atoms: C_11  and  C_12
REMARK    5  A    between atoms: C_12  and  O_13
REMARK    6  A    between atoms: O_13  and  C_14
REMARK    7  A    between atoms: C_18  and  C_19
REMARK    8  A    between atoms: C_19  and  C_20
REMARK    9  A    between atoms: C_20  and  O_21
REMARK   10  A    between atoms: C_25  and  C_26
REMARK                            x       y       z     vdW  Elec       q    Type
REMARK                         _______ _______ _______ _____ _____    ______ ____
ROOT
ATOM      1  C   UNL     1      47.735   3.758  16.275  0.00  0.00    +0.000 A 
ATOM      2  C   UNL     1      48.590   2.750  16.719  0.00  0.00    +0.000 A 
ATOM      3  C   UNL     1      49.050   2.764  18.036  0.00  0.00    +0.000 A 
ATOM      4  C   UNL     1      48.651   3.777  18.911  0.00  0.00    +0.000 A 
ATOM      5  C   UNL     1      47.781   4.788  18.478  0.00  0.00    +0.000 A 
ATOM      6  C   UNL     1      47.319   4.756  17.157  0.00  0.00    +0.000 A 
ENDROOT
BRANCH   1   7
ATOM      7  O   UNL     1      47.233   3.848  15.009  0.00  0.00    +0.000 OA
BRANCH   7   8
ATOM      8  C   UNL     1      47.470   5.102  14.361  0.00  0.00    +0.000 C 
BRANCH   8  13
ATOM      9  C   UNL     1      45.204   6.834  12.062  0.00  0.00    +0.000 A 
ATOM     10  C   UNL     1      44.361   5.849  11.609  0.00  0.00    +0.000 A 
ATOM     11  C   UNL     1      44.582   4.579  12.110  0.00  0.00    +0.000 A 
ATOM     12  N   UNL     1      45.576   4.335  13.001  0.00  0.00    +0.000 NA
ATOM     13  C   UNL     1      46.362   5.366  13.368  0.00  0.00    +0.000 A 
ATOM     14  N   UNL     1      46.200   6.624  12.936  0.00  0.00    +0.000 NA
BRANCH  11  15
ATOM     15  C   UNL     1      43.708   3.421  11.664  0.00  0.00    +0.000 C 
ATOM     16  F   UNL     1      44.210   2.745  10.587  0.00  0.00    +0.000 F 
ATOM     17  F   UNL     1      43.539   2.478  12.634  0.00  0.00    +0.000 F 
ATOM     18  F   UNL     1      42.453   3.811  11.298  0.00  0.00    +0.000 F 
ENDBRANCH  11  15
BRANCH   9  20
ATOM     19  C   UNL     1      45.351   9.122  12.511  0.00  0.00    +0.000 C 
ATOM     20  O   UNL     1      44.992   8.108  11.574  0.00  0.00    +0.000 OA
ENDBRANCH   9  20
ENDBRANCH   8  13
ENDBRANCH   7   8
ENDBRANCH   1   7
BRANCH   5  21
ATOM     21  C   UNL     1      47.395   5.922  19.403  0.00  0.00    +0.000 C 
BRANCH  21  22
ATOM     22  C   UNL     1      48.093   7.274  19.149  0.00  0.00    +0.000 C 
ATOM     23  C   UNL     1      49.468   7.182  18.494  0.00  0.00    +0.000 C 
ATOM     24  C   UNL     1      50.356   8.134  19.280  0.00  0.00    +0.000 C 
ATOM     25  O   UNL     1      49.542   8.819  20.230  0.00  0.00    +0.000 OA
ATOM     26  C   UNL     1      48.401   7.983  20.483  0.00  0.00    +0.000 C 
ATOM     27  C   UNL     1      47.286   8.847  21.048  0.00  0.00    +0.000 C 
BRANCH  22  28
ATOM     28  O   UNL     1      47.249   8.101  18.333  0.00  0.00    +0.000 OA
ATOM     29  H   UNL     1      47.546   9.022  18.440  0.00  0.00    +0.000 HD
ENDBRANCH  22  28
ENDBRANCH  21  22
ENDBRANCH   5  21
TORSDOF 8
ENDMDL
MODEL 7
REMARK VINA RESULT:    -6.018      2.163      2.730
REMARK INTER + INTRA:          -9.580
REMARK INTER:                  -9.028
REMARK INTRA:                  -0.552
REMARK UNBOUND:                -0.924
REMARK  Name = 
REMARK  10 active torsions:
REMARK  status: ('A' for Active; 'I' for Inactive)
REMARK    1  A    between atoms: C_1  and  O_2
REMARK    2  A    between atoms: O_2  and  C_3
REMARK    3  A    between atoms: C_5  and  C_6
REMARK    4  A    between atoms: C_11  and  C_12
REMARK    5  A    between atoms: C_12  and  O_13
REMARK    6  A    between atoms: O_13  and  C_14
REMARK    7  A    between atoms: C_18  and  C_19
REMARK    8  A    between atoms: C_19  and  C_20
REMARK    9  A    between atoms: C_20  and  O_21
REMARK   10  A    between atoms: C_25  and  C_26
REMARK                            x       y       z     vdW  Elec       q    Type
REMARK                         _______ _______ _______ _____ _____    ______ ____
ROOT
ATOM      1  C   UNL     1      46.967   5.210  14.352  0.00  0.00    +0.000 A 
ATOM      2  C   UNL     1      48.212   5.704  13.962  0.00  0.00    +0.000 A 
ATOM      3  C   UNL     1      48.323   6.452  12.790  0.00  0.00    +0.000 A 
ATOM      4  C   UNL     1      47.192   6.717  12.013  0.00  0.00    +0.000 A 
ATOM      5  C   UNL     1      45.935   6.237  12.402  0.00  0.00    +0.000 A 
ATOM      6  C   UNL     1      45.835   5.495  13.586  0.00  0.00    +0.000 A 
ENDROOT
BRANCH   1   7
ATOM      7  O   UNL     1      46.745   4.462  15.470  0.00  0.00    +0.000 OA
BRANCH   7   8
ATOM      8  C   UNL     1      47.708   3.426  15.695  0.00  0.00    +0.000 C 
BRANCH   8  13
ATOM      9  C   UNL     1      48.659   4.687  19.000  0.00  0.00    +0.000 A 
ATOM     10  C   UNL     1      50.000   4.407  19.098  0.00  0.00    +0.000 A 
ATOM     11  C   UNL     1      50.573   3.780  18.007  0.00  0.00    +0.000 A 
ATOM     12  N   UNL     1      49.842   3.469  16.907  0.00  0.00    +0.000 NA
ATOM     13  C   UNL     1      48.529   3.768  16.916  0.00  0.00    +0.000 A 
ATOM     14  N   UNL     1      47.907   4.386  17.931  0.00  0.00    +0.000 NA
BRANCH  11  15
ATOM     15  C   UNL     1      52.048   3.422  18.022  0.00  0.00    +0.000 C 
ATOM     16  F   UNL     1      52.323   2.227  17.419  0.00  0.00    +0.000 F 
ATOM     17  F   UNL     1      52.824   4.338  17.376  0.00  0.00    +0.000 F 
ATOM     18  F   UNL     1      52.559   3.322  19.283  0.00  0.00    +0.000 F 
ENDBRANCH  11  15
BRANCH   9  20
ATOM     19  C   UNL     1      47.146   6.329  19.691  0.00  0.00    +0.000 C 
ATOM     20  O   UNL     1      48.074   5.317  20.081  0.00  0.00    +0.000 OA
ENDBRANCH   9  20
ENDBRANCH   8  13
ENDBRANCH   7   8
ENDBRANCH   1   7
BRANCH   5  21
ATOM     21  C   UNL     1      44.717   6.466  11.533  0.00  0.00    +0.000 C 
BRANCH  21  22
ATOM     22  C   UNL     1      43.954   5.203  11.085  0.00  0.00    +0.000 C 
ATOM     23  C   UNL     1      43.229   4.453  12.198  0.00  0.00    +0.000 C 
ATOM     24  C   UNL     1      43.554   2.984  11.977  0.00  0.00    +0.000 C 
ATOM     25  O   UNL     1      44.299   2.871  10.766  0.00  0.00    +0.000 OA
ATOM     26  C   UNL     1      44.934   4.141  10.546  0.00  0.00    +0.000 C 
ATOM     27  C   UNL     1      45.290   4.254   9.073  0.00  0.00    +0.000 C 
BRANCH  22  28
ATOM     28  O   UNL     1      43.001   5.555  10.071  0.00  0.00    +0.000 OA
ATOM     29  H   UNL     1      42.346   6.151  10.475  0.00  0.00    +0.000 HD
ENDBRANCH  22  28
ENDBRANCH  21  22
ENDBRANCH   5  21
TORSDOF 8
ENDMDL
MODEL 8
REMARK VINA RESULT:    -6.015      3.439      8.214
REMARK INTER + INTRA:          -9.576
REMARK INTER:                  -8.743
REMARK INTRA:                  -0.833
REMARK UNBOUND:                -0.924
REMARK  Name = 
REMARK  10 active torsions:
REMARK  status: ('A' for Active; 'I' for Inactive)
REMARK    1  A    between atoms: C_1  and  O_2
REMARK    2  A    between atoms: O_2  and  C_3
REMARK    3  A    between atoms: C_5  and  C_6
REMARK    4  A    between atoms: C_11  and  C_12
REMARK    5  A    between atoms: C_12  and  O_13
REMARK    6  A    between atoms: O_13  and  C_14
REMARK    7  A    between atoms: C_18  and  C_19
REMARK    8  A    between atoms: C_19  and  C_20
REMARK    9  A    between atoms: C_20  and  O_21
REMARK   10  A    between atoms: C_25  and  C_26
REMARK                            x       y       z     vdW  Elec       q    Type
REMARK                         _______ _______ _______ _____ _____    ______ ____
ROOT
ATOM      1  C   UNL     1      47.517   3.802  16.543  0.00  0.00    +0.000 A 
ATOM      2  C   UNL     1      48.562   2.886  16.418  0.00  0.00    +0.000 A 
ATOM      3  C   UNL     1      49.501   2.763  17.442  0.00  0.00    +0.000 A 
ATOM      4  C   UNL     1      49.392   3.545  18.595  0.00  0.00    +0.000 A 
ATOM      5  C   UNL     1      48.339   4.459  18.737  0.00  0.00    +0.000 A 
ATOM      6  C   UNL     1      47.397   4.565  17.705  0.00  0.00    +0.000 A 
ENDROOT
BRANCH   1   7
ATOM      7  O   UNL     1      46.552   4.011  15.602  0.00  0.00    +0.000 OA
BRANCH   7   8
ATOM      8  C   UNL     1      47.039   4.106  14.259  0.00  0.00    +0.000 C 
BRANCH   8  13
ATOM      9  C   UNL     1      44.118   4.738  12.140  0.00  0.00    +0.000 A 
ATOM     10  C   UNL     1      44.185   6.081  11.860  0.00  0.00    +0.000 A 
ATOM     11  C   UNL     1      45.254   6.765  12.409  0.00  0.00    +0.000 A 
ATOM     12  N   UNL     1      46.179   6.134  13.175  0.00  0.00    +0.000 NA
ATOM     13  C   UNL     1      46.013   4.817  13.407  0.00  0.00    +0.000 A 
ATOM     14  N   UNL     1      45.012   4.086  12.899  0.00  0.00    +0.000 NA
BRANCH  11  15
ATOM     15  C   UNL     1      45.411   8.255  12.164  0.00  0.00    +0.000 C 
ATOM     16  F   UNL     1      46.668   8.610  11.762  0.00  0.00    +0.000 F 
ATOM     17  F   UNL     1      44.577   8.726  11.194  0.00  0.00    +0.000 F 
ATOM     18  F   UNL     1      45.156   9.008  13.274  0.00  0.00    +0.000 F 
ENDBRANCH  11  15
BRANCH   9  20
ATOM     19  C   UNL     1      43.265   2.628  11.609  0.00  0.00    +0.000 C 
ATOM     20  O   UNL     1      43.059   4.040  11.594  0.00  0.00    +0.000 OA
ENDBRANCH   9  20
ENDBRANCH   8  13
ENDBRANCH   7   8
ENDBRANCH   1   7
BRANCH   5  21
ATOM     21  C   UNL     1      48.250   5.353  19.955  0.00  0.00    +0.000 C 
BRANCH  21  22
ATOM     22  C   UNL     1      48.615   6.836  19.737  0.00  0.00    +0.000 C 
ATOM     23  C   UNL     1      47.498   7.703  19.164  0.00  0.00    +0.000 C 
ATOM     24  C   UNL     1      48.149   8.532  18.069  0.00  0.00    +0.000 C 
ATOM     25  O   UNL     1      49.550   8.269  18.084  0.00  0.00    +0.000 OA
ATOM     26  C   UNL     1      49.724   6.970  18.673  0.00  0.00    +0.000 C 
ATOM     27  C   UNL     1      51.151   6.859  19.186  0.00  0.00    +0.000 C 
BRANCH  22  28
ATOM     28  O   UNL     1      49.051   7.407  20.979  0.00  0.00    +0.000 OA
ATOM     29  H   UNL     1      48.569   8.243  21.105  0.00  0.00    +0.000 HD
ENDBRANCH  22  28
ENDBRANCH  21  22
ENDBRANCH   5  21
TORSDOF 8
ENDMDL
MODEL 9
REMARK VINA RESULT:    -5.730      3.455      6.997
REMARK INTER + INTRA:          -9.166
REMARK INTER:                  -8.298
REMARK INTRA:                  -0.868
REMARK UNBOUND:                -0.924
REMARK  Name = 
REMARK  10 active torsions:
REMARK  status: ('A' for Active; 'I' for Inactive)
REMARK    1  A    between atoms: C_1  and  O_2
REMARK    2  A    between atoms: O_2  and  C_3
REMARK    3  A    between atoms: C_5  and  C_6
REMARK    4  A    between atoms: C_11  and  C_12
REMARK    5  A    between atoms: C_12  and  O_13
REMARK    6  A    between atoms: O_13  and  C_14
REMARK    7  A    between atoms: C_18  and  C_19
REMARK    8  A    between atoms: C_19  and  C_20
REMARK    9  A    between atoms: C_20  and  O_21
REMARK   10  A    between atoms: C_25  and  C_26
REMARK                            x       y       z     vdW  Elec       q    Type
REMARK                         _______ _______ _______ _____ _____    ______ ____
ROOT
ATOM      1  C   UNL     1      48.741   8.114  13.333  0.00  0.00    +0.000 A 
ATOM      2  C   UNL     1      48.386   9.420  13.669  0.00  0.00    +0.000 A 
ATOM      3  C   UNL     1      48.886   9.994  14.838  0.00  0.00    +0.000 A 
ATOM      4  C   UNL     1      49.747   9.270  15.666  0.00  0.00    +0.000 A 
ATOM      5  C   UNL     1      50.121   7.961  15.331  0.00  0.00    +0.000 A 
ATOM      6  C   UNL     1      49.619   7.400  14.150  0.00  0.00    +0.000 A 
ENDROOT
BRANCH   1   7
ATOM      7  O   UNL     1      48.305   7.452  12.222  0.00  0.00    +0.000 OA
BRANCH   7   8
ATOM      8  C   UNL     1      46.881   7.403  12.079  0.00  0.00    +0.000 C 
BRANCH   8  13
ATOM      9  C   UNL     1      46.585   3.982  13.356  0.00  0.00    +0.000 A 
ATOM     10  C   UNL     1      45.595   3.417  12.589  0.00  0.00    +0.000 A 
ATOM     11  C   UNL     1      45.033   4.232  11.624  0.00  0.00    +0.000 A 
ATOM     12  N   UNL     1      45.448   5.512  11.449  0.00  0.00    +0.000 NA
ATOM     13  C   UNL     1      46.412   5.979  12.266  0.00  0.00    +0.000 A 
ATOM     14  N   UNL     1      47.012   5.246  13.214  0.00  0.00    +0.000 NA
BRANCH  11  15
ATOM     15  C   UNL     1      43.925   3.701  10.730  0.00  0.00    +0.000 C 
ATOM     16  F   UNL     1      42.772   3.416  11.406  0.00  0.00    +0.000 F 
ATOM     17  F   UNL     1      43.563   4.581   9.754  0.00  0.00    +0.000 F 
ATOM     18  F   UNL     1      44.267   2.548  10.086  0.00  0.00    +0.000 F 
ENDBRANCH  11  15
BRANCH   9  20
ATOM     19  C   UNL     1      47.262   3.832  15.587  0.00  0.00    +0.000 C 
ATOM     20  O   UNL     1      47.159   3.180  14.322  0.00  0.00    +0.000 OA
ENDBRANCH   9  20
ENDBRANCH   8  13
ENDBRANCH   7   8
ENDBRANCH   1   7
BRANCH   5  21
ATOM     21  C   UNL     1      51.002   7.149  16.255  0.00  0.00    +0.000 C 
BRANCH  21  22
ATOM     22  C   UNL     1      50.274   6.203  17.231  0.00  0.00    +0.000 C 
ATOM     23  C   UNL     1      48.826   6.572  17.535  0.00  0.00    +0.000 C 
ATOM     24  C   UNL     1      48.679   6.436  19.043  0.00  0.00    +0.000 C 
ATOM     25  O   UNL     1      49.899   5.909  19.562  0.00  0.00    +0.000 OA
ATOM     26  C   UNL     1      50.934   6.250  18.625  0.00  0.00    +0.000 C 
ATOM     27  C   UNL     1      52.106   5.306  18.836  0.00  0.00    +0.000 C 
BRANCH  22  28
ATOM     28  O   UNL     1      50.310   4.864  16.714  0.00  0.00    +0.000 OA
ATOM     29  H   UNL     1      51.035   4.394  17.162  0.00  0.00    +0.000 HD
ENDBRANCH  22  28
ENDBRANCH  21  22
ENDBRANCH   5  21
TORSDOF 8
ENDMDL
