MODEL 1
REMARK VINA RESULT:    -8.290      0.000      0.000
REMARK INTER + INTRA:         -11.444
REMARK INTER:                 -11.198
REMARK INTRA:                  -0.246
REMARK UNBOUND:                -0.246
REMARK  Name = 
REMARK  8 active torsions:
REMARK  status: ('A' for Active; 'I' for Inactive)
REMARK    1  A    between atoms: C_1  and  C_2
REMARK    2  A    between atoms: C_2  and  N_3
REMARK    3  A    between atoms: C_2  and  C_19
REMARK    4  A    between atoms: N_3  and  C_4
REMARK    5  A    between atoms: C_7  and  C_8
REMARK    6  A    between atoms: C_8  and  N_9
REMARK    7  A    between atoms: N_9  and  C_10
REMARK    8  A    between atoms: C_19  and  C_21
REMARK                            x       y       z     vdW  Elec       q    Type
REMARK                         _______ _______ _______ _____ _____    ______ ____
ROOT
ATOM      1  N   UNL     1      46.461   5.967  14.080  0.00  0.00    +0.000 N 
ATOM      2  H   UNL     1      45.783   6.051  14.842  0.00  0.00    +0.000 HD
ENDROOT
BRANCH   1   3
ATOM      3  C   UNL     1      45.876   5.621  12.865  0.00  0.00    +0.000 A 
ATOM      4  C   UNL     1      46.382   6.193  11.700  0.00  0.00    +0.000 A 
ATOM      5  C   UNL     1      45.886   5.820  10.450  0.00  0.00    +0.000 A 
ATOM      6  C   UNL     1      44.858   4.881  10.379  0.00  0.00    +0.000 A 
ATOM      7  N   UNL     1      44.275   4.377  11.496  0.00  0.00    +0.000 NA
ATOM      8  C   UNL     1      44.788   4.769  12.692  0.00  0.00    +0.000 A 
BRANCH   6   9
ATOM      9  C   UNL     1      44.368   4.377   9.027  0.00  0.00    +0.000 C 
BRANCH   9  10
ATOM     10  N   UNL     1      44.693   2.960   8.825  0.00  0.00    +0.000 N 
ATOM     11  C   UNL     1      44.120   1.994   9.751  0.00  0.00    +0.000 C 
ATOM     12  C   UNL     1      45.815   2.549   8.117  0.00  0.00    +0.000 A 
ATOM     13  C   UNL     1      46.499   3.385   7.248  0.00  0.00    +0.000 A 
ATOM     14  C   UNL     1      47.584   2.858   6.572  0.00  0.00    +0.000 A 
ATOM     15  N   UNL     1      48.001   1.590   6.706  0.00  0.00    +0.000 NA
ATOM     16  C   UNL     1      47.284   0.855   7.554  0.00  0.00    +0.000 A 
ATOM     17  N   UNL     1      46.220   1.267   8.267  0.00  0.00    +0.000 NA
ENDBRANCH   9  10
ENDBRANCH   6   9
ENDBRANCH   1   3
BRANCH   1  19
ATOM     18  C   UNL     1      48.715   6.461  14.842  0.00  0.00    +0.000 C 
ATOM     19  C   UNL     1      47.726   5.343  14.523  0.00  0.00    +0.000 C 
BRANCH  19  20
ATOM     20  C   UNL     1      47.495   4.503  15.797  0.00  0.00    +0.000 C 
ATOM     21  O   UNL     1      46.618   3.637  15.806  0.00  0.00    +0.000 OA
BRANCH  20  22
ATOM     22  C   UNL     1      48.373   4.679  16.966  0.00  0.00    +0.000 A 
ATOM     23  C   UNL     1      48.264   5.717  17.875  0.00  0.00    +0.000 A 
ATOM     24  S   UNL     1      49.592   5.809  18.951  0.00  0.00    +0.000 S 
ATOM     25  C   UNL     1      50.316   4.430  18.266  0.00  0.00    +0.000 A 
ATOM     26  N   UNL     1      51.531   3.988  18.683  0.00  0.00    +0.000 NA
ATOM     27  C   UNL     1      51.937   2.915  18.087  0.00  0.00    +0.000 A 
ATOM     28  N   UNL     1      51.222   2.226  17.139  0.00  0.00    +0.000 N 
ATOM     29  C   UNL     1      49.946   2.584  16.761  0.00  0.00    +0.000 A 
ATOM     30  O   UNL     1      49.234   1.821  16.118  0.00  0.00    +0.000 OA
ATOM     31  C   UNL     1      49.512   3.858  17.299  0.00  0.00    +0.000 A 
ATOM     32  H   UNL     1      51.549   1.335  16.797  0.00  0.00    +0.000 HD
ENDBRANCH  20  22
ENDBRANCH  19  20
ENDBRANCH   1  19
TORSDOF 6
ENDMDL
MODEL 2
REMARK VINA RESULT:    -8.254      1.693      2.211
REMARK INTER + INTRA:         -11.396
REMARK INTER:                 -10.302
REMARK INTRA:                  -1.094
REMARK UNBOUND:                -0.246
REMARK  Name = 
REMARK  8 active torsions:
REMARK  status: ('A' for Active; 'I' for Inactive)
REMARK    1  A    between atoms: C_1  and  C_2
REMARK    2  A    between atoms: C_2  and  N_3
REMARK    3  A    between atoms: C_2  and  C_19
REMARK    4  A    between atoms: N_3  and  C_4
REMARK    5  A    between atoms: C_7  and  C_8
REMARK    6  A    between atoms: C_8  and  N_9
REMARK    7  A    between atoms: N_9  and  C_10
REMARK    8  A    between atoms: C_19  and  C_21
REMARK                            x       y       z     vdW  Elec       q    Type
REMARK                         _______ _______ _______ _____ _____    ______ ____
ROOT
ATOM      1  N   UNL     1      46.160   6.809  13.438  0.00  0.00    +0.000 N 
ATOM      2  H   UNL     1      46.135   6.177  14.243  0.00  0.00    +0.000 HD
ENDROOT
BRANCH   1   3
ATOM      3  C   UNL     1      45.608   6.250  12.290  0.00  0.00    +0.000 A 
ATOM      4  C   UNL     1      46.348   6.293  11.111  0.00  0.00    +0.000 A 
ATOM      5  C   UNL     1      45.876   5.677   9.950  0.00  0.00    +0.000 A 
ATOM      6  C   UNL     1      44.639   5.034   9.976  0.00  0.00    +0.000 A 
ATOM      7  N   UNL     1      43.848   5.057  11.079  0.00  0.00    +0.000 NA
ATOM      8  C   UNL     1      44.345   5.669  12.186  0.00  0.00    +0.000 A 
BRANCH   6   9
ATOM      9  C   UNL     1      44.146   4.264   8.758  0.00  0.00    +0.000 C 
BRANCH   9  10
ATOM     10  N   UNL     1      44.662   2.890   8.737  0.00  0.00    +0.000 N 
ATOM     11  C   UNL     1      44.370   2.039   9.880  0.00  0.00    +0.000 C 
ATOM     12  C   UNL     1      45.737   2.513   7.942  0.00  0.00    +0.000 A 
ATOM     13  C   UNL     1      46.166   3.262   6.859  0.00  0.00    +0.000 A 
ATOM     14  C   UNL     1      47.227   2.773   6.119  0.00  0.00    +0.000 A 
ATOM     15  N   UNL     1      47.852   1.617   6.389  0.00  0.00    +0.000 NA
ATOM     16  C   UNL     1      47.373   0.957   7.442  0.00  0.00    +0.000 A 
ATOM     17  N   UNL     1      46.355   1.344   8.231  0.00  0.00    +0.000 NA
ENDBRANCH   9  10
ENDBRANCH   6   9
ENDBRANCH   1   3
BRANCH   1  19
ATOM     18  C   UNL     1      47.175   8.915  14.102  0.00  0.00    +0.000 C 
ATOM     19  C   UNL     1      47.413   7.591  13.379  0.00  0.00    +0.000 C 
BRANCH  19  20
ATOM     20  C   UNL     1      48.555   6.835  14.090  0.00  0.00    +0.000 C 
ATOM     21  O   UNL     1      49.560   6.510  13.454  0.00  0.00    +0.000 OA
BRANCH  20  22
ATOM     22  C   UNL     1      48.481   6.576  15.537  0.00  0.00    +0.000 A 
ATOM     23  C   UNL     1      48.893   7.468  16.513  0.00  0.00    +0.000 A 
ATOM     24  S   UNL     1      48.946   6.774  18.077  0.00  0.00    +0.000 S 
ATOM     25  C   UNL     1      48.365   5.284  17.498  0.00  0.00    +0.000 A 
ATOM     26  N   UNL     1      48.234   4.209  18.319  0.00  0.00    +0.000 NA
ATOM     27  C   UNL     1      47.756   3.156  17.740  0.00  0.00    +0.000 A 
ATOM     28  N   UNL     1      47.365   3.092  16.426  0.00  0.00    +0.000 N 
ATOM     29  C   UNL     1      47.388   4.186  15.588  0.00  0.00    +0.000 A 
ATOM     30  O   UNL     1      46.800   4.177  14.511  0.00  0.00    +0.000 OA
ATOM     31  C   UNL     1      48.048   5.346  16.155  0.00  0.00    +0.000 A 
ATOM     32  H   UNL     1      46.896   2.274  16.069  0.00  0.00    +0.000 HD
ENDBRANCH  20  22
ENDBRANCH  19  20
ENDBRANCH   1  19
TORSDOF 6
ENDMDL
MODEL 3
REMARK VINA RESULT:    -7.738      1.822      2.340
REMARK INTER + INTRA:         -10.698
REMARK INTER:                 -10.227
REMARK INTRA:                  -0.471
REMARK UNBOUND:                -0.246
REMARK  Name = 
REMARK  8 active torsions:
REMARK  status: ('A' for Active; 'I' for Inactive)
REMARK    1  A    between atoms: C_1  and  C_2
REMARK    2  A    between atoms: C_2  and  N_3
REMARK    3  A    between atoms: C_2  and  C_19
REMARK    4  A    between atoms: N_3  and  C_4
REMARK    5  A    between atoms: C_7  and  C_8
REMARK    6  A    between atoms: C_8  and  N_9
REMARK    7  A    between atoms: N_9  and  C_10
REMARK    8  A    between atoms: C_19  and  C_21
REMARK                            x       y       z     vdW  Elec       q    Type
REMARK                         _______ _______ _______ _____ _____    ______ ____
ROOT
ATOM      1  N   UNL     1      47.327   7.622  14.049  0.00  0.00    +0.000 N 
ATOM      2  H   UNL     1      46.879   8.084  14.844  0.00  0.00    +0.000 HD
ENDROOT
BRANCH   1   3
ATOM      3  C   UNL     1      46.416   7.056  13.163  0.00  0.00    +0.000 A 
ATOM      4  C   UNL     1      46.451   5.678  12.967  0.00  0.00    +0.000 A 
ATOM      5  C   UNL     1      45.508   5.049  12.151  0.00  0.00    +0.000 A 
ATOM      6  C   UNL     1      44.540   5.822  11.512  0.00  0.00    +0.000 A 
ATOM      7  N   UNL     1      44.536   7.176  11.601  0.00  0.00    +0.000 NA
ATOM      8  C   UNL     1      45.473   7.746  12.405  0.00  0.00    +0.000 A 
BRANCH   6   9
ATOM      9  C   UNL     1      43.436   5.155  10.701  0.00  0.00    +0.000 C 
BRANCH   9  10
ATOM     10  N   UNL     1      43.727   3.739  10.445  0.00  0.00    +0.000 N 
ATOM     11  C   UNL     1      43.471   2.790  11.518  0.00  0.00    +0.000 C 
ATOM     12  C   UNL     1      44.610   3.331   9.453  0.00  0.00    +0.000 A 
ATOM     13  C   UNL     1      44.992   4.153   8.407  0.00  0.00    +0.000 A 
ATOM     14  C   UNL     1      45.851   3.629   7.458  0.00  0.00    +0.000 A 
ATOM     15  N   UNL     1      46.323   2.374   7.495  0.00  0.00    +0.000 NA
ATOM     16  C   UNL     1      45.901   1.650   8.530  0.00  0.00    +0.000 A 
ATOM     17  N   UNL     1      45.075   2.061   9.509  0.00  0.00    +0.000 NA
ENDBRANCH   9  10
ENDBRANCH   6   9
ENDBRANCH   1   3
BRANCH   1  19
ATOM     18  C   UNL     1      49.683   7.357  13.512  0.00  0.00    +0.000 C 
ATOM     19  C   UNL     1      48.559   6.903  14.440  0.00  0.00    +0.000 C 
BRANCH  19  20
ATOM     20  C   UNL     1      48.945   7.248  15.895  0.00  0.00    +0.000 C 
ATOM     21  O   UNL     1      48.424   8.218  16.450  0.00  0.00    +0.000 OA
BRANCH  20  22
ATOM     22  C   UNL     1      49.866   6.376  16.640  0.00  0.00    +0.000 A 
ATOM     23  C   UNL     1      51.119   6.762  17.086  0.00  0.00    +0.000 A 
ATOM     24  S   UNL     1      52.058   5.453  17.664  0.00  0.00    +0.000 S 
ATOM     25  C   UNL     1      50.794   4.348  17.388  0.00  0.00    +0.000 A 
ATOM     26  N   UNL     1      50.955   3.018  17.610  0.00  0.00    +0.000 NA
ATOM     27  C   UNL     1      49.898   2.311  17.379  0.00  0.00    +0.000 A 
ATOM     28  N   UNL     1      48.686   2.817  16.982  0.00  0.00    +0.000 N 
ATOM     29  C   UNL     1      48.453   4.169  16.841  0.00  0.00    +0.000 A 
ATOM     30  O   UNL     1      47.314   4.612  16.741  0.00  0.00    +0.000 OA
ATOM     31  C   UNL     1      49.647   4.984  16.951  0.00  0.00    +0.000 A 
ATOM     32  H   UNL     1      47.873   2.223  16.928  0.00  0.00    +0.000 HD
ENDBRANCH  20  22
ENDBRANCH  19  20
ENDBRANCH   1  19
TORSDOF 6
ENDMDL
MODEL 4
REMARK VINA RESULT:    -7.427      2.266      2.879
REMARK INTER + INTRA:         -10.278
REMARK INTER:                  -9.733
REMARK INTRA:                  -0.545
REMARK UNBOUND:                -0.246
REMARK  Name = 
REMARK  8 active torsions:
REMARK  status: ('A' for Active; 'I' for Inactive)
REMARK    1  A    between atoms: C_1  and  C_2
REMARK    2  A    between atoms: C_2  and  N_3
REMARK    3  A    between atoms: C_2  and  C_19
REMARK    4  A    between atoms: N_3  and  C_4
REMARK    5  A    between atoms: C_7  and  C_8
REMARK    6  A    between atoms: C_8  and  N_9
REMARK    7  A    between atoms: N_9  and  C_10
REMARK    8  A    between atoms: C_19  and  C_21
REMARK                            x       y       z     vdW  Elec       q    Type
REMARK                         _______ _______ _______ _____ _____    ______ ____
ROOT
ATOM      1  N   UNL     1      48.413   6.479  13.866  0.00  0.00    +0.000 N 
ATOM      2  H   UNL     1      49.192   5.861  13.621  0.00  0.00    +0.000 HD
ENDROOT
BRANCH   1   3
ATOM      3  C   UNL     1      47.254   6.204  13.147  0.00  0.00    +0.000 A 
ATOM      4  C   UNL     1      47.178   6.634  11.824  0.00  0.00    +0.000 A 
ATOM      5  C   UNL     1      46.072   6.316  11.034  0.00  0.00    +0.000 A 
ATOM      6  C   UNL     1      45.028   5.579  11.591  0.00  0.00    +0.000 A 
ATOM      7  N   UNL     1      45.024   5.228  12.902  0.00  0.00    +0.000 NA
ATOM      8  C   UNL     1      46.119   5.560  13.635  0.00  0.00    +0.000 A 
BRANCH   6   9
ATOM      9  C   UNL     1      43.858   5.127  10.727  0.00  0.00    +0.000 C 
BRANCH   9  10
ATOM     10  N   UNL     1      43.972   3.711  10.353  0.00  0.00    +0.000 N 
ATOM     11  C   UNL     1      43.540   2.718  11.324  0.00  0.00    +0.000 C 
ATOM     12  C   UNL     1      44.840   3.273   9.362  0.00  0.00    +0.000 A 
ATOM     13  C   UNL     1      45.379   4.123   8.410  0.00  0.00    +0.000 A 
ATOM     14  C   UNL     1      46.207   3.569   7.450  0.00  0.00    +0.000 A 
ATOM     15  N   UNL     1      46.507   2.263   7.390  0.00  0.00    +0.000 NA
ATOM     16  C   UNL     1      45.942   1.517   8.337  0.00  0.00    +0.000 A 
ATOM     17  N   UNL     1      45.131   1.952   9.318  0.00  0.00    +0.000 NA
ENDBRANCH   9  10
ENDBRANCH   6   9
ENDBRANCH   1   3
BRANCH   1  19
ATOM     18  C   UNL     1      47.612   8.756  14.140  0.00  0.00    +0.000 C 
ATOM     19  C   UNL     1      48.855   7.870  14.101  0.00  0.00    +0.000 C 
BRANCH  19  20
ATOM     20  C   UNL     1      49.588   7.982  15.454  0.00  0.00    +0.000 C 
ATOM     21  O   UNL     1      50.812   8.133  15.473  0.00  0.00    +0.000 OA
BRANCH  20  22
ATOM     22  C   UNL     1      48.822   7.991  16.710  0.00  0.00    +0.000 A 
ATOM     23  C   UNL     1      48.299   9.131  17.298  0.00  0.00    +0.000 A 
ATOM     24  S   UNL     1      47.713   8.860  18.883  0.00  0.00    +0.000 S 
ATOM     25  C   UNL     1      48.091   7.203  18.802  0.00  0.00    +0.000 A 
ATOM     26  N   UNL     1      47.902   6.381  19.866  0.00  0.00    +0.000 NA
ATOM     27  C   UNL     1      48.211   5.146  19.643  0.00  0.00    +0.000 A 
ATOM     28  N   UNL     1      48.656   4.653  18.442  0.00  0.00    +0.000 N 
ATOM     29  C   UNL     1      48.767   5.434  17.311  0.00  0.00    +0.000 A 
ATOM     30  O   UNL     1      48.913   4.932  16.202  0.00  0.00    +0.000 OA
ATOM     31  C   UNL     1      48.567   6.849  17.554  0.00  0.00    +0.000 A 
ATOM     32  H   UNL     1      48.771   3.661  18.304  0.00  0.00    +0.000 HD
ENDBRANCH  20  22
ENDBRANCH  19  20
ENDBRANCH   1  19
TORSDOF 6
ENDMDL
MODEL 5
REMARK VINA RESULT:    -7.386      4.100      8.570
REMARK INTER + INTRA:         -10.223
REMARK INTER:                  -8.953
REMARK INTRA:                  -1.270
REMARK UNBOUND:                -0.246
REMARK  Name = 
REMARK  8 active torsions:
REMARK  status: ('A' for Active; 'I' for Inactive)
REMARK    1  A    between atoms: C_1  and  C_2
REMARK    2  A    between atoms: C_2  and  N_3
REMARK    3  A    between atoms: C_2  and  C_19
REMARK    4  A    between atoms: N_3  and  C_4
REMARK    5  A    between atoms: C_7  and  C_8
REMARK    6  A    between atoms: C_8  and  N_9
REMARK    7  A    between atoms: N_9  and  C_10
REMARK    8  A    between atoms: C_19  and  C_21
REMARK                            x       y       z     vdW  Elec       q    Type
REMARK                         _______ _______ _______ _____ _____    ______ ____
ROOT
ATOM      1  N   UNL     1      48.855   9.439  13.848  0.00  0.00    +0.000 N 
ATOM      2  H   UNL     1      49.690   9.685  13.309  0.00  0.00    +0.000 HD
ENDROOT
BRANCH   1   3
ATOM      3  C   UNL     1      49.112   8.526  14.865  0.00  0.00    +0.000 A 
ATOM      4  C   UNL     1      48.462   8.692  16.085  0.00  0.00    +0.000 A 
ATOM      5  C   UNL     1      48.622   7.760  17.112  0.00  0.00    +0.000 A 
ATOM      6  C   UNL     1      49.462   6.666  16.912  0.00  0.00    +0.000 A 
ATOM      7  N   UNL     1      50.187   6.523  15.773  0.00  0.00    +0.000 NA
ATOM      8  C   UNL     1      50.002   7.455  14.801  0.00  0.00    +0.000 A 
BRANCH   6   9
ATOM      9  C   UNL     1      49.575   5.578  17.972  0.00  0.00    +0.000 C 
BRANCH   9  10
ATOM     10  N   UNL     1      49.628   4.238  17.374  0.00  0.00    +0.000 N 
ATOM     11  C   UNL     1      48.370   3.621  16.982  0.00  0.00    +0.000 C 
ATOM     12  C   UNL     1      50.706   3.383  17.563  0.00  0.00    +0.000 A 
ATOM     13  C   UNL     1      51.945   3.825  17.996  0.00  0.00    +0.000 A 
ATOM     14  C   UNL     1      52.955   2.888  18.118  0.00  0.00    +0.000 A 
ATOM     15  N   UNL     1      52.800   1.586  17.835  0.00  0.00    +0.000 NA
ATOM     16  C   UNL     1      51.581   1.248  17.419  0.00  0.00    +0.000 A 
ATOM     17  N   UNL     1      50.529   2.073  17.272  0.00  0.00    +0.000 NA
ENDBRANCH   9  10
ENDBRANCH   6   9
ENDBRANCH   1   3
BRANCH   1  19
ATOM     18  C   UNL     1      47.707  10.420  11.944  0.00  0.00    +0.000 C 
ATOM     19  C   UNL     1      47.656   9.312  12.993  0.00  0.00    +0.000 C 
BRANCH  19  20
ATOM     20  C   UNL     1      47.648   7.946  12.274  0.00  0.00    +0.000 C 
ATOM     21  O   UNL     1      48.472   7.721  11.385  0.00  0.00    +0.000 OA
BRANCH  20  22
ATOM     22  C   UNL     1      46.718   6.890  12.704  0.00  0.00    +0.000 A 
ATOM     23  C   UNL     1      47.063   5.832  13.528  0.00  0.00    +0.000 A 
ATOM     24  S   UNL     1      45.852   4.626  13.615  0.00  0.00    +0.000 S 
ATOM     25  C   UNL     1      44.814   5.514  12.601  0.00  0.00    +0.000 A 
ATOM     26  N   UNL     1      43.611   5.018  12.210  0.00  0.00    +0.000 NA
ATOM     27  C   UNL     1      42.926   5.818  11.463  0.00  0.00    +0.000 A 
ATOM     28  N   UNL     1      43.317   7.084  11.102  0.00  0.00    +0.000 N 
ATOM     29  C   UNL     1      44.482   7.662  11.558  0.00  0.00    +0.000 A 
ATOM     30  O   UNL     1      44.685   8.866  11.441  0.00  0.00    +0.000 OA
ATOM     31  C   UNL     1      45.346   6.748  12.281  0.00  0.00    +0.000 A 
ATOM     32  H   UNL     1      42.685   7.697  10.611  0.00  0.00    +0.000 HD
ENDBRANCH  20  22
ENDBRANCH  19  20
ENDBRANCH   1  19
TORSDOF 6
ENDMDL
MODEL 6
REMARK VINA RESULT:    -7.358      2.094      2.563
REMARK INTER + INTRA:         -10.185
REMARK INTER:                  -9.488
REMARK INTRA:                  -0.696
REMARK UNBOUND:                -0.246
REMARK  Name = 
REMARK  8 active torsions:
REMARK  status: ('A' for Active; 'I' for Inactive)
REMARK    1  A    between atoms: C_1  and  C_2
REMARK    2  A    between atoms: C_2  and  N_3
REMARK    3  A    between atoms: C_2  and  C_19
REMARK    4  A    between atoms: N_3  and  C_4
REMARK    5  A    between atoms: C_7  and  C_8
REMARK    6  A    between atoms: C_8  and  N_9
REMARK    7  A    between atoms: N_9  and  C_10
REMARK    8  A    between atoms: C_19  and  C_21
REMARK                            x       y       z     vdW  Elec       q    Type
REMARK                         _______ _______ _______ _____ _____    ______ ____
ROOT
ATOM      1  N   UNL     1      47.607   5.412  14.965  0.00  0.00    +0.000 N 
ATOM      2  H   UNL     1      47.939   6.363  15.144  0.00  0.00    +0.000 HD
ENDROOT
BRANCH   1   3
ATOM      3  C   UNL     1      46.702   5.340  13.911  0.00  0.00    +0.000 A 
ATOM      4  C   UNL     1      47.029   5.969  12.712  0.00  0.00    +0.000 A 
ATOM      5  C   UNL     1      46.195   5.860  11.598  0.00  0.00    +0.000 A 
ATOM      6  C   UNL     1      45.012   5.130  11.704  0.00  0.00    +0.000 A 
ATOM      7  N   UNL     1      44.613   4.587  12.882  0.00  0.00    +0.000 NA
ATOM      8  C   UNL     1      45.455   4.718  13.941  0.00  0.00    +0.000 A 
BRANCH   6   9
ATOM      9  C   UNL     1      44.134   4.906  10.479  0.00  0.00    +0.000 C 
BRANCH   9  10
ATOM     10  N   UNL     1      44.265   3.539   9.959  0.00  0.00    +0.000 N 
ATOM     11  C   UNL     1      43.742   2.452  10.771  0.00  0.00    +0.000 C 
ATOM     12  C   UNL     1      45.211   3.198   9.000  0.00  0.00    +0.000 A 
ATOM     13  C   UNL     1      45.838   4.138   8.200  0.00  0.00    +0.000 A 
ATOM     14  C   UNL     1      46.739   3.680   7.256  0.00  0.00    +0.000 A 
ATOM     15  N   UNL     1      47.030   2.383   7.073  0.00  0.00    +0.000 NA
ATOM     16  C   UNL     1      46.378   1.547   7.879  0.00  0.00    +0.000 A 
ATOM     17  N   UNL     1      45.490   1.884   8.832  0.00  0.00    +0.000 NA
ENDBRANCH   9  10
ENDBRANCH   6   9
ENDBRANCH   1   3
BRANCH   1  19
ATOM     18  C   UNL     1      47.786   3.202  15.960  0.00  0.00    +0.000 C 
ATOM     19  C   UNL     1      47.385   4.653  16.214  0.00  0.00    +0.000 C 
BRANCH  19  20
ATOM     20  C   UNL     1      48.262   5.219  17.352  0.00  0.00    +0.000 C 
ATOM     21  O   UNL     1      47.742   5.894  18.243  0.00  0.00    +0.000 OA
BRANCH  20  22
ATOM     22  C   UNL     1      49.693   4.885  17.416  0.00  0.00    +0.000 A 
ATOM     23  C   UNL     1      50.210   3.782  18.076  0.00  0.00    +0.000 A 
ATOM     24  S   UNL     1      51.915   3.820  18.214  0.00  0.00    +0.000 S 
ATOM     25  C   UNL     1      52.010   5.281  17.347  0.00  0.00    +0.000 A 
ATOM     26  N   UNL     1      53.197   5.914  17.155  0.00  0.00    +0.000 NA
ATOM     27  C   UNL     1      53.112   6.997  16.455  0.00  0.00    +0.000 A 
ATOM     28  N   UNL     1      51.954   7.484  15.900  0.00  0.00    +0.000 N 
ATOM     29  C   UNL     1      50.749   6.821  15.987  0.00  0.00    +0.000 A 
ATOM     30  O   UNL     1      49.798   7.130  15.277  0.00  0.00    +0.000 OA
ATOM     31  C   UNL     1      50.772   5.679  16.881  0.00  0.00    +0.000 A 
ATOM     32  H   UNL     1      51.978   8.273  15.272  0.00  0.00    +0.000 HD
ENDBRANCH  20  22
ENDBRANCH  19  20
ENDBRANCH   1  19
TORSDOF 6
ENDMDL
MODEL 7
REMARK VINA RESULT:    -7.311      1.920      2.382
REMARK INTER + INTRA:         -10.121
REMARK INTER:                  -9.458
REMARK INTRA:                  -0.664
REMARK UNBOUND:                -0.246
REMARK  Name = 
REMARK  8 active torsions:
REMARK  status: ('A' for Active; 'I' for Inactive)
REMARK    1  A    between atoms: C_1  and  C_2
REMARK    2  A    between atoms: C_2  and  N_3
REMARK    3  A    between atoms: C_2  and  C_19
REMARK    4  A    between atoms: N_3  and  C_4
REMARK    5  A    between atoms: C_7  and  C_8
REMARK    6  A    between atoms: C_8  and  N_9
REMARK    7  A    between atoms: N_9  and  C_10
REMARK    8  A    between atoms: C_19  and  C_21
REMARK                            x       y       z     vdW  Elec       q    Type
REMARK                         _______ _______ _______ _____ _____    ______ ____
ROOT
ATOM      1  N   UNL     1      47.907   5.568  14.831  0.00  0.00    +0.000 N 
ATOM      2  H   UNL     1      48.449   6.434  14.775  0.00  0.00    +0.000 HD
ENDROOT
BRANCH   1   3
ATOM      3  C   UNL     1      46.914   5.482  13.860  0.00  0.00    +0.000 A 
ATOM      4  C   UNL     1      47.115   6.136  12.647  0.00  0.00    +0.000 A 
ATOM      5  C   UNL     1      46.188   6.016  11.610  0.00  0.00    +0.000 A 
ATOM      6  C   UNL     1      45.041   5.250  11.809  0.00  0.00    +0.000 A 
ATOM      7  N   UNL     1      44.765   4.679  13.009  0.00  0.00    +0.000 NA
ATOM      8  C   UNL     1      45.693   4.823  13.991  0.00  0.00    +0.000 A 
BRANCH   6   9
ATOM      9  C   UNL     1      44.065   5.014  10.663  0.00  0.00    +0.000 C 
BRANCH   9  10
ATOM     10  N   UNL     1      44.149   3.641  10.149  0.00  0.00    +0.000 N 
ATOM     11  C   UNL     1      43.603   2.574  10.974  0.00  0.00    +0.000 C 
ATOM     12  C   UNL     1      45.073   3.267   9.182  0.00  0.00    +0.000 A 
ATOM     13  C   UNL     1      45.718   4.184   8.369  0.00  0.00    +0.000 A 
ATOM     14  C   UNL     1      46.595   3.693   7.418  0.00  0.00    +0.000 A 
ATOM     15  N   UNL     1      46.845   2.388   7.239  0.00  0.00    +0.000 NA
ATOM     16  C   UNL     1      46.178   1.576   8.057  0.00  0.00    +0.000 A 
ATOM     17  N   UNL     1      45.312   1.945   9.018  0.00  0.00    +0.000 NA
ENDBRANCH   9  10
ENDBRANCH   6   9
ENDBRANCH   1   3
BRANCH   1  19
ATOM     18  C   UNL     1      47.928   3.666  16.343  0.00  0.00    +0.000 C 
ATOM     19  C   UNL     1      47.645   5.162  16.228  0.00  0.00    +0.000 C 
BRANCH  19  20
ATOM     20  C   UNL     1      48.580   5.920  17.194  0.00  0.00    +0.000 C 
ATOM     21  O   UNL     1      49.362   6.763  16.749  0.00  0.00    +0.000 OA
BRANCH  20  22
ATOM     22  C   UNL     1      48.478   5.699  18.646  0.00  0.00    +0.000 A 
ATOM     23  C   UNL     1      47.373   6.030  19.412  0.00  0.00    +0.000 A 
ATOM     24  S   UNL     1      47.664   5.916  21.095  0.00  0.00    +0.000 S 
ATOM     25  C   UNL     1      49.254   5.366  20.841  0.00  0.00    +0.000 A 
ATOM     26  N   UNL     1      50.097   5.135  21.880  0.00  0.00    +0.000 NA
ATOM     27  C   UNL     1      51.261   4.696  21.530  0.00  0.00    +0.000 A 
ATOM     28  N   UNL     1      51.646   4.434  20.239  0.00  0.00    +0.000 N 
ATOM     29  C   UNL     1      50.790   4.561  19.166  0.00  0.00    +0.000 A 
ATOM     30  O   UNL     1      51.064   4.082  18.071  0.00  0.00    +0.000 OA
ATOM     31  C   UNL     1      49.523   5.184  19.498  0.00  0.00    +0.000 A 
ATOM     32  H   UNL     1      52.529   3.987  20.046  0.00  0.00    +0.000 HD
ENDBRANCH  20  22
ENDBRANCH  19  20
ENDBRANCH   1  19
TORSDOF 6
ENDMDL
MODEL 8
REMARK VINA RESULT:    -7.164      2.408      3.960
REMARK INTER + INTRA:          -9.923
REMARK INTER:                  -8.492
REMARK INTRA:                  -1.430
REMARK UNBOUND:                -0.246
REMARK  Name = 
REMARK  8 active torsions:
REMARK  status: ('A' for Active; 'I' for Inactive)
REMARK    1  A    between atoms: C_1  and  C_2
REMARK    2  A    between atoms: C_2  and  N_3
REMARK    3  A    between atoms: C_2  and  C_19
REMARK    4  A    between atoms: N_3  and  C_4
REMARK    5  A    between atoms: C_7  and  C_8
REMARK    6  A    between atoms: C_8  and  N_9
REMARK    7  A    between atoms: N_9  and  C_10
REMARK    8  A    between atoms: C_19  and  C_21
REMARK                            x       y       z     vdW  Elec       q    Type
REMARK                         _______ _______ _______ _____ _____    ______ ____
ROOT
ATOM      1  N   UNL     1      49.336   7.987  15.473  0.00  0.00    +0.000 N 
ATOM      2  H   UNL     1      48.901   7.936  16.397  0.00  0.00    +0.000 HD
ENDROOT
BRANCH   1   3
ATOM      3  C   UNL     1      48.422   7.859  14.432  0.00  0.00    +0.000 A 
ATOM      4  C   UNL     1      48.555   6.778  13.563  0.00  0.00    +0.000 A 
ATOM      5  C   UNL     1      47.619   6.557  12.551  0.00  0.00    +0.000 A 
ATOM      6  C   UNL     1      46.556   7.447  12.403  0.00  0.00    +0.000 A 
ATOM      7  N   UNL     1      46.450   8.563  13.167  0.00  0.00    +0.000 NA
ATOM      8  C   UNL     1      47.383   8.740  14.139  0.00  0.00    +0.000 A 
BRANCH   6   9
ATOM      9  C   UNL     1      45.463   7.175  11.377  0.00  0.00    +0.000 C 
BRANCH   9  10
ATOM     10  N   UNL     1      44.767   5.910  11.645  0.00  0.00    +0.000 N 
ATOM     11  C   UNL     1      44.384   5.627  13.020  0.00  0.00    +0.000 C 
ATOM     12  C   UNL     1      44.849   4.821  10.787  0.00  0.00    +0.000 A 
ATOM     13  C   UNL     1      45.261   4.937   9.470  0.00  0.00    +0.000 A 
ATOM     14  C   UNL     1      45.273   3.789   8.698  0.00  0.00    +0.000 A 
ATOM     15  N   UNL     1      44.903   2.583   9.153  0.00  0.00    +0.000 NA
ATOM     16  C   UNL     1      44.515   2.563  10.427  0.00  0.00    +0.000 A 
ATOM     17  N   UNL     1      44.472   3.613  11.266  0.00  0.00    +0.000 NA
ENDBRANCH   9  10
ENDBRANCH   6   9
ENDBRANCH   1   3
BRANCH   1  19
ATOM     18  C   UNL     1      51.688   8.297  14.947  0.00  0.00    +0.000 C 
ATOM     19  C   UNL     1      50.643   7.296  15.431  0.00  0.00    +0.000 C 
BRANCH  19  20
ATOM     20  C   UNL     1      51.039   6.805  16.840  0.00  0.00    +0.000 C 
ATOM     21  O   UNL     1      51.524   7.600  17.648  0.00  0.00    +0.000 OA
BRANCH  20  22
ATOM     22  C   UNL     1      50.761   5.418  17.244  0.00  0.00    +0.000 A 
ATOM     23  C   UNL     1      51.730   4.440  17.398  0.00  0.00    +0.000 A 
ATOM     24  S   UNL     1      51.074   2.871  17.593  0.00  0.00    +0.000 S 
ATOM     25  C   UNL     1      49.482   3.466  17.534  0.00  0.00    +0.000 A 
ATOM     26  N   UNL     1      48.412   2.630  17.579  0.00  0.00    +0.000 NA
ATOM     27  C   UNL     1      47.268   3.232  17.551  0.00  0.00    +0.000 A 
ATOM     28  N   UNL     1      47.099   4.594  17.520  0.00  0.00    +0.000 N 
ATOM     29  C   UNL     1      48.154   5.478  17.574  0.00  0.00    +0.000 A 
ATOM     30  O   UNL     1      47.978   6.669  17.805  0.00  0.00    +0.000 OA
ATOM     31  C   UNL     1      49.455   4.846  17.462  0.00  0.00    +0.000 A 
ATOM     32  H   UNL     1      46.180   5.000  17.614  0.00  0.00    +0.000 HD
ENDBRANCH  20  22
ENDBRANCH  19  20
ENDBRANCH   1  19
TORSDOF 6
ENDMDL
MODEL 9
REMARK VINA RESULT:    -6.899      3.548      5.139
REMARK INTER + INTRA:          -9.566
REMARK INTER:                  -7.984
REMARK INTRA:                  -1.581
REMARK UNBOUND:                -0.246
REMARK  Name = 
REMARK  8 active torsions:
REMARK  status: ('A' for Active; 'I' for Inactive)
REMARK    1  A    between atoms: C_1  and  C_2
REMARK    2  A    between atoms: C_2  and  N_3
REMARK    3  A    between atoms: C_2  and  C_19
REMARK    4  A    between atoms: N_3  and  C_4
REMARK    5  A    between atoms: C_7  and  C_8
REMARK    6  A    between atoms: C_8  and  N_9
REMARK    7  A    between atoms: N_9  and  C_10
REMARK    8  A    between atoms: C_19  and  C_21
REMARK                            x       y       z     vdW  Elec       q    Type
REMARK                         _______ _______ _______ _____ _____    ______ ____
ROOT
ATOM      1  N   UNL     1      49.139   8.396  16.965  0.00  0.00    +0.000 N 
ATOM      2  H   UNL     1      48.468   8.086  17.672  0.00  0.00    +0.000 HD
ENDROOT
BRANCH   1   3
ATOM      3  C   UNL     1      48.722   8.133  15.664  0.00  0.00    +0.000 A 
ATOM      4  C   UNL     1      48.781   6.820  15.202  0.00  0.00    +0.000 A 
ATOM      5  C   UNL     1      48.301   6.487  13.934  0.00  0.00    +0.000 A 
ATOM      6  C   UNL     1      47.779   7.491  13.121  0.00  0.00    +0.000 A 
ATOM      7  N   UNL     1      47.795   8.795  13.498  0.00  0.00    +0.000 NA
ATOM      8  C   UNL     1      48.274   9.074  14.740  0.00  0.00    +0.000 A 
BRANCH   6   9
ATOM      9  C   UNL     1      47.151   7.144  11.776  0.00  0.00    +0.000 C 
BRANCH   9  10
ATOM     10  N   UNL     1      45.693   7.007  11.876  0.00  0.00    +0.000 N 
ATOM     11  C   UNL     1      44.908   8.220  12.050  0.00  0.00    +0.000 C 
ATOM     12  C   UNL     1      45.083   5.816  12.248  0.00  0.00    +0.000 A 
ATOM     13  C   UNL     1      45.733   4.594  12.194  0.00  0.00    +0.000 A 
ATOM     14  C   UNL     1      45.016   3.469  12.558  0.00  0.00    +0.000 A 
ATOM     15  N   UNL     1      43.734   3.498  12.950  0.00  0.00    +0.000 NA
ATOM     16  C   UNL     1      43.184   4.710  12.966  0.00  0.00    +0.000 A 
ATOM     17  N   UNL     1      43.789   5.867  12.641  0.00  0.00    +0.000 NA
ENDBRANCH   9  10
ENDBRANCH   6   9
ENDBRANCH   1   3
BRANCH   1  19
ATOM     18  C   UNL     1      51.137   9.500  17.799  0.00  0.00    +0.000 C 
ATOM     19  C   UNL     1      50.539   8.159  17.380  0.00  0.00    +0.000 C 
BRANCH  19  20
ATOM     20  C   UNL     1      50.587   7.195  18.584  0.00  0.00    +0.000 C 
ATOM     21  O   UNL     1      50.641   7.651  19.729  0.00  0.00    +0.000 OA
BRANCH  20  22
ATOM     22  C   UNL     1      50.486   5.742  18.371  0.00  0.00    +0.000 A 
ATOM     23  C   UNL     1      51.573   4.897  18.220  0.00  0.00    +0.000 A 
ATOM     24  S   UNL     1      51.134   3.324  17.706  0.00  0.00    +0.000 S 
ATOM     25  C   UNL     1      49.479   3.717  17.729  0.00  0.00    +0.000 A 
ATOM     26  N   UNL     1      48.535   2.826  17.328  0.00  0.00    +0.000 NA
ATOM     27  C   UNL     1      47.322   3.260  17.426  0.00  0.00    +0.000 A 
ATOM     28  N   UNL     1      46.965   4.489  17.923  0.00  0.00    +0.000 N 
ATOM     29  C   UNL     1      47.884   5.382  18.432  0.00  0.00    +0.000 A 
ATOM     30  O   UNL     1      47.531   6.348  19.099  0.00  0.00    +0.000 OA
ATOM     31  C   UNL     1      49.263   4.994  18.210  0.00  0.00    +0.000 A 
ATOM     32  H   UNL     1      45.996   4.720  18.077  0.00  0.00    +0.000 HD
ENDBRANCH  20  22
ENDBRANCH  19  20
ENDBRANCH   1  19
TORSDOF 6
ENDMDL
