MODEL 1
REMARK VINA RESULT:    -8.278      0.000      0.000
REMARK INTER + INTRA:         -11.641
REMARK INTER:                 -10.939
REMARK INTRA:                  -0.702
REMARK UNBOUND:                -0.702
REMARK  Name = 
REMARK  6 active torsions:
REMARK  status: ('A' for Active; 'I' for Inactive)
REMARK    1  A    between atoms: N_1  and  C_2
REMARK    2  A    between atoms: C_6  and  C_7
REMARK    3  A    between atoms: C_7  and  C_8
REMARK    4  A    between atoms: C_11  and  C_12
REMARK    5  A    between atoms: C_12  and  N_13
REMARK    6  A    between atoms: C_14  and  C_16
REMARK                            x       y       z     vdW  Elec       q    Type
REMARK                         _______ _______ _______ _____ _____    ______ ____
ROOT
ATOM      1  C   UNL     1      44.847   4.621   9.699  0.00  0.00    +0.000 A 
ATOM      2  C   UNL     1      44.176   4.738  10.912  0.00  0.00    +0.000 A 
ATOM      3  N   UNL     1      44.494   5.668  11.840  0.00  0.00    +0.000 NA
ATOM      4  C   UNL     1      45.513   6.507  11.513  0.00  0.00    +0.000 A 
ATOM      5  C   UNL     1      46.207   6.368  10.316  0.00  0.00    +0.000 A 
ATOM      6  N   UNL     1      45.891   5.432   9.390  0.00  0.00    +0.000 NA
ENDROOT
BRANCH   1   7
ATOM      7  C   UNL     1      44.390   3.638   8.652  0.00  0.00    +0.000 C 
BRANCH   7  12
ATOM      8  C   UNL     1      47.460   2.306   6.811  0.00  0.00    +0.000 A 
ATOM      9  C   UNL     1      47.410   0.995   7.281  0.00  0.00    +0.000 A 
ATOM     10  N   UNL     1      46.448   0.503   8.095  0.00  0.00    +0.000 NA
ATOM     11  C   UNL     1      45.505   1.377   8.508  0.00  0.00    +0.000 A 
ATOM     12  C   UNL     1      45.486   2.725   8.160  0.00  0.00    +0.000 A 
ATOM     13  C   UNL     1      46.505   3.188   7.317  0.00  0.00    +0.000 A 
BRANCH   8  14
ATOM     14  N   UNL     1      48.541   2.781   6.059  0.00  0.00    +0.000 N 
ATOM     15  H   UNL     1      49.146   3.416   6.573  0.00  0.00    +0.000 HD
ATOM     16  H   UNL     1      49.068   2.052   5.589  0.00  0.00    +0.000 HD
ENDBRANCH   8  14
ENDBRANCH   7  12
ENDBRANCH   1   7
BRANCH   4  17
ATOM     17  C   UNL     1      45.873   7.594  12.487  0.00  0.00    +0.000 C 
BRANCH  17  18
ATOM     18  N   UNL     1      46.548   7.079  13.657  0.00  0.00    +0.000 N 
ATOM     19  C   UNL     1      47.912   6.969  13.710  0.00  0.00    +0.000 C 
ATOM     20  O   UNL     1      48.627   7.338  12.780  0.00  0.00    +0.000 OA
ATOM     21  H   UNL     1      45.974   6.550  14.308  0.00  0.00    +0.000 HD
BRANCH  19  22
ATOM     22  C   UNL     1      48.483   6.448  14.953  0.00  0.00    +0.000 A 
ATOM     23  C   UNL     1      49.556   7.104  15.542  0.00  0.00    +0.000 A 
ATOM     24  S   UNL     1      50.071   6.393  17.004  0.00  0.00    +0.000 S 
ATOM     25  C   UNL     1      48.914   5.153  16.873  0.00  0.00    +0.000 A 
ATOM     26  N   UNL     1      48.834   4.168  17.809  0.00  0.00    +0.000 NA
ATOM     27  C   UNL     1      47.935   3.273  17.561  0.00  0.00    +0.000 A 
ATOM     28  N   UNL     1      47.108   3.275  16.472  0.00  0.00    +0.000 N 
ATOM     29  C   UNL     1      47.117   4.278  15.529  0.00  0.00    +0.000 A 
ATOM     30  O   UNL     1      46.306   4.299  14.609  0.00  0.00    +0.000 OA
ATOM     31  C   UNL     1      48.128   5.295  15.742  0.00  0.00    +0.000 A 
ATOM     32  H   UNL     1      46.414   2.554  16.345  0.00  0.00    +0.000 HD
ENDBRANCH  19  22
ENDBRANCH  17  18
ENDBRANCH   4  17
TORSDOF 6
ENDMDL
MODEL 2
REMARK VINA RESULT:    -7.848      2.375      3.959
REMARK INTER + INTRA:         -11.073
REMARK INTER:                 -10.309
REMARK INTRA:                  -0.764
REMARK UNBOUND:                -0.702
REMARK  Name = 
REMARK  6 active torsions:
REMARK  status: ('A' for Active; 'I' for Inactive)
REMARK    1  A    between atoms: N_1  and  C_2
REMARK    2  A    between atoms: C_6  and  C_7
REMARK    3  A    between atoms: C_7  and  C_8
REMARK    4  A    between atoms: C_11  and  C_12
REMARK    5  A    between atoms: C_12  and  N_13
REMARK    6  A    between atoms: C_14  and  C_16
REMARK                            x       y       z     vdW  Elec       q    Type
REMARK                         _______ _______ _______ _____ _____    ______ ____
ROOT
ATOM      1  C   UNL     1      44.973   4.168   9.997  0.00  0.00    +0.000 A 
ATOM      2  C   UNL     1      45.511   5.421  10.271  0.00  0.00    +0.000 A 
ATOM      3  N   UNL     1      45.929   5.787  11.503  0.00  0.00    +0.000 NA
ATOM      4  C   UNL     1      45.807   4.844  12.474  0.00  0.00    +0.000 A 
ATOM      5  C   UNL     1      45.236   3.604  12.209  0.00  0.00    +0.000 A 
ATOM      6  N   UNL     1      44.813   3.241  10.975  0.00  0.00    +0.000 NA
ENDROOT
BRANCH   1   7
ATOM      7  C   UNL     1      44.618   3.768   8.588  0.00  0.00    +0.000 C 
BRANCH   7  12
ATOM      8  C   UNL     1      47.286   2.376   6.235  0.00  0.00    +0.000 A 
ATOM      9  C   UNL     1      47.410   1.114   6.813  0.00  0.00    +0.000 A 
ATOM     10  N   UNL     1      46.675   0.668   7.858  0.00  0.00    +0.000 NA
ATOM     11  C   UNL     1      45.797   1.544   8.393  0.00  0.00    +0.000 A 
ATOM     12  C   UNL     1      45.629   2.852   7.945  0.00  0.00    +0.000 A 
ATOM     13  C   UNL     1      46.415   3.268   6.863  0.00  0.00    +0.000 A 
BRANCH   8  14
ATOM     14  N   UNL     1      48.151   2.817   5.227  0.00  0.00    +0.000 N 
ATOM     15  H   UNL     1      48.633   3.682   5.453  0.00  0.00    +0.000 HD
ATOM     16  H   UNL     1      48.790   2.102   4.892  0.00  0.00    +0.000 HD
ENDBRANCH   8  14
ENDBRANCH   7  12
ENDBRANCH   1   7
BRANCH   4  17
ATOM     17  C   UNL     1      46.305   5.180  13.853  0.00  0.00    +0.000 C 
BRANCH  17  18
ATOM     18  N   UNL     1      46.854   6.515  13.925  0.00  0.00    +0.000 N 
ATOM     19  C   UNL     1      48.057   6.766  14.530  0.00  0.00    +0.000 C 
ATOM     20  O   UNL     1      48.742   5.862  15.005  0.00  0.00    +0.000 OA
ATOM     21  H   UNL     1      46.200   7.277  13.769  0.00  0.00    +0.000 HD
BRANCH  19  22
ATOM     22  C   UNL     1      48.519   8.155  14.527  0.00  0.00    +0.000 A 
ATOM     23  C   UNL     1      48.652   8.835  15.730  0.00  0.00    +0.000 A 
ATOM     24  S   UNL     1      49.239  10.426  15.554  0.00  0.00    +0.000 S 
ATOM     25  C   UNL     1      49.284  10.280  13.859  0.00  0.00    +0.000 A 
ATOM     26  N   UNL     1      49.677  11.322  13.077  0.00  0.00    +0.000 NA
ATOM     27  C   UNL     1      49.625  11.082  11.808  0.00  0.00    +0.000 A 
ATOM     28  N   UNL     1      49.223   9.899  11.252  0.00  0.00    +0.000 N 
ATOM     29  C   UNL     1      48.869   8.802  12.004  0.00  0.00    +0.000 A 
ATOM     30  O   UNL     1      48.595   7.727  11.479  0.00  0.00    +0.000 OA
ATOM     31  C   UNL     1      48.881   9.026  13.436  0.00  0.00    +0.000 A 
ATOM     32  H   UNL     1      49.221   9.770  10.251  0.00  0.00    +0.000 HD
ENDBRANCH  19  22
ENDBRANCH  17  18
ENDBRANCH   4  17
TORSDOF 6
ENDMDL
MODEL 3
REMARK VINA RESULT:    -7.818      1.832      2.537
REMARK INTER + INTRA:         -11.034
REMARK INTER:                 -10.347
REMARK INTRA:                  -0.687
REMARK UNBOUND:                -0.702
REMARK  Name = 
REMARK  6 active torsions:
REMARK  status: ('A' for Active; 'I' for Inactive)
REMARK    1  A    between atoms: N_1  and  C_2
REMARK    2  A    between atoms: C_6  and  C_7
REMARK    3  A    between atoms: C_7  and  C_8
REMARK    4  A    between atoms: C_11  and  C_12
REMARK    5  A    between atoms: C_12  and  N_13
REMARK    6  A    between atoms: C_14  and  C_16
REMARK                            x       y       z     vdW  Elec       q    Type
REMARK                         _______ _______ _______ _____ _____    ______ ____
ROOT
ATOM      1  C   UNL     1      44.522   4.176   9.467  0.00  0.00    +0.000 A 
ATOM      2  C   UNL     1      45.397   5.158   9.918  0.00  0.00    +0.000 A 
ATOM      3  N   UNL     1      45.536   5.472  11.226  0.00  0.00    +0.000 NA
ATOM      4  C   UNL     1      44.770   4.757  12.091  0.00  0.00    +0.000 A 
ATOM      5  C   UNL     1      43.868   3.801  11.638  0.00  0.00    +0.000 A 
ATOM      6  N   UNL     1      43.727   3.491  10.328  0.00  0.00    +0.000 NA
ENDROOT
BRANCH   1   7
ATOM      7  C   UNL     1      44.478   3.787   8.012  0.00  0.00    +0.000 C 
BRANCH   7  12
ATOM      8  C   UNL     1      47.392   2.220   6.103  0.00  0.00    +0.000 A 
ATOM      9  C   UNL     1      47.554   1.087   6.898  0.00  0.00    +0.000 A 
ATOM     10  N   UNL     1      46.775   0.771   7.958  0.00  0.00    +0.000 NA
ATOM     11  C   UNL     1      45.806   1.656   8.279  0.00  0.00    +0.000 A 
ATOM     12  C   UNL     1      45.589   2.853   7.601  0.00  0.00    +0.000 A 
ATOM     13  C   UNL     1      46.423   3.138   6.512  0.00  0.00    +0.000 A 
BRANCH   8  14
ATOM     14  N   UNL     1      48.298   2.547   5.087  0.00  0.00    +0.000 N 
ATOM     15  H   UNL     1      49.243   2.216   5.263  0.00  0.00    +0.000 HD
ATOM     16  H   UNL     1      47.977   2.303   4.155  0.00  0.00    +0.000 HD
ENDBRANCH   8  14
ENDBRANCH   7  12
ENDBRANCH   1   7
BRANCH   4  17
ATOM     17  C   UNL     1      44.923   5.031  13.562  0.00  0.00    +0.000 C 
BRANCH  17  18
ATOM     18  N   UNL     1      46.077   5.853  13.849  0.00  0.00    +0.000 N 
ATOM     19  C   UNL     1      47.279   5.304  14.208  0.00  0.00    +0.000 C 
ATOM     20  O   UNL     1      47.442   4.087  14.267  0.00  0.00    +0.000 OA
ATOM     21  H   UNL     1      45.890   6.832  14.046  0.00  0.00    +0.000 HD
BRANCH  19  22
ATOM     22  C   UNL     1      48.380   6.237  14.458  0.00  0.00    +0.000 A 
ATOM     23  C   UNL     1      48.933   6.944  13.399  0.00  0.00    +0.000 A 
ATOM     24  S   UNL     1      50.174   8.015  13.868  0.00  0.00    +0.000 S 
ATOM     25  C   UNL     1      50.052   7.532  15.495  0.00  0.00    +0.000 A 
ATOM     26  N   UNL     1      50.872   8.059  16.445  0.00  0.00    +0.000 NA
ATOM     27  C   UNL     1      50.693   7.572  17.628  0.00  0.00    +0.000 A 
ATOM     28  N   UNL     1      49.768   6.616  17.950  0.00  0.00    +0.000 N 
ATOM     29  C   UNL     1      48.883   6.095  17.034  0.00  0.00    +0.000 A 
ATOM     30  O   UNL     1      48.008   5.303  17.368  0.00  0.00    +0.000 OA
ATOM     31  C   UNL     1      49.060   6.585  15.681  0.00  0.00    +0.000 A 
ATOM     32  H   UNL     1      49.668   6.290  18.899  0.00  0.00    +0.000 HD
ENDBRANCH  19  22
ENDBRANCH  17  18
ENDBRANCH   4  17
TORSDOF 6
ENDMDL
MODEL 4
REMARK VINA RESULT:    -7.759      1.277      1.600
REMARK INTER + INTRA:         -10.955
REMARK INTER:                 -10.162
REMARK INTRA:                  -0.793
REMARK UNBOUND:                -0.702
REMARK  Name = 
REMARK  6 active torsions:
REMARK  status: ('A' for Active; 'I' for Inactive)
REMARK    1  A    between atoms: N_1  and  C_2
REMARK    2  A    between atoms: C_6  and  C_7
REMARK    3  A    between atoms: C_7  and  C_8
REMARK    4  A    between atoms: C_11  and  C_12
REMARK    5  A    between atoms: C_12  and  N_13
REMARK    6  A    between atoms: C_14  and  C_16
REMARK                            x       y       z     vdW  Elec       q    Type
REMARK                         _______ _______ _______ _____ _____    ______ ____
ROOT
ATOM      1  C   UNL     1      44.710   5.501  11.147  0.00  0.00    +0.000 A 
ATOM      2  C   UNL     1      44.365   6.834  11.343  0.00  0.00    +0.000 A 
ATOM      3  N   UNL     1      45.110   7.685  12.084  0.00  0.00    +0.000 NA
ATOM      4  C   UNL     1      46.241   7.161  12.627  0.00  0.00    +0.000 A 
ATOM      5  C   UNL     1      46.568   5.820  12.463  0.00  0.00    +0.000 A 
ATOM      6  N   UNL     1      45.818   4.969  11.724  0.00  0.00    +0.000 NA
ENDROOT
BRANCH   1   7
ATOM      7  C   UNL     1      43.906   4.619  10.228  0.00  0.00    +0.000 C 
BRANCH   7  12
ATOM      8  C   UNL     1      46.260   3.368   7.492  0.00  0.00    +0.000 A 
ATOM      9  C   UNL     1      46.220   2.012   7.811  0.00  0.00    +0.000 A 
ATOM     10  N   UNL     1      45.464   1.473   8.796  0.00  0.00    +0.000 NA
ATOM     11  C   UNL     1      44.742   2.337   9.541  0.00  0.00    +0.000 A 
ATOM     12  C   UNL     1      44.751   3.719   9.361  0.00  0.00    +0.000 A 
ATOM     13  C   UNL     1      45.551   4.229   8.331  0.00  0.00    +0.000 A 
BRANCH   8  14
ATOM     14  N   UNL     1      47.145   3.877   6.534  0.00  0.00    +0.000 N 
ATOM     15  H   UNL     1      47.391   4.852   6.683  0.00  0.00    +0.000 HD
ATOM     16  H   UNL     1      47.965   3.297   6.383  0.00  0.00    +0.000 HD
ENDBRANCH   8  14
ENDBRANCH   7  12
ENDBRANCH   1   7
BRANCH   4  17
ATOM     17  C   UNL     1      47.134   8.077  13.419  0.00  0.00    +0.000 C 
BRANCH  17  18
ATOM     18  N   UNL     1      47.574   7.476  14.657  0.00  0.00    +0.000 N 
ATOM     19  C   UNL     1      48.826   6.935  14.789  0.00  0.00    +0.000 C 
ATOM     20  O   UNL     1      49.644   6.969  13.872  0.00  0.00    +0.000 OA
ATOM     21  H   UNL     1      46.843   7.222  15.316  0.00  0.00    +0.000 HD
BRANCH  19  22
ATOM     22  C   UNL     1      49.164   6.369  16.096  0.00  0.00    +0.000 A 
ATOM     23  C   UNL     1      50.156   6.964  16.864  0.00  0.00    +0.000 A 
ATOM     24  S   UNL     1      50.396   6.207  18.374  0.00  0.00    +0.000 S 
ATOM     25  C   UNL     1      49.221   5.026  18.030  0.00  0.00    +0.000 A 
ATOM     26  N   UNL     1      48.947   4.032  18.919  0.00  0.00    +0.000 NA
ATOM     27  C   UNL     1      48.061   3.185  18.510  0.00  0.00    +0.000 A 
ATOM     28  N   UNL     1      47.422   3.242  17.302  0.00  0.00    +0.000 N 
ATOM     29  C   UNL     1      47.627   4.258  16.396  0.00  0.00    +0.000 A 
ATOM     30  O   UNL     1      46.978   4.331  15.358  0.00  0.00    +0.000 OA
ATOM     31  C   UNL     1      48.635   5.222  16.792  0.00  0.00    +0.000 A 
ATOM     32  H   UNL     1      46.726   2.557  17.049  0.00  0.00    +0.000 HD
ENDBRANCH  19  22
ENDBRANCH  17  18
ENDBRANCH   4  17
TORSDOF 6
ENDMDL
MODEL 5
REMARK VINA RESULT:    -7.726      1.769      2.388
REMARK INTER + INTRA:         -10.913
REMARK INTER:                 -10.415
REMARK INTRA:                  -0.498
REMARK UNBOUND:                -0.702
REMARK  Name = 
REMARK  6 active torsions:
REMARK  status: ('A' for Active; 'I' for Inactive)
REMARK    1  A    between atoms: N_1  and  C_2
REMARK    2  A    between atoms: C_6  and  C_7
REMARK    3  A    between atoms: C_7  and  C_8
REMARK    4  A    between atoms: C_11  and  C_12
REMARK    5  A    between atoms: C_12  and  N_13
REMARK    6  A    between atoms: C_14  and  C_16
REMARK                            x       y       z     vdW  Elec       q    Type
REMARK                         _______ _______ _______ _____ _____    ______ ____
ROOT
ATOM      1  C   UNL     1      44.979   4.548   9.886  0.00  0.00    +0.000 A 
ATOM      2  C   UNL     1      45.784   5.649   9.617  0.00  0.00    +0.000 A 
ATOM      3  N   UNL     1      46.358   6.394  10.588  0.00  0.00    +0.000 NA
ATOM      4  C   UNL     1      46.112   5.994  11.864  0.00  0.00    +0.000 A 
ATOM      5  C   UNL     1      45.278   4.916  12.134  0.00  0.00    +0.000 A 
ATOM      6  N   UNL     1      44.700   4.174  11.160  0.00  0.00    +0.000 NA
ENDROOT
BRANCH   1   7
ATOM      7  C   UNL     1      44.447   3.686   8.770  0.00  0.00    +0.000 C 
BRANCH   7  12
ATOM      8  C   UNL     1      47.165   2.430   6.399  0.00  0.00    +0.000 A 
ATOM      9  C   UNL     1      47.354   1.174   6.973  0.00  0.00    +0.000 A 
ATOM     10  N   UNL     1      46.647   0.691   8.021  0.00  0.00    +0.000 NA
ATOM     11  C   UNL     1      45.731   1.522   8.563  0.00  0.00    +0.000 A 
ATOM     12  C   UNL     1      45.497   2.821   8.119  0.00  0.00    +0.000 A 
ATOM     13  C   UNL     1      46.256   3.277   7.033  0.00  0.00    +0.000 A 
BRANCH   8  14
ATOM     14  N   UNL     1      48.002   2.914   5.386  0.00  0.00    +0.000 N 
ATOM     15  H   UNL     1      48.506   3.758   5.643  0.00  0.00    +0.000 HD
ATOM     16  H   UNL     1      48.616   2.210   4.989  0.00  0.00    +0.000 HD
ENDBRANCH   8  14
ENDBRANCH   7  12
ENDBRANCH   1   7
BRANCH   4  17
ATOM     17  C   UNL     1      46.768   6.757  12.982  0.00  0.00    +0.000 C 
BRANCH  17  18
ATOM     18  N   UNL     1      46.869   5.974  14.193  0.00  0.00    +0.000 N 
ATOM     19  C   UNL     1      48.053   5.845  14.869  0.00  0.00    +0.000 C 
ATOM     20  O   UNL     1      49.074   6.420  14.498  0.00  0.00    +0.000 OA
ATOM     21  H   UNL     1      46.118   5.310  14.360  0.00  0.00    +0.000 HD
BRANCH  19  22
ATOM     22  C   UNL     1      48.028   5.040  16.092  0.00  0.00    +0.000 A 
ATOM     23  C   UNL     1      47.528   3.746  16.050  0.00  0.00    +0.000 A 
ATOM     24  S   UNL     1      47.611   2.934  17.548  0.00  0.00    +0.000 S 
ATOM     25  C   UNL     1      48.268   4.302  18.316  0.00  0.00    +0.000 A 
ATOM     26  N   UNL     1      48.555   4.288  19.646  0.00  0.00    +0.000 NA
ATOM     27  C   UNL     1      49.011   5.407  20.102  0.00  0.00    +0.000 A 
ATOM     28  N   UNL     1      49.213   6.534  19.353  0.00  0.00    +0.000 N 
ATOM     29  C   UNL     1      48.988   6.578  17.996  0.00  0.00    +0.000 A 
ATOM     30  O   UNL     1      49.258   7.575  17.334  0.00  0.00    +0.000 OA
ATOM     31  C   UNL     1      48.445   5.355  17.436  0.00  0.00    +0.000 A 
ATOM     32  H   UNL     1      49.589   7.373  19.767  0.00  0.00    +0.000 HD
ENDBRANCH  19  22
ENDBRANCH  17  18
ENDBRANCH   4  17
TORSDOF 6
ENDMDL
MODEL 6
REMARK VINA RESULT:    -7.420      3.469      6.031
REMARK INTER + INTRA:         -10.508
REMARK INTER:                  -9.876
REMARK INTRA:                  -0.632
REMARK UNBOUND:                -0.702
REMARK  Name = 
REMARK  6 active torsions:
REMARK  status: ('A' for Active; 'I' for Inactive)
REMARK    1  A    between atoms: N_1  and  C_2
REMARK    2  A    between atoms: C_6  and  C_7
REMARK    3  A    between atoms: C_7  and  C_8
REMARK    4  A    between atoms: C_11  and  C_12
REMARK    5  A    between atoms: C_12  and  N_13
REMARK    6  A    between atoms: C_14  and  C_16
REMARK                            x       y       z     vdW  Elec       q    Type
REMARK                         _______ _______ _______ _____ _____    ______ ____
ROOT
ATOM      1  C   UNL     1      47.318   5.239  13.899  0.00  0.00    +0.000 A 
ATOM      2  C   UNL     1      47.058   3.875  13.977  0.00  0.00    +0.000 A 
ATOM      3  N   UNL     1      47.287   3.147  15.092  0.00  0.00    +0.000 NA
ATOM      4  C   UNL     1      47.782   3.833  16.156  0.00  0.00    +0.000 A 
ATOM      5  C   UNL     1      48.077   5.188  16.068  0.00  0.00    +0.000 A 
ATOM      6  N   UNL     1      47.852   5.916  14.948  0.00  0.00    +0.000 NA
ENDROOT
BRANCH   1   7
ATOM      7  C   UNL     1      46.949   6.030  12.670  0.00  0.00    +0.000 C 
BRANCH   7  12
ATOM      8  C   UNL     1      44.150   4.991  10.288  0.00  0.00    +0.000 A 
ATOM      9  C   UNL     1      43.084   5.125  11.175  0.00  0.00    +0.000 A 
ATOM     10  N   UNL     1      43.193   5.564  12.451  0.00  0.00    +0.000 NA
ATOM     11  C   UNL     1      44.440   5.843  12.887  0.00  0.00    +0.000 A 
ATOM     12  C   UNL     1      45.589   5.686  12.115  0.00  0.00    +0.000 A 
ATOM     13  C   UNL     1      45.426   5.225  10.802  0.00  0.00    +0.000 A 
BRANCH   8  14
ATOM     14  N   UNL     1      43.988   4.427   9.017  0.00  0.00    +0.000 N 
ATOM     15  H   UNL     1      43.569   3.501   9.032  0.00  0.00    +0.000 HD
ATOM     16  H   UNL     1      43.529   5.041   8.350  0.00  0.00    +0.000 HD
ENDBRANCH   8  14
ENDBRANCH   7  12
ENDBRANCH   1   7
BRANCH   4  17
ATOM     17  C   UNL     1      48.007   3.081  17.439  0.00  0.00    +0.000 C 
BRANCH  17  18
ATOM     18  N   UNL     1      49.409   2.985  17.778  0.00  0.00    +0.000 N 
ATOM     19  C   UNL     1      50.266   2.184  17.071  0.00  0.00    +0.000 C 
ATOM     20  O   UNL     1      49.891   1.541  16.093  0.00  0.00    +0.000 OA
ATOM     21  H   UNL     1      49.667   3.301  18.708  0.00  0.00    +0.000 HD
BRANCH  19  22
ATOM     22  C   UNL     1      51.667   2.181  17.498  0.00  0.00    +0.000 A 
ATOM     23  C   UNL     1      52.309   0.972  17.730  0.00  0.00    +0.000 A 
ATOM     24  S   UNL     1      53.946   1.144  18.178  0.00  0.00    +0.000 S 
ATOM     25  C   UNL     1      53.837   2.842  18.131  0.00  0.00    +0.000 A 
ATOM     26  N   UNL     1      54.908   3.621  18.445  0.00  0.00    +0.000 NA
ATOM     27  C   UNL     1      54.671   4.890  18.404  0.00  0.00    +0.000 A 
ATOM     28  N   UNL     1      53.468   5.451  18.072  0.00  0.00    +0.000 N 
ATOM     29  C   UNL     1      52.375   4.705  17.695  0.00  0.00    +0.000 A 
ATOM     30  O   UNL     1      51.335   5.236  17.319  0.00  0.00    +0.000 OA
ATOM     31  C   UNL     1      52.577   3.270  17.752  0.00  0.00    +0.000 A 
ATOM     32  H   UNL     1      53.352   6.452  18.042  0.00  0.00    +0.000 HD
ENDBRANCH  19  22
ENDBRANCH  17  18
ENDBRANCH   4  17
TORSDOF 6
ENDMDL
MODEL 7
REMARK VINA RESULT:    -7.100      3.915      5.732
REMARK INTER + INTRA:         -10.085
REMARK INTER:                  -9.160
REMARK INTRA:                  -0.926
REMARK UNBOUND:                -0.702
REMARK  Name = 
REMARK  6 active torsions:
REMARK  status: ('A' for Active; 'I' for Inactive)
REMARK    1  A    between atoms: N_1  and  C_2
REMARK    2  A    between atoms: C_6  and  C_7
REMARK    3  A    between atoms: C_7  and  C_8
REMARK    4  A    between atoms: C_11  and  C_12
REMARK    5  A    between atoms: C_12  and  N_13
REMARK    6  A    between atoms: C_14  and  C_16
REMARK                            x       y       z     vdW  Elec       q    Type
REMARK                         _______ _______ _______ _____ _____    ______ ____
ROOT
ATOM      1  C   UNL     1      46.953   4.579  13.993  0.00  0.00    +0.000 A 
ATOM      2  C   UNL     1      47.742   5.722  13.920  0.00  0.00    +0.000 A 
ATOM      3  N   UNL     1      48.372   6.249  14.994  0.00  0.00    +0.000 NA
ATOM      4  C   UNL     1      48.200   5.584  16.167  0.00  0.00    +0.000 A 
ATOM      5  C   UNL     1      47.382   4.463  16.248  0.00  0.00    +0.000 A 
ATOM      6  N   UNL     1      46.748   3.939  15.173  0.00  0.00    +0.000 NA
ENDROOT
BRANCH   1   7
ATOM      7  C   UNL     1      46.357   3.968  12.752  0.00  0.00    +0.000 C 
BRANCH   7  12
ATOM      8  C   UNL     1      43.668   6.428  11.609  0.00  0.00    +0.000 A 
ATOM      9  C   UNL     1      42.571   5.576  11.718  0.00  0.00    +0.000 A 
ATOM     10  N   UNL     1      42.626   4.302  12.171  0.00  0.00    +0.000 NA
ATOM     11  C   UNL     1      43.849   3.829  12.491  0.00  0.00    +0.000 A 
ATOM     12  C   UNL     1      45.027   4.563  12.363  0.00  0.00    +0.000 A 
ATOM     13  C   UNL     1      44.919   5.876  11.886  0.00  0.00    +0.000 A 
BRANCH   8  14
ATOM     14  N   UNL     1      43.564   7.699  11.030  0.00  0.00    +0.000 N 
ATOM     15  H   UNL     1      43.198   8.406  11.662  0.00  0.00    +0.000 HD
ATOM     16  H   UNL     1      44.411   8.009  10.563  0.00  0.00    +0.000 HD
ENDBRANCH   8  14
ENDBRANCH   7  12
ENDBRANCH   1   7
BRANCH   4  17
ATOM     17  C   UNL     1      48.919   6.099  17.383  0.00  0.00    +0.000 C 
BRANCH  17  18
ATOM     18  N   UNL     1      49.969   5.205  17.817  0.00  0.00    +0.000 N 
ATOM     19  C   UNL     1      51.242   5.297  17.320  0.00  0.00    +0.000 C 
ATOM     20  O   UNL     1      51.559   6.167  16.511  0.00  0.00    +0.000 OA
ATOM     21  H   UNL     1      49.667   4.351  18.276  0.00  0.00    +0.000 HD
BRANCH  19  22
ATOM     22  C   UNL     1      52.224   4.348  17.847  0.00  0.00    +0.000 A 
ATOM     23  C   UNL     1      53.365   4.822  18.481  0.00  0.00    +0.000 A 
ATOM     24  S   UNL     1      54.381   3.587  19.072  0.00  0.00    +0.000 S 
ATOM     25  C   UNL     1      53.359   2.375  18.454  0.00  0.00    +0.000 A 
ATOM     26  N   UNL     1      53.671   1.058  18.594  0.00  0.00    +0.000 NA
ATOM     27  C   UNL     1      52.825   0.251  18.043  0.00  0.00    +0.000 A 
ATOM     28  N   UNL     1      51.697   0.638  17.373  0.00  0.00    +0.000 N 
ATOM     29  C   UNL     1      51.315   1.954  17.252  0.00  0.00    +0.000 A 
ATOM     30  O   UNL     1      50.254   2.267  16.720  0.00  0.00    +0.000 OA
ATOM     31  C   UNL     1      52.245   2.906  17.828  0.00  0.00    +0.000 A 
ATOM     32  H   UNL     1      51.068  -0.045  16.979  0.00  0.00    +0.000 HD
ENDBRANCH  19  22
ENDBRANCH  17  18
ENDBRANCH   4  17
TORSDOF 6
ENDMDL
MODEL 8
REMARK VINA RESULT:    -7.021      3.357      8.127
REMARK INTER + INTRA:          -9.981
REMARK INTER:                  -9.167
REMARK INTRA:                  -0.814
REMARK UNBOUND:                -0.702
REMARK  Name = 
REMARK  6 active torsions:
REMARK  status: ('A' for Active; 'I' for Inactive)
REMARK    1  A    between atoms: N_1  and  C_2
REMARK    2  A    between atoms: C_6  and  C_7
REMARK    3  A    between atoms: C_7  and  C_8
REMARK    4  A    between atoms: C_11  and  C_12
REMARK    5  A    between atoms: C_12  and  N_13
REMARK    6  A    between atoms: C_14  and  C_16
REMARK                            x       y       z     vdW  Elec       q    Type
REMARK                         _______ _______ _______ _____ _____    ______ ____
ROOT
ATOM      1  C   UNL     1      49.523   6.021  16.807  0.00  0.00    +0.000 A 
ATOM      2  C   UNL     1      48.445   5.478  16.117  0.00  0.00    +0.000 A 
ATOM      3  N   UNL     1      48.076   5.896  14.885  0.00  0.00    +0.000 NA
ATOM      4  C   UNL     1      48.835   6.885  14.344  0.00  0.00    +0.000 A 
ATOM      5  C   UNL     1      49.890   7.454  15.048  0.00  0.00    +0.000 A 
ATOM      6  N   UNL     1      50.255   7.037  16.283  0.00  0.00    +0.000 NA
ENDROOT
BRANCH   1   7
ATOM      7  C   UNL     1      49.962   5.452  18.132  0.00  0.00    +0.000 C 
BRANCH   7  12
ATOM      8  C   UNL     1      51.797   2.135  17.663  0.00  0.00    +0.000 A 
ATOM      9  C   UNL     1      53.094   2.604  17.862  0.00  0.00    +0.000 A 
ATOM     10  N   UNL     1      53.412   3.881  18.179  0.00  0.00    +0.000 NA
ATOM     11  C   UNL     1      52.386   4.756  18.256  0.00  0.00    +0.000 A 
ATOM     12  C   UNL     1      51.056   4.420  18.014  0.00  0.00    +0.000 A 
ATOM     13  C   UNL     1      50.777   3.086  17.687  0.00  0.00    +0.000 A 
BRANCH   8  14
ATOM     14  N   UNL     1      51.542   0.828  17.231  0.00  0.00    +0.000 N 
ATOM     15  H   UNL     1      52.040   0.575  16.382  0.00  0.00    +0.000 HD
ATOM     16  H   UNL     1      51.648   0.126  17.957  0.00  0.00    +0.000 HD
ENDBRANCH   8  14
ENDBRANCH   7  12
ENDBRANCH   1   7
BRANCH   4  17
ATOM     17  C   UNL     1      48.499   7.352  12.954  0.00  0.00    +0.000 C 
BRANCH  17  18
ATOM     18  N   UNL     1      47.709   6.385  12.228  0.00  0.00    +0.000 N 
ATOM     19  C   UNL     1      46.470   6.696  11.732  0.00  0.00    +0.000 C 
ATOM     20  O   UNL     1      45.990   7.821  11.851  0.00  0.00    +0.000 OA
ATOM     21  H   UNL     1      47.977   5.412  12.342  0.00  0.00    +0.000 HD
BRANCH  19  22
ATOM     22  C   UNL     1      45.770   5.639  10.999  0.00  0.00    +0.000 A 
ATOM     23  C   UNL     1      45.816   5.622   9.612  0.00  0.00    +0.000 A 
ATOM     24  S   UNL     1      44.986   4.304   8.918  0.00  0.00    +0.000 S 
ATOM     25  C   UNL     1      44.492   3.740  10.445  0.00  0.00    +0.000 A 
ATOM     26  N   UNL     1      43.709   2.633  10.563  0.00  0.00    +0.000 NA
ATOM     27  C   UNL     1      43.379   2.344  11.778  0.00  0.00    +0.000 A 
ATOM     28  N   UNL     1      43.763   3.053  12.883  0.00  0.00    +0.000 N 
ATOM     29  C   UNL     1      44.597   4.146  12.817  0.00  0.00    +0.000 A 
ATOM     30  O   UNL     1      44.995   4.710  13.830  0.00  0.00    +0.000 OA
ATOM     31  C   UNL     1      44.975   4.533  11.471  0.00  0.00    +0.000 A 
ATOM     32  H   UNL     1      43.484   2.764  13.808  0.00  0.00    +0.000 HD
ENDBRANCH  19  22
ENDBRANCH  17  18
ENDBRANCH   4  17
TORSDOF 6
ENDMDL
MODEL 9
REMARK VINA RESULT:    -7.012      2.772      3.520
REMARK INTER + INTRA:          -9.968
REMARK INTER:                  -9.123
REMARK INTRA:                  -0.845
REMARK UNBOUND:                -0.702
REMARK  Name = 
REMARK  6 active torsions:
REMARK  status: ('A' for Active; 'I' for Inactive)
REMARK    1  A    between atoms: N_1  and  C_2
REMARK    2  A    between atoms: C_6  and  C_7
REMARK    3  A    between atoms: C_7  and  C_8
REMARK    4  A    between atoms: C_11  and  C_12
REMARK    5  A    between atoms: C_12  and  N_13
REMARK    6  A    between atoms: C_14  and  C_16
REMARK                            x       y       z     vdW  Elec       q    Type
REMARK                         _______ _______ _______ _____ _____    ______ ____
ROOT
ATOM      1  C   UNL     1      45.421   5.306  11.460  0.00  0.00    +0.000 A 
ATOM      2  C   UNL     1      45.976   6.551  11.182  0.00  0.00    +0.000 A 
ATOM      3  N   UNL     1      46.934   7.116  11.950  0.00  0.00    +0.000 NA
ATOM      4  C   UNL     1      47.343   6.384  13.020  0.00  0.00    +0.000 A 
ATOM      5  C   UNL     1      46.763   5.156  13.319  0.00  0.00    +0.000 A 
ATOM      6  N   UNL     1      45.800   4.594  12.551  0.00  0.00    +0.000 NA
ENDROOT
BRANCH   1   7
ATOM      7  C   UNL     1      44.432   4.671  10.517  0.00  0.00    +0.000 C 
BRANCH   7  12
ATOM      8  C   UNL     1      46.207   3.359   7.400  0.00  0.00    +0.000 A 
ATOM      9  C   UNL     1      46.153   2.001   7.707  0.00  0.00    +0.000 A 
ATOM     10  N   UNL     1      45.554   1.481   8.803  0.00  0.00    +0.000 NA
ATOM     11  C   UNL     1      45.018   2.364   9.672  0.00  0.00    +0.000 A 
ATOM     12  C   UNL     1      45.066   3.747   9.507  0.00  0.00    +0.000 A 
ATOM     13  C   UNL     1      45.699   4.237   8.358  0.00  0.00    +0.000 A 
BRANCH   8  14
ATOM     14  N   UNL     1      46.936   3.842   6.307  0.00  0.00    +0.000 N 
ATOM     15  H   UNL     1      47.940   3.713   6.398  0.00  0.00    +0.000 HD
ATOM     16  H   UNL     1      46.591   3.519   5.408  0.00  0.00    +0.000 HD
ENDBRANCH   8  14
ENDBRANCH   7  12
ENDBRANCH   1   7
BRANCH   4  17
ATOM     17  C   UNL     1      48.443   6.942  13.880  0.00  0.00    +0.000 C 
BRANCH  17  18
ATOM     18  N   UNL     1      48.129   6.866  15.288  0.00  0.00    +0.000 N 
ATOM     19  C   UNL     1      49.079   6.538  16.220  0.00  0.00    +0.000 C 
ATOM     20  O   UNL     1      50.248   6.329  15.904  0.00  0.00    +0.000 OA
ATOM     21  H   UNL     1      47.144   6.788  15.524  0.00  0.00    +0.000 HD
BRANCH  19  22
ATOM     22  C   UNL     1      48.646   6.509  17.618  0.00  0.00    +0.000 A 
ATOM     23  C   UNL     1      48.669   5.310  18.317  0.00  0.00    +0.000 A 
ATOM     24  S   UNL     1      48.175   5.459  19.943  0.00  0.00    +0.000 S 
ATOM     25  C   UNL     1      47.863   7.121  19.754  0.00  0.00    +0.000 A 
ATOM     26  N   UNL     1      47.378   7.864  20.786  0.00  0.00    +0.000 NA
ATOM     27  C   UNL     1      47.152   9.100  20.488  0.00  0.00    +0.000 A 
ATOM     28  N   UNL     1      47.372   9.663  19.260  0.00  0.00    +0.000 N 
ATOM     29  C   UNL     1      47.910   8.963  18.204  0.00  0.00    +0.000 A 
ATOM     30  O   UNL     1      48.176   9.514  17.141  0.00  0.00    +0.000 OA
ATOM     31  C   UNL     1      48.156   7.560  18.475  0.00  0.00    +0.000 A 
ATOM     32  H   UNL     1      47.189  10.641  19.097  0.00  0.00    +0.000 HD
ENDBRANCH  19  22
ENDBRANCH  17  18
ENDBRANCH   4  17
TORSDOF 6
ENDMDL
