MODEL 1
REMARK VINA RESULT:    -7.810      0.000      0.000
REMARK INTER + INTRA:         -11.412
REMARK INTER:                 -10.322
REMARK INTRA:                  -1.091
REMARK UNBOUND:                -1.091
REMARK  Name = 
REMARK  9 active torsions:
REMARK  status: ('A' for Active; 'I' for Inactive)
REMARK    1  A    between atoms: C_1  and  C_2
REMARK    2  A    between atoms: N_4  and  C_5
REMARK    3  A    between atoms: C_9  and  C_10
REMARK    4  A    between atoms: C_10  and  C_11
REMARK    5  A    between atoms: C_10  and  C_12
REMARK    6  A    between atoms: C_12  and  N_13
REMARK    7  A    between atoms: CA_17  and  C_18
REMARK    8  A    between atoms: C_18  and  OXT_20
REMARK    9  A    between atoms: C_25  and  C_26
REMARK                            x       y       z     vdW  Elec       q    Type
REMARK                         _______ _______ _______ _____ _____    ______ ____
ROOT
ATOM      1  C   UNL     1      43.442   4.344  12.285  0.00  0.00    +0.000 C 
ATOM      2  C   UNL     1      42.608   5.632  12.361  0.00  0.00    +0.000 C 
ENDROOT
BRANCH   1   7
ATOM      3  C   UNL     1      46.557   6.351  13.424  0.00  0.00    +0.000 A 
ATOM      4  C   UNL     1      47.387   5.284  13.792  0.00  0.00    +0.000 A 
ATOM      5  C   UNL     1      46.990   3.953  13.633  0.00  0.00    +0.000 A 
ATOM      6  C   UNL     1      45.733   3.654  13.113  0.00  0.00    +0.000 A 
ATOM      7  C   UNL     1      44.865   4.682  12.731  0.00  0.00    +0.000 A 
ATOM      8  C   UNL     1      45.308   6.013  12.879  0.00  0.00    +0.000 A 
BRANCH   3  12
ATOM      9  C   UNL     1      49.266   8.000  11.413  0.00  0.00    +0.000 C 
ATOM     10  C   UNL     1      48.936   8.856  12.634  0.00  0.00    +0.000 C 
ATOM     11  C   UNL     1      48.365   8.048  13.819  0.00  0.00    +0.000 C 
ATOM     12  N   UNL     1      46.966   7.661  13.591  0.00  0.00    +0.000 N 
ATOM     13  C   UNL     1      46.096   8.780  13.186  0.00  0.00    +0.000 C 
ATOM     14  C   UNL     1      46.727   9.544  11.998  0.00  0.00    +0.000 C 
ATOM     15  C   UNL     1      45.924  10.797  11.674  0.00  0.00    +0.000 C 
ATOM     16  O   UNL     1      48.077   9.958  12.280  0.00  0.00    +0.000 OA
ENDBRANCH   3  12
ENDBRANCH   1   7
BRANCH   1  17
ATOM     17  C   UNL     1      43.373   3.684  10.884  0.00  0.00    +0.000 C 
BRANCH  17  18
ATOM     18  N   UNL     1      43.992   4.515   9.838  0.00  0.00    +0.000 N 
ATOM     19  C   UNL     1      44.887   3.794   9.016  0.00  0.00    +0.000 A 
ATOM     20  C   UNL     1      45.619   4.468   8.027  0.00  0.00    +0.000 A 
ATOM     21  N   UNL     1      46.534   3.878   7.209  0.00  0.00    +0.000 NA
ATOM     22  CA  UNL     1      46.667   2.536   7.413  0.00  0.00    +0.000 A 
ATOM     23  C   UNL     1      45.934   1.842   8.357  0.00  0.00    +0.000 A 
ATOM     24  N   UNL     1      45.038   2.458   9.169  0.00  0.00    +0.000 NA
ATOM     25  H   UNL     1      44.508   5.295  10.236  0.00  0.00    +0.000 HD
BRANCH  22  26
ATOM     26  C   UNL     1      47.670   1.832   6.579  0.00  0.00    +0.000 C 
ATOM     27  O   UNL     1      47.517   0.721   6.104  0.00  0.00    +0.000 OA
BRANCH  26  28
ATOM     28  OXT UNL     1      48.786   2.585   6.432  0.00  0.00    +0.000 OA
ATOM     29  HXT UNL     1      48.589   3.350   5.843  0.00  0.00    +0.000 HD
ENDBRANCH  26  28
ENDBRANCH  22  26
ENDBRANCH  17  18
ENDBRANCH   1  17
TORSDOF 6
ENDMDL
MODEL 2
REMARK VINA RESULT:    -7.073      1.434      2.182
REMARK INTER + INTRA:         -10.438
REMARK INTER:                  -9.487
REMARK INTRA:                  -0.951
REMARK UNBOUND:                -1.091
REMARK  Name = 
REMARK  9 active torsions:
REMARK  status: ('A' for Active; 'I' for Inactive)
REMARK    1  A    between atoms: C_1  and  C_2
REMARK    2  A    between atoms: N_4  and  C_5
REMARK    3  A    between atoms: C_9  and  C_10
REMARK    4  A    between atoms: C_10  and  C_11
REMARK    5  A    between atoms: C_10  and  C_12
REMARK    6  A    between atoms: C_12  and  N_13
REMARK    7  A    between atoms: CA_17  and  C_18
REMARK    8  A    between atoms: C_18  and  OXT_20
REMARK    9  A    between atoms: C_25  and  C_26
REMARK                            x       y       z     vdW  Elec       q    Type
REMARK                         _______ _______ _______ _____ _____    ______ ____
ROOT
ATOM      1  C   UNL     1      44.249   6.078  11.843  0.00  0.00    +0.000 C 
ATOM      2  C   UNL     1      44.360   7.529  11.351  0.00  0.00    +0.000 C 
ENDROOT
BRANCH   1   7
ATOM      3  C   UNL     1      47.866   6.284  13.223  0.00  0.00    +0.000 A 
ATOM      4  C   UNL     1      47.779   5.306  14.223  0.00  0.00    +0.000 A 
ATOM      5  C   UNL     1      46.614   4.558  14.422  0.00  0.00    +0.000 A 
ATOM      6  C   UNL     1      45.492   4.784  13.630  0.00  0.00    +0.000 A 
ATOM      7  C   UNL     1      45.526   5.749  12.619  0.00  0.00    +0.000 A 
ATOM      8  C   UNL     1      46.725   6.467  12.426  0.00  0.00    +0.000 A 
BRANCH   3  12
ATOM      9  C   UNL     1      47.971   9.809  11.932  0.00  0.00    +0.000 C 
ATOM     10  C   UNL     1      49.374   9.205  11.899  0.00  0.00    +0.000 C 
ATOM     11  C   UNL     1      49.382   7.666  11.774  0.00  0.00    +0.000 C 
ATOM     12  N   UNL     1      49.025   7.015  13.043  0.00  0.00    +0.000 N 
ATOM     13  C   UNL     1      49.797   7.501  14.200  0.00  0.00    +0.000 C 
ATOM     14  C   UNL     1      49.747   9.046  14.264  0.00  0.00    +0.000 C 
ATOM     15  C   UNL     1      50.671   9.572  15.355  0.00  0.00    +0.000 C 
ATOM     16  O   UNL     1      50.159   9.650  13.023  0.00  0.00    +0.000 OA
ENDBRANCH   3  12
ENDBRANCH   1   7
BRANCH   1  17
ATOM     17  C   UNL     1      43.955   5.089  10.687  0.00  0.00    +0.000 C 
BRANCH  17  18
ATOM     18  N   UNL     1      44.837   5.299   9.527  0.00  0.00    +0.000 N 
ATOM     19  C   UNL     1      45.327   4.093   8.977  0.00  0.00    +0.000 A 
ATOM     20  C   UNL     1      46.248   4.134   7.920  0.00  0.00    +0.000 A 
ATOM     21  N   UNL     1      46.811   3.035   7.345  0.00  0.00    +0.000 NA
ATOM     22  CA  UNL     1      46.377   1.856   7.874  0.00  0.00    +0.000 A 
ATOM     23  C   UNL     1      45.447   1.786   8.894  0.00  0.00    +0.000 A 
ATOM     24  N   UNL     1      44.911   2.899   9.458  0.00  0.00    +0.000 NA
ATOM     25  H   UNL     1      45.642   5.871   9.767  0.00  0.00    +0.000 HD
BRANCH  22  26
ATOM     26  C   UNL     1      46.972   0.617   7.319  0.00  0.00    +0.000 C 
ATOM     27  O   UNL     1      46.836  -0.492   7.803  0.00  0.00    +0.000 OA
BRANCH  26  28
ATOM     28  OXT UNL     1      47.702   0.890   6.211  0.00  0.00    +0.000 OA
ATOM     29  HXT UNL     1      48.025   0.045   5.817  0.00  0.00    +0.000 HD
ENDBRANCH  26  28
ENDBRANCH  22  26
ENDBRANCH  17  18
ENDBRANCH   1  17
TORSDOF 6
ENDMDL
MODEL 3
REMARK VINA RESULT:    -7.072      3.274      7.680
REMARK INTER + INTRA:         -10.436
REMARK INTER:                  -9.509
REMARK INTRA:                  -0.927
REMARK UNBOUND:                -1.091
REMARK  Name = 
REMARK  9 active torsions:
REMARK  status: ('A' for Active; 'I' for Inactive)
REMARK    1  A    between atoms: C_1  and  C_2
REMARK    2  A    between atoms: N_4  and  C_5
REMARK    3  A    between atoms: C_9  and  C_10
REMARK    4  A    between atoms: C_10  and  C_11
REMARK    5  A    between atoms: C_10  and  C_12
REMARK    6  A    between atoms: C_12  and  N_13
REMARK    7  A    between atoms: CA_17  and  C_18
REMARK    8  A    between atoms: C_18  and  OXT_20
REMARK    9  A    between atoms: C_25  and  C_26
REMARK                            x       y       z     vdW  Elec       q    Type
REMARK                         _______ _______ _______ _____ _____    ______ ____
ROOT
ATOM      1  C   UNL     1      48.953   8.900  12.410  0.00  0.00    +0.000 C 
ATOM      2  C   UNL     1      48.896  10.080  13.392  0.00  0.00    +0.000 C 
ENDROOT
BRANCH   1   7
ATOM      3  C   UNL     1      45.833   6.706  11.719  0.00  0.00    +0.000 A 
ATOM      4  C   UNL     1      44.845   7.697  11.782  0.00  0.00    +0.000 A 
ATOM      5  C   UNL     1      45.164   9.044  11.987  0.00  0.00    +0.000 A 
ATOM      6  C   UNL     1      46.490   9.432  12.151  0.00  0.00    +0.000 A 
ATOM      7  C   UNL     1      47.515   8.482  12.098  0.00  0.00    +0.000 A 
ATOM      8  C   UNL     1      47.161   7.136  11.863  0.00  0.00    +0.000 A 
BRANCH   3  12
ATOM      9  C   UNL     1      42.318   5.382  11.725  0.00  0.00    +0.000 C 
ATOM     10  C   UNL     1      43.308   4.221  11.812  0.00  0.00    +0.000 C 
ATOM     11  C   UNL     1      44.660   4.608  12.448  0.00  0.00    +0.000 C 
ATOM     12  N   UNL     1      45.498   5.380  11.519  0.00  0.00    +0.000 N 
ATOM     13  C   UNL     1      45.644   4.758  10.190  0.00  0.00    +0.000 C 
ATOM     14  C   UNL     1      44.254   4.397   9.614  0.00  0.00    +0.000 C 
ATOM     15  C   UNL     1      44.395   3.607   8.318  0.00  0.00    +0.000 C 
ATOM     16  O   UNL     1      43.486   3.591  10.528  0.00  0.00    +0.000 OA
ENDBRANCH   3  12
ENDBRANCH   1   7
BRANCH   1  17
ATOM     17  C   UNL     1      49.834   7.740  12.940  0.00  0.00    +0.000 C 
BRANCH  17  18
ATOM     18  N   UNL     1      50.070   7.829  14.391  0.00  0.00    +0.000 N 
ATOM     19  C   UNL     1      49.314   6.894  15.134  0.00  0.00    +0.000 A 
ATOM     20  C   UNL     1      49.368   6.914  16.535  0.00  0.00    +0.000 A 
ATOM     21  N   UNL     1      48.652   6.087  17.346  0.00  0.00    +0.000 NA
ATOM     22  CA  UNL     1      47.876   5.192  16.669  0.00  0.00    +0.000 A 
ATOM     23  C   UNL     1      47.830   5.130  15.289  0.00  0.00    +0.000 A 
ATOM     24  N   UNL     1      48.544   5.977  14.505  0.00  0.00    +0.000 NA
ATOM     25  H   UNL     1      49.847   8.753  14.751  0.00  0.00    +0.000 HD
BRANCH  22  26
ATOM     26  C   UNL     1      47.043   4.280  17.487  0.00  0.00    +0.000 C 
ATOM     27  O   UNL     1      46.729   3.149  17.159  0.00  0.00    +0.000 OA
BRANCH  26  28
ATOM     28  OXT UNL     1      46.664   4.880  18.640  0.00  0.00    +0.000 OA
ATOM     29  HXT UNL     1      47.436   5.352  19.032  0.00  0.00    +0.000 HD
ENDBRANCH  26  28
ENDBRANCH  22  26
ENDBRANCH  17  18
ENDBRANCH   1  17
TORSDOF 6
ENDMDL
MODEL 4
REMARK VINA RESULT:    -7.051      1.809      3.172
REMARK INTER + INTRA:         -10.409
REMARK INTER:                  -9.618
REMARK INTRA:                  -0.791
REMARK UNBOUND:                -1.091
REMARK  Name = 
REMARK  9 active torsions:
REMARK  status: ('A' for Active; 'I' for Inactive)
REMARK    1  A    between atoms: C_1  and  C_2
REMARK    2  A    between atoms: N_4  and  C_5
REMARK    3  A    between atoms: C_9  and  C_10
REMARK    4  A    between atoms: C_10  and  C_11
REMARK    5  A    between atoms: C_10  and  C_12
REMARK    6  A    between atoms: C_12  and  N_13
REMARK    7  A    between atoms: CA_17  and  C_18
REMARK    8  A    between atoms: C_18  and  OXT_20
REMARK    9  A    between atoms: C_25  and  C_26
REMARK                            x       y       z     vdW  Elec       q    Type
REMARK                         _______ _______ _______ _____ _____    ______ ____
ROOT
ATOM      1  C   UNL     1      43.477   5.139  11.639  0.00  0.00    +0.000 C 
ATOM      2  C   UNL     1      42.097   5.778  11.856  0.00  0.00    +0.000 C 
ENDROOT
BRANCH   1   7
ATOM      3  C   UNL     1      46.745   6.663  13.063  0.00  0.00    +0.000 A 
ATOM      4  C   UNL     1      46.587   7.982  12.618  0.00  0.00    +0.000 A 
ATOM      5  C   UNL     1      45.444   8.395  11.926  0.00  0.00    +0.000 A 
ATOM      6  C   UNL     1      44.429   7.485  11.646  0.00  0.00    +0.000 A 
ATOM      7  C   UNL     1      44.536   6.156  12.066  0.00  0.00    +0.000 A 
ATOM      8  C   UNL     1      45.690   5.779  12.785  0.00  0.00    +0.000 A 
BRANCH   3  12
ATOM      9  C   UNL     1      48.553   8.794  15.571  0.00  0.00    +0.000 C 
ATOM     10  C   UNL     1      49.431   7.610  15.171  0.00  0.00    +0.000 C 
ATOM     11  C   UNL     1      49.124   7.061  13.762  0.00  0.00    +0.000 C 
ATOM     12  N   UNL     1      47.883   6.273  13.742  0.00  0.00    +0.000 N 
ATOM     13  C   UNL     1      47.819   5.237  14.789  0.00  0.00    +0.000 C 
ATOM     14  C   UNL     1      48.136   5.855  16.171  0.00  0.00    +0.000 C 
ATOM     15  C   UNL     1      48.234   4.771  17.238  0.00  0.00    +0.000 C 
ATOM     16  O   UNL     1      49.387   6.569  16.167  0.00  0.00    +0.000 OA
ENDBRANCH   3  12
ENDBRANCH   1   7
BRANCH   1  17
ATOM     17  C   UNL     1      43.663   4.624  10.189  0.00  0.00    +0.000 C 
BRANCH  17  18
ATOM     18  N   UNL     1      44.200   3.254  10.140  0.00  0.00    +0.000 N 
ATOM     19  C   UNL     1      45.089   3.046   9.062  0.00  0.00    +0.000 A 
ATOM     20  C   UNL     1      45.617   1.767   8.833  0.00  0.00    +0.000 A 
ATOM     21  N   UNL     1      46.449   1.449   7.803  0.00  0.00    +0.000 NA
ATOM     22  CA  UNL     1      46.760   2.509   7.002  0.00  0.00    +0.000 A 
ATOM     23  C   UNL     1      46.279   3.785   7.224  0.00  0.00    +0.000 A 
ATOM     24  N   UNL     1      45.440   4.071   8.252  0.00  0.00    +0.000 NA
ATOM     25  H   UNL     1      43.459   2.564  10.059  0.00  0.00    +0.000 HD
BRANCH  22  26
ATOM     26  C   UNL     1      47.635   2.230   5.839  0.00  0.00    +0.000 C 
ATOM     27  O   UNL     1      47.238   1.871   4.745  0.00  0.00    +0.000 OA
BRANCH  26  28
ATOM     28  OXT UNL     1      48.937   2.414   6.163  0.00  0.00    +0.000 OA
ATOM     29  HXT UNL     1      49.244   3.282   5.809  0.00  0.00    +0.000 HD
ENDBRANCH  26  28
ENDBRANCH  22  26
ENDBRANCH  17  18
ENDBRANCH   1  17
TORSDOF 6
ENDMDL
MODEL 5
REMARK VINA RESULT:    -6.952      1.533      2.682
REMARK INTER + INTRA:         -10.279
REMARK INTER:                  -9.529
REMARK INTRA:                  -0.749
REMARK UNBOUND:                -1.091
REMARK  Name = 
REMARK  9 active torsions:
REMARK  status: ('A' for Active; 'I' for Inactive)
REMARK    1  A    between atoms: C_1  and  C_2
REMARK    2  A    between atoms: N_4  and  C_5
REMARK    3  A    between atoms: C_9  and  C_10
REMARK    4  A    between atoms: C_10  and  C_11
REMARK    5  A    between atoms: C_10  and  C_12
REMARK    6  A    between atoms: C_12  and  N_13
REMARK    7  A    between atoms: CA_17  and  C_18
REMARK    8  A    between atoms: C_18  and  OXT_20
REMARK    9  A    between atoms: C_25  and  C_26
REMARK                            x       y       z     vdW  Elec       q    Type
REMARK                         _______ _______ _______ _____ _____    ______ ____
ROOT
ATOM      1  C   UNL     1      44.118   4.852  12.068  0.00  0.00    +0.000 C 
ATOM      2  C   UNL     1      42.852   5.094  12.904  0.00  0.00    +0.000 C 
ENDROOT
BRANCH   1   7
ATOM      3  C   UNL     1      47.225   7.132  12.494  0.00  0.00    +0.000 A 
ATOM      4  C   UNL     1      46.652   8.358  12.131  0.00  0.00    +0.000 A 
ATOM      5  C   UNL     1      45.296   8.472  11.809  0.00  0.00    +0.000 A 
ATOM      6  C   UNL     1      44.476   7.347  11.826  0.00  0.00    +0.000 A 
ATOM      7  C   UNL     1      44.997   6.099  12.180  0.00  0.00    +0.000 A 
ATOM      8  C   UNL     1      46.363   6.024  12.525  0.00  0.00    +0.000 A 
BRANCH   3  12
ATOM      9  C   UNL     1      49.777   9.767  11.690  0.00  0.00    +0.000 C 
ATOM     10  C   UNL     1      50.481   8.471  12.088  0.00  0.00    +0.000 C 
ATOM     11  C   UNL     1      49.642   7.204  11.816  0.00  0.00    +0.000 C 
ATOM     12  N   UNL     1      48.567   7.039  12.806  0.00  0.00    +0.000 N 
ATOM     13  C   UNL     1      49.025   7.136  14.204  0.00  0.00    +0.000 C 
ATOM     14  C   UNL     1      49.857   8.425  14.404  0.00  0.00    +0.000 C 
ATOM     15  C   UNL     1      50.472   8.459  15.798  0.00  0.00    +0.000 C 
ATOM     16  O   UNL     1      50.935   8.523  13.455  0.00  0.00    +0.000 OA
ENDBRANCH   3  12
ENDBRANCH   1   7
BRANCH   1  17
ATOM     17  C   UNL     1      43.788   4.457  10.606  0.00  0.00    +0.000 C 
BRANCH  17  18
ATOM     18  N   UNL     1      44.146   3.061  10.304  0.00  0.00    +0.000 N 
ATOM     19  C   UNL     1      45.051   2.943   9.225  0.00  0.00    +0.000 A 
ATOM     20  C   UNL     1      45.420   1.670   8.764  0.00  0.00    +0.000 A 
ATOM     21  N   UNL     1      46.252   1.444   7.710  0.00  0.00    +0.000 NA
ATOM     22  CA  UNL     1      46.734   2.584   7.137  0.00  0.00    +0.000 A 
ATOM     23  C   UNL     1      46.412   3.848   7.592  0.00  0.00    +0.000 A 
ATOM     24  N   UNL     1      45.569   4.045   8.637  0.00  0.00    +0.000 NA
ATOM     25  H   UNL     1      43.326   2.505  10.074  0.00  0.00    +0.000 HD
BRANCH  22  26
ATOM     26  C   UNL     1      47.621   2.415   5.962  0.00  0.00    +0.000 C 
ATOM     27  O   UNL     1      47.243   2.080   4.853  0.00  0.00    +0.000 OA
BRANCH  26  28
ATOM     28  OXT UNL     1      48.910   2.667   6.292  0.00  0.00    +0.000 OA
ATOM     29  HXT UNL     1      48.993   3.602   6.595  0.00  0.00    +0.000 HD
ENDBRANCH  26  28
ENDBRANCH  22  26
ENDBRANCH  17  18
ENDBRANCH   1  17
TORSDOF 6
ENDMDL
MODEL 6
REMARK VINA RESULT:    -6.643      4.180      6.616
REMARK INTER + INTRA:          -9.870
REMARK INTER:                  -8.807
REMARK INTRA:                  -1.063
REMARK UNBOUND:                -1.091
REMARK  Name = 
REMARK  9 active torsions:
REMARK  status: ('A' for Active; 'I' for Inactive)
REMARK    1  A    between atoms: C_1  and  C_2
REMARK    2  A    between atoms: N_4  and  C_5
REMARK    3  A    between atoms: C_9  and  C_10
REMARK    4  A    between atoms: C_10  and  C_11
REMARK    5  A    between atoms: C_10  and  C_12
REMARK    6  A    between atoms: C_12  and  N_13
REMARK    7  A    between atoms: CA_17  and  C_18
REMARK    8  A    between atoms: C_18  and  OXT_20
REMARK    9  A    between atoms: C_25  and  C_26
REMARK                            x       y       z     vdW  Elec       q    Type
REMARK                         _______ _______ _______ _____ _____    ______ ____
ROOT
ATOM      1  C   UNL     1      49.188   8.333  13.110  0.00  0.00    +0.000 C 
ATOM      2  C   UNL     1      49.918   7.637  11.950  0.00  0.00    +0.000 C 
ENDROOT
BRANCH   1   7
ATOM      3  C   UNL     1      49.289   6.204  16.347  0.00  0.00    +0.000 A 
ATOM      4  C   UNL     1      50.648   6.343  16.663  0.00  0.00    +0.000 A 
ATOM      5  C   UNL     1      51.505   7.139  15.896  0.00  0.00    +0.000 A 
ATOM      6  C   UNL     1      51.023   7.807  14.774  0.00  0.00    +0.000 A 
ATOM      7  C   UNL     1      49.675   7.701  14.414  0.00  0.00    +0.000 A 
ATOM      8  C   UNL     1      48.832   6.912  15.225  0.00  0.00    +0.000 A 
BRANCH   3  12
ATOM      9  C   UNL     1      49.949   2.595  17.151  0.00  0.00    +0.000 C 
ATOM     10  C   UNL     1      48.503   2.945  17.498  0.00  0.00    +0.000 C 
ATOM     11  C   UNL     1      47.933   4.114  16.665  0.00  0.00    +0.000 C 
ATOM     12  N   UNL     1      48.459   5.411  17.116  0.00  0.00    +0.000 N 
ATOM     13  C   UNL     1      48.340   5.629  18.569  0.00  0.00    +0.000 C 
ATOM     14  C   UNL     1      48.928   4.423  19.339  0.00  0.00    +0.000 C 
ATOM     15  C   UNL     1      48.667   4.558  20.834  0.00  0.00    +0.000 C 
ATOM     16  O   UNL     1      48.348   3.176  18.912  0.00  0.00    +0.000 OA
ENDBRANCH   3  12
ENDBRANCH   1   7
BRANCH   1  17
ATOM     17  C   UNL     1      47.648   8.292  12.940  0.00  0.00    +0.000 C 
BRANCH  17  18
ATOM     18  N   UNL     1      47.236   7.675  11.668  0.00  0.00    +0.000 N 
ATOM     19  C   UNL     1      46.291   6.638  11.835  0.00  0.00    +0.000 A 
ATOM     20  C   UNL     1      45.867   5.898  10.722  0.00  0.00    +0.000 A 
ATOM     21  N   UNL     1      44.993   4.855  10.777  0.00  0.00    +0.000 NA
ATOM     22  CA  UNL     1      44.526   4.597  12.033  0.00  0.00    +0.000 A 
ATOM     23  C   UNL     1      44.903   5.332  13.141  0.00  0.00    +0.000 A 
ATOM     24  N   UNL     1      45.787   6.358  13.059  0.00  0.00    +0.000 NA
ATOM     25  H   UNL     1      48.030   7.284  11.167  0.00  0.00    +0.000 HD
BRANCH  22  26
ATOM     26  C   UNL     1      43.594   3.454  12.174  0.00  0.00    +0.000 C 
ATOM     27  O   UNL     1      43.782   2.495  12.902  0.00  0.00    +0.000 OA
BRANCH  26  28
ATOM     28  OXT UNL     1      42.514   3.611  11.373  0.00  0.00    +0.000 OA
ATOM     29  HXT UNL     1      42.082   4.475  11.572  0.00  0.00    +0.000 HD
ENDBRANCH  26  28
ENDBRANCH  22  26
ENDBRANCH  17  18
ENDBRANCH   1  17
TORSDOF 6
ENDMDL
MODEL 7
REMARK VINA RESULT:    -6.538      4.144      6.717
REMARK INTER + INTRA:          -9.731
REMARK INTER:                  -8.625
REMARK INTRA:                  -1.105
REMARK UNBOUND:                -1.091
REMARK  Name = 
REMARK  9 active torsions:
REMARK  status: ('A' for Active; 'I' for Inactive)
REMARK    1  A    between atoms: C_1  and  C_2
REMARK    2  A    between atoms: N_4  and  C_5
REMARK    3  A    between atoms: C_9  and  C_10
REMARK    4  A    between atoms: C_10  and  C_11
REMARK    5  A    between atoms: C_10  and  C_12
REMARK    6  A    between atoms: C_12  and  N_13
REMARK    7  A    between atoms: CA_17  and  C_18
REMARK    8  A    between atoms: C_18  and  OXT_20
REMARK    9  A    between atoms: C_25  and  C_26
REMARK                            x       y       z     vdW  Elec       q    Type
REMARK                         _______ _______ _______ _____ _____    ______ ____
ROOT
ATOM      1  C   UNL     1      49.175   8.222  13.778  0.00  0.00    +0.000 C 
ATOM      2  C   UNL     1      50.650   8.646  13.704  0.00  0.00    +0.000 C 
ENDROOT
BRANCH   1   7
ATOM      3  C   UNL     1      48.728   6.863  17.381  0.00  0.00    +0.000 A 
ATOM      4  C   UNL     1      48.321   8.044  18.016  0.00  0.00    +0.000 A 
ATOM      5  C   UNL     1      48.140   9.236  17.307  0.00  0.00    +0.000 A 
ATOM      6  C   UNL     1      48.381   9.280  15.937  0.00  0.00    +0.000 A 
ATOM      7  C   UNL     1      48.789   8.130  15.255  0.00  0.00    +0.000 A 
ATOM      8  C   UNL     1      48.936   6.937  15.995  0.00  0.00    +0.000 A 
BRANCH   3  12
ATOM      9  C   UNL     1      47.563   3.479  16.242  0.00  0.00    +0.000 C 
ATOM     10  C   UNL     1      47.937   3.425  17.722  0.00  0.00    +0.000 C 
ATOM     11  C   UNL     1      47.802   4.784  18.443  0.00  0.00    +0.000 C 
ATOM     12  N   UNL     1      48.903   5.695  18.098  0.00  0.00    +0.000 N 
ATOM     13  C   UNL     1      50.241   5.095  18.247  0.00  0.00    +0.000 C 
ATOM     14  C   UNL     1      50.305   3.740  17.502  0.00  0.00    +0.000 C 
ATOM     15  C   UNL     1      51.625   3.032  17.780  0.00  0.00    +0.000 C 
ATOM     16  O   UNL     1      49.246   2.853  17.909  0.00  0.00    +0.000 OA
ENDBRANCH   3  12
ENDBRANCH   1   7
BRANCH   1  17
ATOM     17  C   UNL     1      48.901   6.919  12.985  0.00  0.00    +0.000 C 
BRANCH  17  18
ATOM     18  N   UNL     1      47.887   7.102  11.932  0.00  0.00    +0.000 N 
ATOM     19  C   UNL     1      46.801   6.205  12.047  0.00  0.00    +0.000 A 
ATOM     20  C   UNL     1      45.797   6.201  11.067  0.00  0.00    +0.000 A 
ATOM     21  N   UNL     1      44.732   5.353  11.060  0.00  0.00    +0.000 NA
ATOM     22  CA  UNL     1      44.700   4.502  12.125  0.00  0.00    +0.000 A 
ATOM     23  C   UNL     1      45.659   4.507  13.120  0.00  0.00    +0.000 A 
ATOM     24  N   UNL     1      46.719   5.355  13.096  0.00  0.00    +0.000 NA
ATOM     25  H   UNL     1      48.284   6.981  11.004  0.00  0.00    +0.000 HD
BRANCH  22  26
ATOM     26  C   UNL     1      43.585   3.527  12.167  0.00  0.00    +0.000 C 
ATOM     27  O   UNL     1      43.612   2.470  12.772  0.00  0.00    +0.000 OA
BRANCH  26  28
ATOM     28  OXT UNL     1      42.538   3.963  11.426  0.00  0.00    +0.000 OA
ATOM     29  HXT UNL     1      42.540   4.949  11.406  0.00  0.00    +0.000 HD
ENDBRANCH  26  28
ENDBRANCH  22  26
ENDBRANCH  17  18
ENDBRANCH   1  17
TORSDOF 6
ENDMDL
MODEL 8
REMARK VINA RESULT:    -6.353      3.978      6.577
REMARK INTER + INTRA:          -9.487
REMARK INTER:                  -8.521
REMARK INTRA:                  -0.966
REMARK UNBOUND:                -1.091
REMARK  Name = 
REMARK  9 active torsions:
REMARK  status: ('A' for Active; 'I' for Inactive)
REMARK    1  A    between atoms: C_1  and  C_2
REMARK    2  A    between atoms: N_4  and  C_5
REMARK    3  A    between atoms: C_9  and  C_10
REMARK    4  A    between atoms: C_10  and  C_11
REMARK    5  A    between atoms: C_10  and  C_12
REMARK    6  A    between atoms: C_12  and  N_13
REMARK    7  A    between atoms: CA_17  and  C_18
REMARK    8  A    between atoms: C_18  and  OXT_20
REMARK    9  A    between atoms: C_25  and  C_26
REMARK                            x       y       z     vdW  Elec       q    Type
REMARK                         _______ _______ _______ _____ _____    ______ ____
ROOT
ATOM      1  C   UNL     1      49.068   8.334  13.493  0.00  0.00    +0.000 C 
ATOM      2  C   UNL     1      49.750   8.124  12.133  0.00  0.00    +0.000 C 
ENDROOT
BRANCH   1   7
ATOM      3  C   UNL     1      50.547   6.326  16.460  0.00  0.00    +0.000 A 
ATOM      4  C   UNL     1      51.871   6.781  16.399  0.00  0.00    +0.000 A 
ATOM      5  C   UNL     1      52.276   7.746  15.471  0.00  0.00    +0.000 A 
ATOM      6  C   UNL     1      51.363   8.270  14.562  0.00  0.00    +0.000 A 
ATOM      7  C   UNL     1      50.029   7.849  14.579  0.00  0.00    +0.000 A 
ATOM      8  C   UNL     1      49.647   6.895  15.546  0.00  0.00    +0.000 A 
BRANCH   3  12
ATOM      9  C   UNL     1      47.524   4.126  16.110  0.00  0.00    +0.000 C 
ATOM     10  C   UNL     1      48.054   4.050  17.541  0.00  0.00    +0.000 C 
ATOM     11  C   UNL     1      48.824   5.313  17.982  0.00  0.00    +0.000 C 
ATOM     12  N   UNL     1      50.166   5.371  17.383  0.00  0.00    +0.000 N 
ATOM     13  C   UNL     1      50.947   4.132  17.553  0.00  0.00    +0.000 C 
ATOM     14  C   UNL     1      50.118   2.910  17.093  0.00  0.00    +0.000 C 
ATOM     15  C   UNL     1      50.846   1.611  17.413  0.00  0.00    +0.000 C 
ATOM     16  O   UNL     1      48.834   2.855  17.745  0.00  0.00    +0.000 OA
ENDBRANCH   3  12
ENDBRANCH   1   7
BRANCH   1  17
ATOM     17  C   UNL     1      47.672   7.662  13.557  0.00  0.00    +0.000 C 
BRANCH  17  18
ATOM     18  N   UNL     1      47.041   7.545  12.232  0.00  0.00    +0.000 N 
ATOM     19  C   UNL     1      46.254   6.380  12.095  0.00  0.00    +0.000 A 
ATOM     20  C   UNL     1      45.657   6.086  10.859  0.00  0.00    +0.000 A 
ATOM     21  N   UNL     1      44.914   4.973  10.608  0.00  0.00    +0.000 NA
ATOM     22  CA  UNL     1      44.766   4.156  11.690  0.00  0.00    +0.000 A 
ATOM     23  C   UNL     1      45.317   4.438  12.926  0.00  0.00    +0.000 A 
ATOM     24  N   UNL     1      46.065   5.549  13.145  0.00  0.00    +0.000 NA
ATOM     25  H   UNL     1      47.733   7.533  11.487  0.00  0.00    +0.000 HD
BRANCH  22  26
ATOM     26  C   UNL     1      43.996   2.907  11.482  0.00  0.00    +0.000 C 
ATOM     27  O   UNL     1      43.660   2.475  10.393  0.00  0.00    +0.000 OA
BRANCH  26  28
ATOM     28  OXT UNL     1      43.701   2.321  12.666  0.00  0.00    +0.000 OA
ATOM     29  HXT UNL     1      42.873   2.716  13.029  0.00  0.00    +0.000 HD
ENDBRANCH  26  28
ENDBRANCH  22  26
ENDBRANCH  17  18
ENDBRANCH   1  17
TORSDOF 6
ENDMDL
MODEL 9
REMARK VINA RESULT:    -6.324      4.318      8.657
REMARK INTER + INTRA:          -9.448
REMARK INTER:                  -8.731
REMARK INTRA:                  -0.717
REMARK UNBOUND:                -1.091
REMARK  Name = 
REMARK  9 active torsions:
REMARK  status: ('A' for Active; 'I' for Inactive)
REMARK    1  A    between atoms: C_1  and  C_2
REMARK    2  A    between atoms: N_4  and  C_5
REMARK    3  A    between atoms: C_9  and  C_10
REMARK    4  A    between atoms: C_10  and  C_11
REMARK    5  A    between atoms: C_10  and  C_12
REMARK    6  A    between atoms: C_12  and  N_13
REMARK    7  A    between atoms: CA_17  and  C_18
REMARK    8  A    between atoms: C_18  and  OXT_20
REMARK    9  A    between atoms: C_25  and  C_26
REMARK                            x       y       z     vdW  Elec       q    Type
REMARK                         _______ _______ _______ _____ _____    ______ ____
ROOT
ATOM      1  C   UNL     1      49.475   7.241  13.354  0.00  0.00    +0.000 C 
ATOM      2  C   UNL     1      50.175   8.053  12.255  0.00  0.00    +0.000 C 
ENDROOT
BRANCH   1   7
ATOM      3  C   UNL     1      45.850   6.000  12.766  0.00  0.00    +0.000 A 
ATOM      4  C   UNL     1      45.192   7.237  12.745  0.00  0.00    +0.000 A 
ATOM      5  C   UNL     1      45.888   8.444  12.862  0.00  0.00    +0.000 A 
ATOM      6  C   UNL     1      47.271   8.442  13.021  0.00  0.00    +0.000 A 
ATOM      7  C   UNL     1      47.976   7.235  13.049  0.00  0.00    +0.000 A 
ATOM      8  C   UNL     1      47.247   6.037  12.901  0.00  0.00    +0.000 A 
BRANCH   3  12
ATOM      9  C   UNL     1      42.287   5.759  11.602  0.00  0.00    +0.000 C 
ATOM     10  C   UNL     1      42.713   4.438  12.239  0.00  0.00    +0.000 C 
ATOM     11  C   UNL     1      43.838   4.590  13.285  0.00  0.00    +0.000 C 
ATOM     12  N   UNL     1      45.144   4.817  12.651  0.00  0.00    +0.000 N 
ATOM     13  C   UNL     1      45.471   3.843  11.594  0.00  0.00    +0.000 C 
ATOM     14  C   UNL     1      44.304   3.742  10.584  0.00  0.00    +0.000 C 
ATOM     15  C   UNL     1      44.556   2.624   9.578  0.00  0.00    +0.000 C 
ATOM     16  O   UNL     1      43.051   3.460  11.235  0.00  0.00    +0.000 OA
ENDBRANCH   3  12
ENDBRANCH   1   7
BRANCH   1  17
ATOM     17  C   UNL     1      49.815   7.762  14.774  0.00  0.00    +0.000 C 
BRANCH  17  18
ATOM     18  N   UNL     1      50.790   6.907  15.471  0.00  0.00    +0.000 N 
ATOM     19  C   UNL     1      50.242   6.241  16.590  0.00  0.00    +0.000 A 
ATOM     20  C   UNL     1      51.070   5.456  17.406  0.00  0.00    +0.000 A 
ATOM     21  N   UNL     1      50.653   4.806  18.528  0.00  0.00    +0.000 NA
ATOM     22  CA  UNL     1      49.323   4.959  18.789  0.00  0.00    +0.000 A 
ATOM     23  C   UNL     1      48.480   5.700  17.984  0.00  0.00    +0.000 A 
ATOM     24  N   UNL     1      48.924   6.349  16.878  0.00  0.00    +0.000 NA
ATOM     25  H   UNL     1      51.591   7.441  15.798  0.00  0.00    +0.000 HD
BRANCH  22  26
ATOM     26  C   UNL     1      48.806   4.305  20.014  0.00  0.00    +0.000 C 
ATOM     27  O   UNL     1      48.853   4.791  21.130  0.00  0.00    +0.000 OA
BRANCH  26  28
ATOM     28  OXT UNL     1      48.288   3.087  19.726  0.00  0.00    +0.000 OA
ATOM     29  HXT UNL     1      47.711   3.157  18.930  0.00  0.00    +0.000 HD
ENDBRANCH  26  28
ENDBRANCH  22  26
ENDBRANCH  17  18
ENDBRANCH   1  17
TORSDOF 6
ENDMDL
