MODEL 1
REMARK VINA RESULT:    -7.295      0.000      0.000
REMARK INTER + INTRA:         -11.886
REMARK INTER:                 -10.707
REMARK INTRA:                  -1.179
REMARK UNBOUND:                -1.179
REMARK  Name = 
REMARK  9 active torsions:
REMARK  status: ('A' for Active; 'I' for Inactive)
REMARK    1  A    between atoms: N_1  and  C_2
REMARK    2  A    between atoms: C_6  and  C_7
REMARK    3  A    between atoms: C_7  and  C_8
REMARK    4  A    between atoms: C_11  and  C_12
REMARK    5  A    between atoms: C_12  and  N_13
REMARK    6  A    between atoms: N_13  and  C_14
REMARK    7  A    between atoms: C_14  and  C_15
REMARK    8  A    between atoms: C_15  and  O_16
REMARK    9  A    between atoms: C_17  and  C_19
REMARK                            x       y       z     vdW  Elec       q    Type
REMARK                         _______ _______ _______ _____ _____    ______ ____
ROOT
ATOM      1  N   UNL     1      48.074   5.530  16.017  0.00  0.00    +0.000 N 
ATOM      2  C   UNL     1      48.769   6.652  16.518  0.00  0.00    +0.000 C 
ATOM      3  O   UNL     1      49.352   7.424  15.763  0.00  0.00    +0.000 OA
ENDROOT
BRANCH   2   4
ATOM      4  C   UNL     1      48.807   6.912  17.974  0.00  0.00    +0.000 A 
ATOM      5  C   UNL     1      47.994   7.816  18.637  0.00  0.00    +0.000 A 
ATOM      6  S   UNL     1      48.218   7.831  20.331  0.00  0.00    +0.000 S 
ATOM      7  C   UNL     1      49.311   6.530  20.249  0.00  0.00    +0.000 A 
ATOM      8  N   UNL     1      49.807   5.958  21.378  0.00  0.00    +0.000 NA
ATOM      9  C   UNL     1      50.575   4.945  21.165  0.00  0.00    +0.000 A 
ATOM     10  N   UNL     1      50.928   4.479  19.919  0.00  0.00    +0.000 N 
ATOM     11  C   UNL     1      50.569   5.115  18.754  0.00  0.00    +0.000 A 
ATOM     12  O   UNL     1      51.113   4.841  17.690  0.00  0.00    +0.000 OA
ATOM     13  C   UNL     1      49.587   6.171  18.941  0.00  0.00    +0.000 A 
ATOM     14  H   UNL     1      51.600   3.731  19.824  0.00  0.00    +0.000 HD
ENDBRANCH   2   4
BRANCH   1  15
ATOM     15  C   UNL     1      48.065   5.371  14.557  0.00  0.00    +0.000 C 
BRANCH  15  19
ATOM     16  C   UNL     1      44.963   3.984  11.986  0.00  0.00    +0.000 A 
ATOM     17  C   UNL     1      44.988   5.334  12.321  0.00  0.00    +0.000 A 
ATOM     18  C   UNL     1      45.911   5.784  13.274  0.00  0.00    +0.000 A 
ATOM     19  C   UNL     1      46.804   4.887  13.868  0.00  0.00    +0.000 A 
ATOM     20  C   UNL     1      46.612   3.541  13.567  0.00  0.00    +0.000 A 
ATOM     21  N   UNL     1      45.724   3.075  12.645  0.00  0.00    +0.000 NA
BRANCH  16  22
ATOM     22  C   UNL     1      44.194   3.512  10.764  0.00  0.00    +0.000 C 
BRANCH  22  27
ATOM     23  C   UNL     1      46.172   1.763   8.008  0.00  0.00    +0.000 A 
ATOM     24  C   UNL     1      46.647   2.857   7.281  0.00  0.00    +0.000 A 
ATOM     25  C   UNL     1      46.270   4.156   7.627  0.00  0.00    +0.000 A 
ATOM     26  C   UNL     1      45.446   4.375   8.732  0.00  0.00    +0.000 A 
ATOM     27  C   UNL     1      44.998   3.293   9.504  0.00  0.00    +0.000 A 
ATOM     28  C   UNL     1      45.392   1.997   9.143  0.00  0.00    +0.000 A 
BRANCH  23  29
ATOM     29  N   UNL     1      46.668   0.474   7.749  0.00  0.00    +0.000 N 
ATOM     30  H   UNL     1      47.632   0.463   7.456  0.00  0.00    +0.000 HD
ATOM     31  H   UNL     1      46.066  -0.061   7.130  0.00  0.00    +0.000 HD
ENDBRANCH  23  29
ENDBRANCH  22  27
ENDBRANCH  16  22
ENDBRANCH  15  19
ENDBRANCH   1  15
BRANCH   1  32
ATOM     32  C   UNL     1      47.203   4.691  16.867  0.00  0.00    +0.000 C 
BRANCH  32  33
ATOM     33  C   UNL     1      47.640   3.271  17.245  0.00  0.00    +0.000 C 
BRANCH  33  34
ATOM     34  O   UNL     1      46.558   2.545  17.812  0.00  0.00    +0.000 OA
ATOM     35  H   UNL     1      46.110   2.083  17.082  0.00  0.00    +0.000 HD
ENDBRANCH  33  34
ENDBRANCH  32  33
ENDBRANCH   1  32
TORSDOF 9
ENDMDL
MODEL 2
REMARK VINA RESULT:    -7.268      1.311      1.847
REMARK INTER + INTRA:         -11.846
REMARK INTER:                 -10.824
REMARK INTRA:                  -1.022
REMARK UNBOUND:                -1.179
REMARK  Name = 
REMARK  9 active torsions:
REMARK  status: ('A' for Active; 'I' for Inactive)
REMARK    1  A    between atoms: N_1  and  C_2
REMARK    2  A    between atoms: C_6  and  C_7
REMARK    3  A    between atoms: C_7  and  C_8
REMARK    4  A    between atoms: C_11  and  C_12
REMARK    5  A    between atoms: C_12  and  N_13
REMARK    6  A    between atoms: N_13  and  C_14
REMARK    7  A    between atoms: C_14  and  C_15
REMARK    8  A    between atoms: C_15  and  O_16
REMARK    9  A    between atoms: C_17  and  C_19
REMARK                            x       y       z     vdW  Elec       q    Type
REMARK                         _______ _______ _______ _____ _____    ______ ____
ROOT
ATOM      1  N   UNL     1      48.172   5.510  15.691  0.00  0.00    +0.000 N 
ATOM      2  C   UNL     1      49.420   6.047  16.072  0.00  0.00    +0.000 C 
ATOM      3  O   UNL     1      50.047   6.789  15.321  0.00  0.00    +0.000 OA
ENDROOT
BRANCH   2   4
ATOM      4  C   UNL     1      49.997   5.717  17.394  0.00  0.00    +0.000 A 
ATOM      5  C   UNL     1      50.913   4.704  17.627  0.00  0.00    +0.000 A 
ATOM      6  S   UNL     1      51.455   4.623  19.245  0.00  0.00    +0.000 S 
ATOM      7  C   UNL     1      50.588   6.027  19.659  0.00  0.00    +0.000 A 
ATOM      8  N   UNL     1      50.705   6.586  20.894  0.00  0.00    +0.000 NA
ATOM      9  C   UNL     1      50.038   7.678  21.045  0.00  0.00    +0.000 A 
ATOM     10  N   UNL     1      49.228   8.240  20.086  0.00  0.00    +0.000 N 
ATOM     11  C   UNL     1      48.966   7.634  18.879  0.00  0.00    +0.000 A 
ATOM     12  O   UNL     1      48.044   8.014  18.167  0.00  0.00    +0.000 OA
ATOM     13  C   UNL     1      49.808   6.479  18.610  0.00  0.00    +0.000 A 
ATOM     14  H   UNL     1      48.670   9.054  20.300  0.00  0.00    +0.000 HD
ENDBRANCH   2   4
BRANCH   1  15
ATOM     15  C   UNL     1      47.665   5.919  14.374  0.00  0.00    +0.000 C 
BRANCH  15  19
ATOM     16  C   UNL     1      44.844   3.846  11.944  0.00  0.00    +0.000 A 
ATOM     17  C   UNL     1      44.560   5.156  12.315  0.00  0.00    +0.000 A 
ATOM     18  C   UNL     1      45.400   5.806  13.227  0.00  0.00    +0.000 A 
ATOM     19  C   UNL     1      46.521   5.148  13.744  0.00  0.00    +0.000 A 
ATOM     20  C   UNL     1      46.647   3.801  13.416  0.00  0.00    +0.000 A 
ATOM     21  N   UNL     1      45.844   3.143  12.533  0.00  0.00    +0.000 NA
BRANCH  16  22
ATOM     22  C   UNL     1      44.141   3.215  10.754  0.00  0.00    +0.000 C 
BRANCH  22  27
ATOM     23  C   UNL     1      46.197   1.693   7.923  0.00  0.00    +0.000 A 
ATOM     24  C   UNL     1      46.598   2.840   7.233  0.00  0.00    +0.000 A 
ATOM     25  C   UNL     1      46.146   4.100   7.630  0.00  0.00    +0.000 A 
ATOM     26  C   UNL     1      45.320   4.228   8.748  0.00  0.00    +0.000 A 
ATOM     27  C   UNL     1      44.946   3.093   9.482  0.00  0.00    +0.000 A 
ATOM     28  C   UNL     1      45.414   1.838   9.070  0.00  0.00    +0.000 A 
BRANCH  23  29
ATOM     29  N   UNL     1      46.769   0.448   7.613  0.00  0.00    +0.000 N 
ATOM     30  H   UNL     1      46.109  -0.313   7.619  0.00  0.00    +0.000 HD
ATOM     31  H   UNL     1      47.599   0.249   8.165  0.00  0.00    +0.000 HD
ENDBRANCH  23  29
ENDBRANCH  22  27
ENDBRANCH  16  22
ENDBRANCH  15  19
ENDBRANCH   1  15
BRANCH   1  32
ATOM     32  C   UNL     1      47.301   4.777  16.633  0.00  0.00    +0.000 C 
BRANCH  32  33
ATOM     33  C   UNL     1      47.525   3.279  16.875  0.00  0.00    +0.000 C 
BRANCH  33  34
ATOM     34  O   UNL     1      46.541   2.759  17.759  0.00  0.00    +0.000 OA
ATOM     35  H   UNL     1      46.342   1.854  17.465  0.00  0.00    +0.000 HD
ENDBRANCH  33  34
ENDBRANCH  32  33
ENDBRANCH   1  32
TORSDOF 9
ENDMDL
MODEL 3
REMARK VINA RESULT:    -7.238      2.920      4.489
REMARK INTER + INTRA:         -11.803
REMARK INTER:                 -10.532
REMARK INTRA:                  -1.271
REMARK UNBOUND:                -1.179
REMARK  Name = 
REMARK  9 active torsions:
REMARK  status: ('A' for Active; 'I' for Inactive)
REMARK    1  A    between atoms: N_1  and  C_2
REMARK    2  A    between atoms: C_6  and  C_7
REMARK    3  A    between atoms: C_7  and  C_8
REMARK    4  A    between atoms: C_11  and  C_12
REMARK    5  A    between atoms: C_12  and  N_13
REMARK    6  A    between atoms: N_13  and  C_14
REMARK    7  A    between atoms: C_14  and  C_15
REMARK    8  A    between atoms: C_15  and  O_16
REMARK    9  A    between atoms: C_17  and  C_19
REMARK                            x       y       z     vdW  Elec       q    Type
REMARK                         _______ _______ _______ _____ _____    ______ ____
ROOT
ATOM      1  N   UNL     1      50.223   5.240  18.179  0.00  0.00    +0.000 N 
ATOM      2  C   UNL     1      51.380   5.116  17.381  0.00  0.00    +0.000 C 
ATOM      3  O   UNL     1      51.502   5.754  16.338  0.00  0.00    +0.000 OA
ENDROOT
BRANCH   2   4
ATOM      4  C   UNL     1      52.470   4.204  17.790  0.00  0.00    +0.000 A 
ATOM      5  C   UNL     1      53.669   4.606  18.357  0.00  0.00    +0.000 A 
ATOM      6  S   UNL     1      54.692   3.311  18.799  0.00  0.00    +0.000 S 
ATOM      7  C   UNL     1      53.509   2.165  18.374  0.00  0.00    +0.000 A 
ATOM      8  N   UNL     1      53.700   0.839  18.611  0.00  0.00    +0.000 NA
ATOM      9  C   UNL     1      52.696   0.096  18.294  0.00  0.00    +0.000 A 
ATOM     10  N   UNL     1      51.534   0.554  17.719  0.00  0.00    +0.000 N 
ATOM     11  C   UNL     1      51.357   1.861  17.327  0.00  0.00    +0.000 A 
ATOM     12  O   UNL     1      50.437   2.180  16.583  0.00  0.00    +0.000 OA
ATOM     13  C   UNL     1      52.400   2.758  17.797  0.00  0.00    +0.000 A 
ATOM     14  H   UNL     1      50.820  -0.096  17.420  0.00  0.00    +0.000 HD
ENDBRANCH   2   4
BRANCH   1  15
ATOM     15  C   UNL     1      49.210   6.193  17.709  0.00  0.00    +0.000 C 
BRANCH  15  19
ATOM     16  C   UNL     1      46.983   4.504  14.491  0.00  0.00    +0.000 A 
ATOM     17  C   UNL     1      47.551   5.761  14.313  0.00  0.00    +0.000 A 
ATOM     18  C   UNL     1      48.164   6.395  15.401  0.00  0.00    +0.000 A 
ATOM     19  C   UNL     1      48.217   5.761  16.647  0.00  0.00    +0.000 A 
ATOM     20  C   UNL     1      47.507   4.568  16.758  0.00  0.00    +0.000 A 
ATOM     21  N   UNL     1      46.902   3.930  15.718  0.00  0.00    +0.000 NA
BRANCH  16  22
ATOM     22  C   UNL     1      46.577   3.668  13.290  0.00  0.00    +0.000 C 
BRANCH  22  27
ATOM     23  C   UNL     1      44.025   4.361  10.538  0.00  0.00    +0.000 A 
ATOM     24  C   UNL     1      42.985   4.937  11.273  0.00  0.00    +0.000 A 
ATOM     25  C   UNL     1      43.069   5.034  12.664  0.00  0.00    +0.000 A 
ATOM     26  C   UNL     1      44.214   4.593  13.329  0.00  0.00    +0.000 A 
ATOM     27  C   UNL     1      45.288   4.055  12.604  0.00  0.00    +0.000 A 
ATOM     28  C   UNL     1      45.186   3.971  11.209  0.00  0.00    +0.000 A 
BRANCH  23  29
ATOM     29  N   UNL     1      44.001   4.399   9.134  0.00  0.00    +0.000 N 
ATOM     30  H   UNL     1      44.733   3.856   8.703  0.00  0.00    +0.000 HD
ATOM     31  H   UNL     1      43.950   5.345   8.768  0.00  0.00    +0.000 HD
ENDBRANCH  23  29
ENDBRANCH  22  27
ENDBRANCH  16  22
ENDBRANCH  15  19
ENDBRANCH   1  15
BRANCH   1  32
ATOM     32  C   UNL     1      50.122   4.644  19.528  0.00  0.00    +0.000 C 
BRANCH  32  33
ATOM     33  C   UNL     1      48.775   4.632  20.260  0.00  0.00    +0.000 C 
BRANCH  33  34
ATOM     34  O   UNL     1      48.252   3.312  20.332  0.00  0.00    +0.000 OA
ATOM     35  H   UNL     1      47.340   3.383  20.662  0.00  0.00    +0.000 HD
ENDBRANCH  33  34
ENDBRANCH  32  33
ENDBRANCH   1  32
TORSDOF 9
ENDMDL
MODEL 4
REMARK VINA RESULT:    -7.145      3.986      5.376
REMARK INTER + INTRA:         -11.665
REMARK INTER:                 -10.605
REMARK INTRA:                  -1.060
REMARK UNBOUND:                -1.179
REMARK  Name = 
REMARK  9 active torsions:
REMARK  status: ('A' for Active; 'I' for Inactive)
REMARK    1  A    between atoms: N_1  and  C_2
REMARK    2  A    between atoms: C_6  and  C_7
REMARK    3  A    between atoms: C_7  and  C_8
REMARK    4  A    between atoms: C_11  and  C_12
REMARK    5  A    between atoms: C_12  and  N_13
REMARK    6  A    between atoms: N_13  and  C_14
REMARK    7  A    between atoms: C_14  and  C_15
REMARK    8  A    between atoms: C_15  and  O_16
REMARK    9  A    between atoms: C_17  and  C_19
REMARK                            x       y       z     vdW  Elec       q    Type
REMARK                         _______ _______ _______ _____ _____    ______ ____
ROOT
ATOM      1  N   UNL     1      46.508   7.368  13.281  0.00  0.00    +0.000 N 
ATOM      2  C   UNL     1      47.687   6.809  13.817  0.00  0.00    +0.000 C 
ATOM      3  O   UNL     1      47.763   5.610  14.068  0.00  0.00    +0.000 OA
ENDROOT
BRANCH   2   4
ATOM      4  C   UNL     1      48.859   7.671  14.089  0.00  0.00    +0.000 A 
ATOM      5  C   UNL     1      49.168   8.219  15.324  0.00  0.00    +0.000 A 
ATOM      6  S   UNL     1      50.631   9.101  15.340  0.00  0.00    +0.000 S 
ATOM      7  C   UNL     1      50.970   8.664  13.731  0.00  0.00    +0.000 A 
ATOM      8  N   UNL     1      52.152   9.001  13.147  0.00  0.00    +0.000 NA
ATOM      9  C   UNL     1      52.296   8.552  11.948  0.00  0.00    +0.000 A 
ATOM     10  N   UNL     1      51.345   7.832  11.262  0.00  0.00    +0.000 N 
ATOM     11  C   UNL     1      50.084   7.596  11.758  0.00  0.00    +0.000 A 
ATOM     12  O   UNL     1      49.183   7.197  11.030  0.00  0.00    +0.000 OA
ATOM     13  C   UNL     1      49.929   7.956  13.158  0.00  0.00    +0.000 A 
ATOM     14  H   UNL     1      51.492   7.582  10.294  0.00  0.00    +0.000 HD
ENDBRANCH   2   4
BRANCH   1  15
ATOM     15  C   UNL     1      45.409   6.431  13.014  0.00  0.00    +0.000 C 
BRANCH  15  19
ATOM     16  C   UNL     1      44.574   4.661   9.228  0.00  0.00    +0.000 A 
ATOM     17  C   UNL     1      45.830   5.225   9.431  0.00  0.00    +0.000 A 
ATOM     18  C   UNL     1      46.077   5.936  10.613  0.00  0.00    +0.000 A 
ATOM     19  C   UNL     1      45.076   6.061  11.582  0.00  0.00    +0.000 A 
ATOM     20  C   UNL     1      43.818   5.578  11.230  0.00  0.00    +0.000 A 
ATOM     21  N   UNL     1      43.549   4.884  10.089  0.00  0.00    +0.000 NA
BRANCH  16  22
ATOM     22  C   UNL     1      44.359   3.651   8.115  0.00  0.00    +0.000 C 
BRANCH  22  27
ATOM     23  C   UNL     1      47.467   2.466   6.244  0.00  0.00    +0.000 A 
ATOM     24  C   UNL     1      47.674   1.215   6.830  0.00  0.00    +0.000 A 
ATOM     25  C   UNL     1      46.864   0.781   7.880  0.00  0.00    +0.000 A 
ATOM     26  C   UNL     1      45.809   1.579   8.327  0.00  0.00    +0.000 A 
ATOM     27  C   UNL     1      45.555   2.818   7.720  0.00  0.00    +0.000 A 
ATOM     28  C   UNL     1      46.378   3.233   6.664  0.00  0.00    +0.000 A 
BRANCH  23  29
ATOM     29  N   UNL     1      48.187   2.836   5.095  0.00  0.00    +0.000 N 
ATOM     30  H   UNL     1      47.602   3.046   4.302  0.00  0.00    +0.000 HD
ATOM     31  H   UNL     1      48.929   2.180   4.870  0.00  0.00    +0.000 HD
ENDBRANCH  23  29
ENDBRANCH  22  27
ENDBRANCH  16  22
ENDBRANCH  15  19
ENDBRANCH   1  15
BRANCH   1  32
ATOM     32  C   UNL     1      46.442   8.759  12.786  0.00  0.00    +0.000 C 
BRANCH  32  33
ATOM     33  C   UNL     1      45.156   9.279  12.132  0.00  0.00    +0.000 C 
BRANCH  33  34
ATOM     34  O   UNL     1      44.962  10.656  12.428  0.00  0.00    +0.000 OA
ATOM     35  H   UNL     1      44.179  10.718  13.003  0.00  0.00    +0.000 HD
ENDBRANCH  33  34
ENDBRANCH  32  33
ENDBRANCH   1  32
TORSDOF 9
ENDMDL
MODEL 5
REMARK VINA RESULT:    -6.972      1.156      2.039
REMARK INTER + INTRA:         -11.412
REMARK INTER:                 -10.547
REMARK INTRA:                  -0.865
REMARK UNBOUND:                -1.179
REMARK  Name = 
REMARK  9 active torsions:
REMARK  status: ('A' for Active; 'I' for Inactive)
REMARK    1  A    between atoms: N_1  and  C_2
REMARK    2  A    between atoms: C_6  and  C_7
REMARK    3  A    between atoms: C_7  and  C_8
REMARK    4  A    between atoms: C_11  and  C_12
REMARK    5  A    between atoms: C_12  and  N_13
REMARK    6  A    between atoms: N_13  and  C_14
REMARK    7  A    between atoms: C_14  and  C_15
REMARK    8  A    between atoms: C_15  and  O_16
REMARK    9  A    between atoms: C_17  and  C_19
REMARK                            x       y       z     vdW  Elec       q    Type
REMARK                         _______ _______ _______ _____ _____    ______ ____
ROOT
ATOM      1  N   UNL     1      48.302   6.189  15.726  0.00  0.00    +0.000 N 
ATOM      2  C   UNL     1      48.363   5.147  16.676  0.00  0.00    +0.000 C 
ATOM      3  O   UNL     1      48.380   3.970  16.326  0.00  0.00    +0.000 OA
ENDROOT
BRANCH   2   4
ATOM      4  C   UNL     1      48.402   5.463  18.121  0.00  0.00    +0.000 A 
ATOM      5  C   UNL     1      47.318   5.897  18.866  0.00  0.00    +0.000 A 
ATOM      6  S   UNL     1      47.660   6.098  20.528  0.00  0.00    +0.000 S 
ATOM      7  C   UNL     1      49.232   5.479  20.331  0.00  0.00    +0.000 A 
ATOM      8  N   UNL     1      50.043   5.270  21.403  0.00  0.00    +0.000 NA
ATOM      9  C   UNL     1      51.180   4.741  21.110  0.00  0.00    +0.000 A 
ATOM     10  N   UNL     1      51.600   4.443  19.834  0.00  0.00    +0.000 N 
ATOM     11  C   UNL     1      50.875   4.772  18.712  0.00  0.00    +0.000 A 
ATOM     12  O   UNL     1      51.385   4.742  17.599  0.00  0.00    +0.000 OA
ATOM     13  C   UNL     1      49.527   5.235  19.002  0.00  0.00    +0.000 A 
ATOM     14  H   UNL     1      52.538   4.105  19.669  0.00  0.00    +0.000 HD
ENDBRANCH   2   4
BRANCH   1  15
ATOM     15  C   UNL     1      48.297   5.780  14.315  0.00  0.00    +0.000 C 
BRANCH  15  19
ATOM     16  C   UNL     1      45.119   4.232  11.935  0.00  0.00    +0.000 A 
ATOM     17  C   UNL     1      45.266   5.613  12.023  0.00  0.00    +0.000 A 
ATOM     18  C   UNL     1      46.212   6.144  12.910  0.00  0.00    +0.000 A 
ATOM     19  C   UNL     1      47.008   5.294  13.684  0.00  0.00    +0.000 A 
ATOM     20  C   UNL     1      46.695   3.938  13.623  0.00  0.00    +0.000 A 
ATOM     21  N   UNL     1      45.781   3.394  12.771  0.00  0.00    +0.000 NA
BRANCH  16  22
ATOM     22  C   UNL     1      44.328   3.617  10.794  0.00  0.00    +0.000 C 
BRANCH  22  27
ATOM     23  C   UNL     1      46.169   1.755   8.018  0.00  0.00    +0.000 A 
ATOM     24  C   UNL     1      46.653   2.820   7.253  0.00  0.00    +0.000 A 
ATOM     25  C   UNL     1      46.325   4.136   7.583  0.00  0.00    +0.000 A 
ATOM     26  C   UNL     1      45.542   4.402   8.708  0.00  0.00    +0.000 A 
ATOM     27  C   UNL     1      45.087   3.349   9.516  0.00  0.00    +0.000 A 
ATOM     28  C   UNL     1      45.431   2.035   9.169  0.00  0.00    +0.000 A 
BRANCH  23  29
ATOM     29  N   UNL     1      46.620   0.447   7.771  0.00  0.00    +0.000 N 
ATOM     30  H   UNL     1      46.279  -0.230   8.434  0.00  0.00    +0.000 HD
ATOM     31  H   UNL     1      47.626   0.397   7.644  0.00  0.00    +0.000 HD
ENDBRANCH  23  29
ENDBRANCH  22  27
ENDBRANCH  16  22
ENDBRANCH  15  19
ENDBRANCH   1  15
BRANCH   1  32
ATOM     32  C   UNL     1      48.474   7.610  16.093  0.00  0.00    +0.000 C 
BRANCH  32  33
ATOM     33  C   UNL     1      48.395   8.695  15.012  0.00  0.00    +0.000 C 
BRANCH  33  34
ATOM     34  O   UNL     1      47.043   9.043  14.746  0.00  0.00    +0.000 OA
ATOM     35  H   UNL     1      46.953   9.123  13.780  0.00  0.00    +0.000 HD
ENDBRANCH  33  34
ENDBRANCH  32  33
ENDBRANCH   1  32
TORSDOF 9
ENDMDL
MODEL 6
REMARK VINA RESULT:    -6.733      4.190      5.335
REMARK INTER + INTRA:         -11.061
REMARK INTER:                  -9.721
REMARK INTRA:                  -1.340
REMARK UNBOUND:                -1.179
REMARK  Name = 
REMARK  9 active torsions:
REMARK  status: ('A' for Active; 'I' for Inactive)
REMARK    1  A    between atoms: N_1  and  C_2
REMARK    2  A    between atoms: C_6  and  C_7
REMARK    3  A    between atoms: C_7  and  C_8
REMARK    4  A    between atoms: C_11  and  C_12
REMARK    5  A    between atoms: C_12  and  N_13
REMARK    6  A    between atoms: N_13  and  C_14
REMARK    7  A    between atoms: C_14  and  C_15
REMARK    8  A    between atoms: C_15  and  O_16
REMARK    9  A    between atoms: C_17  and  C_19
REMARK                            x       y       z     vdW  Elec       q    Type
REMARK                         _______ _______ _______ _____ _____    ______ ____
ROOT
ATOM      1  N   UNL     1      46.970   8.519  13.272  0.00  0.00    +0.000 N 
ATOM      2  C   UNL     1      47.424   9.622  12.518  0.00  0.00    +0.000 C 
ATOM      3  O   UNL     1      46.736  10.102  11.620  0.00  0.00    +0.000 OA
ENDROOT
BRANCH   2   4
ATOM      4  C   UNL     1      48.748  10.219  12.799  0.00  0.00    +0.000 A 
ATOM      5  C   UNL     1      48.953  11.394  13.503  0.00  0.00    +0.000 A 
ATOM      6  S   UNL     1      50.601  11.780  13.735  0.00  0.00    +0.000 S 
ATOM      7  C   UNL     1      51.096  10.318  13.022  0.00  0.00    +0.000 A 
ATOM      8  N   UNL     1      52.408   9.956  13.000  0.00  0.00    +0.000 NA
ATOM      9  C   UNL     1      52.628   8.797  12.483  0.00  0.00    +0.000 A 
ATOM     10  N   UNL     1      51.658   7.983  11.944  0.00  0.00    +0.000 N 
ATOM     11  C   UNL     1      50.345   8.370  11.813  0.00  0.00    +0.000 A 
ATOM     12  O   UNL     1      49.571   7.747  11.096  0.00  0.00    +0.000 OA
ATOM     13  C   UNL     1      50.026   9.604  12.512  0.00  0.00    +0.000 A 
ATOM     14  H   UNL     1      51.912   7.122  11.481  0.00  0.00    +0.000 HD
ENDBRANCH   2   4
BRANCH   1  15
ATOM     15  C   UNL     1      45.630   8.015  12.942  0.00  0.00    +0.000 C 
BRANCH  15  19
ATOM     16  C   UNL     1      44.824   4.821  10.238  0.00  0.00    +0.000 A 
ATOM     17  C   UNL     1      44.082   4.895  11.413  0.00  0.00    +0.000 A 
ATOM     18  C   UNL     1      44.426   5.850  12.379  0.00  0.00    +0.000 A 
ATOM     19  C   UNL     1      45.492   6.727  12.155  0.00  0.00    +0.000 A 
ATOM     20  C   UNL     1      46.253   6.487  11.014  0.00  0.00    +0.000 A 
ATOM     21  N   UNL     1      45.943   5.567  10.058  0.00  0.00    +0.000 NA
BRANCH  16  22
ATOM     22  C   UNL     1      44.312   4.015   9.058  0.00  0.00    +0.000 C 
BRANCH  22  27
ATOM     23  C   UNL     1      46.909   2.782   6.548  0.00  0.00    +0.000 A 
ATOM     24  C   UNL     1      47.046   1.446   6.935  0.00  0.00    +0.000 A 
ATOM     25  C   UNL     1      46.363   0.957   8.050  0.00  0.00    +0.000 A 
ATOM     26  C   UNL     1      45.502   1.792   8.766  0.00  0.00    +0.000 A 
ATOM     27  C   UNL     1      45.315   3.123   8.365  0.00  0.00    +0.000 A 
ATOM     28  C   UNL     1      46.007   3.593   7.239  0.00  0.00    +0.000 A 
BRANCH  23  29
ATOM     29  N   UNL     1      47.480   3.230   5.345  0.00  0.00    +0.000 N 
ATOM     30  H   UNL     1      47.094   4.099   5.013  0.00  0.00    +0.000 HD
ATOM     31  H   UNL     1      47.497   2.511   4.627  0.00  0.00    +0.000 HD
ENDBRANCH  23  29
ENDBRANCH  22  27
ENDBRANCH  16  22
ENDBRANCH  15  19
ENDBRANCH   1  15
BRANCH   1  32
ATOM     32  C   UNL     1      47.674   8.039  14.479  0.00  0.00    +0.000 C 
BRANCH  32  33
ATOM     33  C   UNL     1      48.342   6.659  14.477  0.00  0.00    +0.000 C 
BRANCH  33  34
ATOM     34  O   UNL     1      47.437   5.661  14.931  0.00  0.00    +0.000 OA
ATOM     35  H   UNL     1      47.640   4.846  14.440  0.00  0.00    +0.000 HD
ENDBRANCH  33  34
ENDBRANCH  32  33
ENDBRANCH   1  32
TORSDOF 9
ENDMDL
MODEL 7
REMARK VINA RESULT:    -6.720      2.940      4.774
REMARK INTER + INTRA:         -11.041
REMARK INTER:                  -9.665
REMARK INTRA:                  -1.376
REMARK UNBOUND:                -1.179
REMARK  Name = 
REMARK  9 active torsions:
REMARK  status: ('A' for Active; 'I' for Inactive)
REMARK    1  A    between atoms: N_1  and  C_2
REMARK    2  A    between atoms: C_6  and  C_7
REMARK    3  A    between atoms: C_7  and  C_8
REMARK    4  A    between atoms: C_11  and  C_12
REMARK    5  A    between atoms: C_12  and  N_13
REMARK    6  A    between atoms: N_13  and  C_14
REMARK    7  A    between atoms: C_14  and  C_15
REMARK    8  A    between atoms: C_15  and  O_16
REMARK    9  A    between atoms: C_17  and  C_19
REMARK                            x       y       z     vdW  Elec       q    Type
REMARK                         _______ _______ _______ _____ _____    ______ ____
ROOT
ATOM      1  N   UNL     1      50.658   5.850  17.492  0.00  0.00    +0.000 N 
ATOM      2  C   UNL     1      50.739   4.850  18.485  0.00  0.00    +0.000 C 
ATOM      3  O   UNL     1      49.785   4.610  19.221  0.00  0.00    +0.000 OA
ENDROOT
BRANCH   2   4
ATOM      4  C   UNL     1      51.987   4.075  18.658  0.00  0.00    +0.000 A 
ATOM      5  C   UNL     1      53.068   4.476  19.427  0.00  0.00    +0.000 A 
ATOM      6  S   UNL     1      54.329   3.326  19.496  0.00  0.00    +0.000 S 
ATOM      7  C   UNL     1      53.415   2.195  18.613  0.00  0.00    +0.000 A 
ATOM      8  N   UNL     1      53.871   0.930  18.409  0.00  0.00    +0.000 NA
ATOM      9  C   UNL     1      53.048   0.167  17.778  0.00  0.00    +0.000 A 
ATOM     10  N   UNL     1      51.825   0.567  17.291  0.00  0.00    +0.000 N 
ATOM     11  C   UNL     1      51.388   1.870  17.345  0.00  0.00    +0.000 A 
ATOM     12  O   UNL     1      50.434   2.247  16.675  0.00  0.00    +0.000 OA
ATOM     13  C   UNL     1      52.217   2.730  18.175  0.00  0.00    +0.000 A 
ATOM     14  H   UNL     1      51.265  -0.062  16.733  0.00  0.00    +0.000 HD
ENDBRANCH   2   4
BRANCH   1  15
ATOM     15  C   UNL     1      49.370   6.544  17.374  0.00  0.00    +0.000 C 
BRANCH  15  19
ATOM     16  C   UNL     1      47.035   4.644  14.358  0.00  0.00    +0.000 A 
ATOM     17  C   UNL     1      47.592   5.886  14.076  0.00  0.00    +0.000 A 
ATOM     18  C   UNL     1      48.242   6.592  15.097  0.00  0.00    +0.000 A 
ATOM     19  C   UNL     1      48.341   6.043  16.380  0.00  0.00    +0.000 A 
ATOM     20  C   UNL     1      47.639   4.859  16.595  0.00  0.00    +0.000 A 
ATOM     21  N   UNL     1      46.999   4.153  15.622  0.00  0.00    +0.000 NA
BRANCH  16  22
ATOM     22  C   UNL     1      46.588   3.730  13.230  0.00  0.00    +0.000 C 
BRANCH  22  27
ATOM     23  C   UNL     1      44.007   4.377  10.495  0.00  0.00    +0.000 A 
ATOM     24  C   UNL     1      42.949   4.903  11.241  0.00  0.00    +0.000 A 
ATOM     25  C   UNL     1      43.032   4.980  12.632  0.00  0.00    +0.000 A 
ATOM     26  C   UNL     1      44.193   4.568  13.288  0.00  0.00    +0.000 A 
ATOM     27  C   UNL     1      45.285   4.082  12.553  0.00  0.00    +0.000 A 
ATOM     28  C   UNL     1      45.182   4.018  11.157  0.00  0.00    +0.000 A 
BRANCH  23  29
ATOM     29  N   UNL     1      43.979   4.438   9.091  0.00  0.00    +0.000 N 
ATOM     30  H   UNL     1      43.066   4.634   8.713  0.00  0.00    +0.000 HD
ATOM     31  H   UNL     1      44.416   3.631   8.655  0.00  0.00    +0.000 HD
ENDBRANCH  23  29
ENDBRANCH  22  27
ENDBRANCH  16  22
ENDBRANCH  15  19
ENDBRANCH   1  15
BRANCH   1  32
ATOM     32  C   UNL     1      51.706   6.036  16.467  0.00  0.00    +0.000 C 
BRANCH  32  33
ATOM     33  C   UNL     1      51.939   7.422  15.854  0.00  0.00    +0.000 C 
BRANCH  33  34
ATOM     34  O   UNL     1      51.536   7.444  14.491  0.00  0.00    +0.000 OA
ATOM     35  H   UNL     1      50.572   7.579  14.480  0.00  0.00    +0.000 HD
ENDBRANCH  33  34
ENDBRANCH  32  33
ENDBRANCH   1  32
TORSDOF 9
ENDMDL
MODEL 8
REMARK VINA RESULT:    -6.605      2.726      4.224
REMARK INTER + INTRA:         -10.873
REMARK INTER:                 -10.375
REMARK INTRA:                  -0.498
REMARK UNBOUND:                -1.179
REMARK  Name = 
REMARK  9 active torsions:
REMARK  status: ('A' for Active; 'I' for Inactive)
REMARK    1  A    between atoms: N_1  and  C_2
REMARK    2  A    between atoms: C_6  and  C_7
REMARK    3  A    between atoms: C_7  and  C_8
REMARK    4  A    between atoms: C_11  and  C_12
REMARK    5  A    between atoms: C_12  and  N_13
REMARK    6  A    between atoms: N_13  and  C_14
REMARK    7  A    between atoms: C_14  and  C_15
REMARK    8  A    between atoms: C_15  and  O_16
REMARK    9  A    between atoms: C_17  and  C_19
REMARK                            x       y       z     vdW  Elec       q    Type
REMARK                         _______ _______ _______ _____ _____    ______ ____
ROOT
ATOM      1  N   UNL     1      50.027   6.167  16.575  0.00  0.00    +0.000 N 
ATOM      2  C   UNL     1      49.975   5.065  17.456  0.00  0.00    +0.000 C 
ATOM      3  O   UNL     1      48.901   4.631  17.865  0.00  0.00    +0.000 OA
ENDROOT
BRANCH   2   4
ATOM      4  C   UNL     1      51.225   4.417  17.907  0.00  0.00    +0.000 A 
ATOM      5  C   UNL     1      52.200   5.028  18.679  0.00  0.00    +0.000 A 
ATOM      6  S   UNL     1      53.490   3.992  19.108  0.00  0.00    +0.000 S 
ATOM      7  C   UNL     1      52.720   2.655  18.392  0.00  0.00    +0.000 A 
ATOM      8  N   UNL     1      53.244   1.404  18.500  0.00  0.00    +0.000 NA
ATOM      9  C   UNL     1      52.524   0.481  17.962  0.00  0.00    +0.000 A 
ATOM     10  N   UNL     1      51.346   0.702  17.286  0.00  0.00    +0.000 N 
ATOM     11  C   UNL     1      50.857   1.961  17.026  0.00  0.00    +0.000 A 
ATOM     12  O   UNL     1      49.968   2.137  16.202  0.00  0.00    +0.000 OA
ATOM     13  C   UNL     1      51.557   3.018  17.737  0.00  0.00    +0.000 A 
ATOM     14  H   UNL     1      50.874  -0.059  16.817  0.00  0.00    +0.000 HD
ENDBRANCH   2   4
BRANCH   1  15
ATOM     15  C   UNL     1      48.734   6.725  16.158  0.00  0.00    +0.000 C 
BRANCH  15  19
ATOM     16  C   UNL     1      46.686   6.383  12.436  0.00  0.00    +0.000 A 
ATOM     17  C   UNL     1      46.620   5.316  13.327  0.00  0.00    +0.000 A 
ATOM     18  C   UNL     1      47.399   5.348  14.490  0.00  0.00    +0.000 A 
ATOM     19  C   UNL     1      48.220   6.448  14.758  0.00  0.00    +0.000 A 
ATOM     20  C   UNL     1      48.318   7.401  13.747  0.00  0.00    +0.000 A 
ATOM     21  N   UNL     1      47.573   7.395  12.606  0.00  0.00    +0.000 NA
BRANCH  16  22
ATOM     22  C   UNL     1      45.655   6.523  11.330  0.00  0.00    +0.000 C 
BRANCH  22  27
ATOM     23  C   UNL     1      44.029   3.106  10.833  0.00  0.00    +0.000 A 
ATOM     24  C   UNL     1      44.480   2.776   9.552  0.00  0.00    +0.000 A 
ATOM     25  C   UNL     1      45.242   3.683   8.814  0.00  0.00    +0.000 A 
ATOM     26  C   UNL     1      45.598   4.914   9.368  0.00  0.00    +0.000 A 
ATOM     27  C   UNL     1      45.196   5.244  10.671  0.00  0.00    +0.000 A 
ATOM     28  C   UNL     1      44.434   4.318  11.397  0.00  0.00    +0.000 A 
BRANCH  23  29
ATOM     29  N   UNL     1      43.390   2.139  11.627  0.00  0.00    +0.000 N 
ATOM     30  H   UNL     1      44.026   1.497  12.073  0.00  0.00    +0.000 HD
ATOM     31  H   UNL     1      42.637   1.664  11.137  0.00  0.00    +0.000 HD
ENDBRANCH  23  29
ENDBRANCH  22  27
ENDBRANCH  16  22
ENDBRANCH  15  19
ENDBRANCH   1  15
BRANCH   1  32
ATOM     32  C   UNL     1      51.276   6.594  15.912  0.00  0.00    +0.000 C 
BRANCH  32  33
ATOM     33  C   UNL     1      51.413   8.030  15.391  0.00  0.00    +0.000 C 
BRANCH  33  34
ATOM     34  O   UNL     1      51.812   8.034  14.026  0.00  0.00    +0.000 OA
ATOM     35  H   UNL     1      51.017   7.853  13.495  0.00  0.00    +0.000 HD
ENDBRANCH  33  34
ENDBRANCH  32  33
ENDBRANCH   1  32
TORSDOF 9
ENDMDL
MODEL 9
REMARK VINA RESULT:    -6.485      3.821      5.128
REMARK INTER + INTRA:         -10.697
REMARK INTER:                  -9.544
REMARK INTRA:                  -1.153
REMARK UNBOUND:                -1.179
REMARK  Name = 
REMARK  9 active torsions:
REMARK  status: ('A' for Active; 'I' for Inactive)
REMARK    1  A    between atoms: N_1  and  C_2
REMARK    2  A    between atoms: C_6  and  C_7
REMARK    3  A    between atoms: C_7  and  C_8
REMARK    4  A    between atoms: C_11  and  C_12
REMARK    5  A    between atoms: C_12  and  N_13
REMARK    6  A    between atoms: N_13  and  C_14
REMARK    7  A    between atoms: C_14  and  C_15
REMARK    8  A    between atoms: C_15  and  O_16
REMARK    9  A    between atoms: C_17  and  C_19
REMARK                            x       y       z     vdW  Elec       q    Type
REMARK                         _______ _______ _______ _____ _____    ______ ____
ROOT
ATOM      1  N   UNL     1      47.856   7.480  13.005  0.00  0.00    +0.000 N 
ATOM      2  C   UNL     1      48.477   8.474  12.219  0.00  0.00    +0.000 C 
ATOM      3  O   UNL     1      47.817   9.355  11.674  0.00  0.00    +0.000 OA
ENDROOT
BRANCH   2   4
ATOM      4  C   UNL     1      49.945   8.465  12.036  0.00  0.00    +0.000 A 
ATOM      5  C   UNL     1      50.608   7.852  10.986  0.00  0.00    +0.000 A 
ATOM      6  S   UNL     1      52.300   8.088  11.007  0.00  0.00    +0.000 S 
ATOM      7  C   UNL     1      52.188   9.133  12.345  0.00  0.00    +0.000 A 
ATOM      8  N   UNL     1      53.283   9.791  12.814  0.00  0.00    +0.000 NA
ATOM      9  C   UNL     1      53.037  10.594  13.791  0.00  0.00    +0.000 A 
ATOM     10  N   UNL     1      51.802  10.767  14.372  0.00  0.00    +0.000 N 
ATOM     11  C   UNL     1      50.702  10.017  14.027  0.00  0.00    +0.000 A 
ATOM     12  O   UNL     1      49.701   9.999  14.734  0.00  0.00    +0.000 OA
ATOM     13  C   UNL     1      50.897   9.206  12.836  0.00  0.00    +0.000 A 
ATOM     14  H   UNL     1      51.698  11.352  15.189  0.00  0.00    +0.000 HD
ENDBRANCH   2   4
BRANCH   1  15
ATOM     15  C   UNL     1      46.399   7.587  13.155  0.00  0.00    +0.000 C 
BRANCH  15  19
ATOM     16  C   UNL     1      44.401   4.367  11.205  0.00  0.00    +0.000 A 
ATOM     17  C   UNL     1      43.861   5.645  11.091  0.00  0.00    +0.000 A 
ATOM     18  C   UNL     1      44.419   6.691  11.838  0.00  0.00    +0.000 A 
ATOM     19  C   UNL     1      45.514   6.453  12.674  0.00  0.00    +0.000 A 
ATOM     20  C   UNL     1      45.896   5.122  12.821  0.00  0.00    +0.000 A 
ATOM     21  N   UNL     1      45.372   4.086  12.109  0.00  0.00    +0.000 NA
BRANCH  16  22
ATOM     22  C   UNL     1      44.023   3.285  10.209  0.00  0.00    +0.000 C 
BRANCH  22  27
ATOM     23  C   UNL     1      46.373   1.445   7.829  0.00  0.00    +0.000 A 
ATOM     24  C   UNL     1      46.965   2.515   7.154  0.00  0.00    +0.000 A 
ATOM     25  C   UNL     1      46.556   3.827   7.405  0.00  0.00    +0.000 A 
ATOM     26  C   UNL     1      45.578   4.083   8.368  0.00  0.00    +0.000 A 
ATOM     27  C   UNL     1      45.006   3.026   9.091  0.00  0.00    +0.000 A 
ATOM     28  C   UNL     1      45.433   1.717   8.826  0.00  0.00    +0.000 A 
BRANCH  23  29
ATOM     29  N   UNL     1      46.887   0.146   7.681  0.00  0.00    +0.000 N 
ATOM     30  H   UNL     1      46.180  -0.572   7.689  0.00  0.00    +0.000 HD
ATOM     31  H   UNL     1      47.649  -0.050   8.324  0.00  0.00    +0.000 HD
ENDBRANCH  23  29
ENDBRANCH  22  27
ENDBRANCH  16  22
ENDBRANCH  15  19
ENDBRANCH   1  15
BRANCH   1  32
ATOM     32  C   UNL     1      48.625   6.524  13.830  0.00  0.00    +0.000 C 
BRANCH  32  33
ATOM     33  C   UNL     1      48.629   6.663  15.357  0.00  0.00    +0.000 C 
BRANCH  33  34
ATOM     34  O   UNL     1      47.824   5.655  15.956  0.00  0.00    +0.000 OA
ATOM     35  H   UNL     1      46.983   5.633  15.468  0.00  0.00    +0.000 HD
ENDBRANCH  33  34
ENDBRANCH  32  33
ENDBRANCH   1  32
TORSDOF 9
ENDMDL
