MODEL 1
REMARK VINA RESULT:    -7.621      0.000      0.000
REMARK INTER + INTRA:         -11.607
REMARK INTER:                 -10.740
REMARK INTRA:                  -0.867
REMARK UNBOUND:                -0.867
REMARK  Name = 
REMARK  7 active torsions:
REMARK  status: ('A' for Active; 'I' for Inactive)
REMARK    1  A    between atoms: C_2  and  C_3
REMARK    2  A    between atoms: C_6  and  O_7
REMARK    3  A    between atoms: O_7  and  C_8
REMARK    4  A    between atoms: C_8  and  C_9
REMARK    5  A    between atoms: C_9  and  C_10
REMARK    6  A    between atoms: C_15  and  O_16
REMARK    7  A    between atoms: O_16  and  C_17
REMARK                            x       y       z     vdW  Elec       q    Type
REMARK                         _______ _______ _______ _____ _____    ______ ____
ROOT
ATOM      1  C   UNL     1      44.995   4.878  12.782  0.00  0.00    +0.000 A 
ATOM      2  C   UNL     1      45.492   5.888  11.951  0.00  0.00    +0.000 A 
ATOM      3  C   UNL     1      46.756   6.427  12.190  0.00  0.00    +0.000 A 
ATOM      4  F   UNL     1      47.220   7.387  11.382  0.00  0.00    +0.000 F 
ATOM      5  C   UNL     1      47.532   5.996  13.260  0.00  0.00    +0.000 A 
ATOM      6  C   UNL     1      47.040   5.006  14.109  0.00  0.00    +0.000 A 
ATOM      7  C   UNL     1      45.789   4.432  13.857  0.00  0.00    +0.000 A 
ENDROOT
BRANCH   1   8
ATOM      8  C   UNL     1      43.605   4.318  12.568  0.00  0.00    +0.000 C 
BRANCH   8   9
ATOM      9  C   UNL     1      43.612   3.182  11.539  0.00  0.00    +0.000 C 
BRANCH   9  10
ATOM     10  O   UNL     1      43.478   3.707  10.213  0.00  0.00    +0.000 OA
BRANCH  10  14
ATOM     11  C   UNL     1      46.470   2.424   7.576  0.00  0.00    +0.000 A 
ATOM     12  C   UNL     1      46.141   3.781   7.611  0.00  0.00    +0.000 A 
ATOM     13  C   UNL     1      45.144   4.247   8.478  0.00  0.00    +0.000 A 
ATOM     14  C   UNL     1      44.464   3.363   9.321  0.00  0.00    +0.000 A 
ATOM     15  C   UNL     1      44.792   2.004   9.277  0.00  0.00    +0.000 A 
ATOM     16  C   UNL     1      45.790   1.534   8.412  0.00  0.00    +0.000 A 
BRANCH  11  18
ATOM     17  N   UNL     1      48.328   1.572   5.978  0.00  0.00    +0.000 NA
ATOM     18  C   UNL     1      47.497   1.953   6.689  0.00  0.00    +0.000 C 
ENDBRANCH  11  18
ENDBRANCH  10  14
ENDBRANCH   9  10
ENDBRANCH   8   9
ENDBRANCH   1   8
BRANCH   6  19
ATOM     19  O   UNL     1      47.861   4.660  15.156  0.00  0.00    +0.000 OA
BRANCH  19  20
ATOM     20  C   UNL     1      47.276   3.966  16.284  0.00  0.00    +0.000 C 
ATOM     21  C   UNL     1      47.332   4.649  17.657  0.00  0.00    +0.000 C 
ATOM     22  O   UNL     1      48.037   3.535  18.248  0.00  0.00    +0.000 OA
ATOM     23  C   UNL     1      48.150   2.896  16.954  0.00  0.00    +0.000 C 
ENDBRANCH  19  20
ENDBRANCH   6  19
TORSDOF 7
ENDMDL
MODEL 2
REMARK VINA RESULT:    -7.173      1.618      1.908
REMARK INTER + INTRA:         -10.975
REMARK INTER:                 -10.263
REMARK INTRA:                  -0.712
REMARK UNBOUND:                -0.867
REMARK  Name = 
REMARK  7 active torsions:
REMARK  status: ('A' for Active; 'I' for Inactive)
REMARK    1  A    between atoms: C_2  and  C_3
REMARK    2  A    between atoms: C_6  and  O_7
REMARK    3  A    between atoms: O_7  and  C_8
REMARK    4  A    between atoms: C_8  and  C_9
REMARK    5  A    between atoms: C_9  and  C_10
REMARK    6  A    between atoms: C_15  and  O_16
REMARK    7  A    between atoms: O_16  and  C_17
REMARK                            x       y       z     vdW  Elec       q    Type
REMARK                         _______ _______ _______ _____ _____    ______ ____
ROOT
ATOM      1  C   UNL     1      44.616   5.016  12.653  0.00  0.00    +0.000 A 
ATOM      2  C   UNL     1      44.321   6.235  12.032  0.00  0.00    +0.000 A 
ATOM      3  C   UNL     1      45.289   7.238  11.975  0.00  0.00    +0.000 A 
ATOM      4  F   UNL     1      44.994   8.395  11.372  0.00  0.00    +0.000 F 
ATOM      5  C   UNL     1      46.544   7.061  12.545  0.00  0.00    +0.000 A 
ATOM      6  C   UNL     1      46.843   5.860  13.186  0.00  0.00    +0.000 A 
ATOM      7  C   UNL     1      45.893   4.833  13.217  0.00  0.00    +0.000 A 
ENDROOT
BRANCH   1   8
ATOM      8  C   UNL     1      43.561   3.936  12.769  0.00  0.00    +0.000 C 
BRANCH   8   9
ATOM      9  C   UNL     1      43.612   2.973  11.578  0.00  0.00    +0.000 C 
BRANCH   9  10
ATOM     10  O   UNL     1      43.589   3.701  10.344  0.00  0.00    +0.000 OA
BRANCH  10  14
ATOM     11  C   UNL     1      46.489   2.426   7.602  0.00  0.00    +0.000 A 
ATOM     12  C   UNL     1      46.195   3.789   7.686  0.00  0.00    +0.000 A 
ATOM     13  C   UNL     1      45.229   4.252   8.589  0.00  0.00    +0.000 A 
ATOM     14  C   UNL     1      44.546   3.360   9.420  0.00  0.00    +0.000 A 
ATOM     15  C   UNL     1      44.839   1.995   9.328  0.00  0.00    +0.000 A 
ATOM     16  C   UNL     1      45.805   1.528   8.426  0.00  0.00    +0.000 A 
BRANCH  11  18
ATOM     17  N   UNL     1      48.289   1.581   5.936  0.00  0.00    +0.000 NA
ATOM     18  C   UNL     1      47.483   1.957   6.678  0.00  0.00    +0.000 C 
ENDBRANCH  11  18
ENDBRANCH  10  14
ENDBRANCH   9  10
ENDBRANCH   8   9
ENDBRANCH   1   8
BRANCH   6  19
ATOM     19  O   UNL     1      48.097   5.781  13.745  0.00  0.00    +0.000 OA
BRANCH  19  20
ATOM     20  C   UNL     1      48.456   6.749  14.760  0.00  0.00    +0.000 C 
ATOM     21  C   UNL     1      49.899   7.273  14.776  0.00  0.00    +0.000 C 
ATOM     22  O   UNL     1      50.105   6.831  16.136  0.00  0.00    +0.000 OA
ATOM     23  C   UNL     1      48.810   6.187  16.144  0.00  0.00    +0.000 C 
ENDBRANCH  19  20
ENDBRANCH   6  19
TORSDOF 7
ENDMDL
MODEL 3
REMARK VINA RESULT:    -6.977      2.347      3.647
REMARK INTER + INTRA:         -10.699
REMARK INTER:                  -9.815
REMARK INTRA:                  -0.884
REMARK UNBOUND:                -0.867
REMARK  Name = 
REMARK  7 active torsions:
REMARK  status: ('A' for Active; 'I' for Inactive)
REMARK    1  A    between atoms: C_2  and  C_3
REMARK    2  A    between atoms: C_6  and  O_7
REMARK    3  A    between atoms: O_7  and  C_8
REMARK    4  A    between atoms: C_8  and  C_9
REMARK    5  A    between atoms: C_9  and  C_10
REMARK    6  A    between atoms: C_15  and  O_16
REMARK    7  A    between atoms: O_16  and  C_17
REMARK                            x       y       z     vdW  Elec       q    Type
REMARK                         _______ _______ _______ _____ _____    ______ ____
ROOT
ATOM      1  C   UNL     1      44.769   5.289  12.777  0.00  0.00    +0.000 A 
ATOM      2  C   UNL     1      45.415   4.144  13.255  0.00  0.00    +0.000 A 
ATOM      3  C   UNL     1      46.705   4.240  13.779  0.00  0.00    +0.000 A 
ATOM      4  F   UNL     1      47.306   3.137  14.239  0.00  0.00    +0.000 F 
ATOM      5  C   UNL     1      47.378   5.455  13.817  0.00  0.00    +0.000 A 
ATOM      6  C   UNL     1      46.755   6.600  13.323  0.00  0.00    +0.000 A 
ATOM      7  C   UNL     1      45.448   6.522  12.830  0.00  0.00    +0.000 A 
ENDROOT
BRANCH   1   8
ATOM      8  C   UNL     1      43.391   5.195  12.159  0.00  0.00    +0.000 C 
BRANCH   8   9
ATOM      9  C   UNL     1      43.469   5.055  10.634  0.00  0.00    +0.000 C 
BRANCH   9  10
ATOM     10  O   UNL     1      43.550   3.675  10.262  0.00  0.00    +0.000 OA
BRANCH  10  14
ATOM     11  C   UNL     1      46.501   2.442   7.556  0.00  0.00    +0.000 A 
ATOM     12  C   UNL     1      46.186   3.800   7.635  0.00  0.00    +0.000 A 
ATOM     13  C   UNL     1      45.202   4.250   8.526  0.00  0.00    +0.000 A 
ATOM     14  C   UNL     1      44.523   3.347   9.349  0.00  0.00    +0.000 A 
ATOM     15  C   UNL     1      44.837   1.988   9.262  0.00  0.00    +0.000 A 
ATOM     16  C   UNL     1      45.821   1.534   8.373  0.00  0.00    +0.000 A 
BRANCH  11  18
ATOM     17  N   UNL     1      48.333   1.618   5.914  0.00  0.00    +0.000 NA
ATOM     18  C   UNL     1      47.514   1.987   6.645  0.00  0.00    +0.000 C 
ENDBRANCH  11  18
ENDBRANCH  10  14
ENDBRANCH   9  10
ENDBRANCH   8   9
ENDBRANCH   1   8
BRANCH   6  19
ATOM     19  O   UNL     1      47.503   7.753  13.375  0.00  0.00    +0.000 OA
BRANCH  19  20
ATOM     20  C   UNL     1      47.892   8.372  12.126  0.00  0.00    +0.000 C 
ATOM     21  C   UNL     1      49.188   7.894  11.458  0.00  0.00    +0.000 C 
ATOM     22  O   UNL     1      49.754   9.223  11.472  0.00  0.00    +0.000 OA
ATOM     23  C   UNL     1      48.626   9.716  12.231  0.00  0.00    +0.000 C 
ENDBRANCH  19  20
ENDBRANCH   6  19
TORSDOF 7
ENDMDL
MODEL 4
REMARK VINA RESULT:    -6.691      2.707      4.364
REMARK INTER + INTRA:         -10.297
REMARK INTER:                  -9.466
REMARK INTRA:                  -0.831
REMARK UNBOUND:                -0.867
REMARK  Name = 
REMARK  7 active torsions:
REMARK  status: ('A' for Active; 'I' for Inactive)
REMARK    1  A    between atoms: C_2  and  C_3
REMARK    2  A    between atoms: C_6  and  O_7
REMARK    3  A    between atoms: O_7  and  C_8
REMARK    4  A    between atoms: C_8  and  C_9
REMARK    5  A    between atoms: C_9  and  C_10
REMARK    6  A    between atoms: C_15  and  O_16
REMARK    7  A    between atoms: O_16  and  C_17
REMARK                            x       y       z     vdW  Elec       q    Type
REMARK                         _______ _______ _______ _____ _____    ______ ____
ROOT
ATOM      1  C   UNL     1      45.806   5.116  12.582  0.00  0.00    +0.000 A 
ATOM      2  C   UNL     1      46.773   4.981  13.585  0.00  0.00    +0.000 A 
ATOM      3  C   UNL     1      47.543   6.082  13.961  0.00  0.00    +0.000 A 
ATOM      4  F   UNL     1      48.459   5.939  14.926  0.00  0.00    +0.000 F 
ATOM      5  C   UNL     1      47.387   7.316  13.341  0.00  0.00    +0.000 A 
ATOM      6  C   UNL     1      46.442   7.458  12.325  0.00  0.00    +0.000 A 
ATOM      7  C   UNL     1      45.639   6.371  11.966  0.00  0.00    +0.000 A 
ENDROOT
BRANCH   1   8
ATOM      8  C   UNL     1      44.997   3.920  12.126  0.00  0.00    +0.000 C 
BRANCH   8   9
ATOM      9  C   UNL     1      43.857   4.339  11.191  0.00  0.00    +0.000 C 
BRANCH   9  10
ATOM     10  O   UNL     1      43.587   3.305  10.237  0.00  0.00    +0.000 OA
BRANCH  10  14
ATOM     11  C   UNL     1      46.568   2.358   7.449  0.00  0.00    +0.000 A 
ATOM     12  C   UNL     1      46.172   3.690   7.585  0.00  0.00    +0.000 A 
ATOM     13  C   UNL     1      45.176   4.045   8.505  0.00  0.00    +0.000 A 
ATOM     14  C   UNL     1      44.565   3.072   9.301  0.00  0.00    +0.000 A 
ATOM     15  C   UNL     1      44.960   1.738   9.157  0.00  0.00    +0.000 A 
ATOM     16  C   UNL     1      45.956   1.380   8.239  0.00  0.00    +0.000 A 
BRANCH  11  18
ATOM     17  N   UNL     1      48.416   1.710   5.747  0.00  0.00    +0.000 NA
ATOM     18  C   UNL     1      47.593   2.001   6.509  0.00  0.00    +0.000 C 
ENDBRANCH  11  18
ENDBRANCH  10  14
ENDBRANCH   9  10
ENDBRANCH   8   9
ENDBRANCH   1   8
BRANCH   6  19
ATOM     19  O   UNL     1      46.373   8.705  11.749  0.00  0.00    +0.000 OA
BRANCH  19  20
ATOM     20  C   UNL     1      45.218   9.528  12.036  0.00  0.00    +0.000 C 
ATOM     21  C   UNL     1      44.093   9.579  10.992  0.00  0.00    +0.000 C 
ATOM     22  O   UNL     1      44.197  11.014  10.866  0.00  0.00    +0.000 OA
ATOM     23  C   UNL     1      45.356  11.026  11.731  0.00  0.00    +0.000 C 
ENDBRANCH  19  20
ENDBRANCH   6  19
TORSDOF 7
ENDMDL
MODEL 5
REMARK VINA RESULT:    -6.447      2.683      3.866
REMARK INTER + INTRA:          -9.953
REMARK INTER:                  -9.384
REMARK INTRA:                  -0.569
REMARK UNBOUND:                -0.867
REMARK  Name = 
REMARK  7 active torsions:
REMARK  status: ('A' for Active; 'I' for Inactive)
REMARK    1  A    between atoms: C_2  and  C_3
REMARK    2  A    between atoms: C_6  and  O_7
REMARK    3  A    between atoms: O_7  and  C_8
REMARK    4  A    between atoms: C_8  and  C_9
REMARK    5  A    between atoms: C_9  and  C_10
REMARK    6  A    between atoms: C_15  and  O_16
REMARK    7  A    between atoms: O_16  and  C_17
REMARK                            x       y       z     vdW  Elec       q    Type
REMARK                         _______ _______ _______ _____ _____    ______ ____
ROOT
ATOM      1  C   UNL     1      44.412   4.792  10.384  0.00  0.00    +0.000 A 
ATOM      2  C   UNL     1      43.393   4.632  11.331  0.00  0.00    +0.000 A 
ATOM      3  C   UNL     1      43.489   5.264  12.570  0.00  0.00    +0.000 A 
ATOM      4  F   UNL     1      42.504   5.108  13.461  0.00  0.00    +0.000 F 
ATOM      5  C   UNL     1      44.595   6.038  12.900  0.00  0.00    +0.000 A 
ATOM      6  C   UNL     1      45.628   6.188  11.975  0.00  0.00    +0.000 A 
ATOM      7  C   UNL     1      45.525   5.589  10.715  0.00  0.00    +0.000 A 
ENDROOT
BRANCH   1   8
ATOM      8  C   UNL     1      44.348   4.073   9.054  0.00  0.00    +0.000 C 
BRANCH   8   9
ATOM      9  C   UNL     1      45.306   2.876   9.018  0.00  0.00    +0.000 C 
BRANCH   9  10
ATOM     10  O   UNL     1      46.472   3.192   8.248  0.00  0.00    +0.000 OA
BRANCH  10  14
ATOM     11  C   UNL     1      47.097   1.030   4.715  0.00  0.00    +0.000 A 
ATOM     12  C   UNL     1      47.178   0.359   5.938  0.00  0.00    +0.000 A 
ATOM     13  C   UNL     1      46.977   1.050   7.140  0.00  0.00    +0.000 A 
ATOM     14  C   UNL     1      46.693   2.419   7.135  0.00  0.00    +0.000 A 
ATOM     15  C   UNL     1      46.620   3.087   5.909  0.00  0.00    +0.000 A 
ATOM     16  C   UNL     1      46.819   2.399   4.704  0.00  0.00    +0.000 A 
BRANCH  11  18
ATOM     17  N   UNL     1      47.458  -0.257   2.490  0.00  0.00    +0.000 NA
ATOM     18  C   UNL     1      47.298   0.316   3.485  0.00  0.00    +0.000 C 
ENDBRANCH  11  18
ENDBRANCH  10  14
ENDBRANCH   9  10
ENDBRANCH   8   9
ENDBRANCH   1   8
BRANCH   6  19
ATOM     19  O   UNL     1      46.695   6.948  12.393  0.00  0.00    +0.000 OA
BRANCH  19  20
ATOM     20  C   UNL     1      47.870   6.263  12.890  0.00  0.00    +0.000 C 
ATOM     21  C   UNL     1      48.162   6.335  14.395  0.00  0.00    +0.000 C 
ATOM     22  O   UNL     1      49.468   6.913  14.172  0.00  0.00    +0.000 OA
ATOM     23  C   UNL     1      49.204   7.011  12.753  0.00  0.00    +0.000 C 
ENDBRANCH  19  20
ENDBRANCH   6  19
TORSDOF 7
ENDMDL
MODEL 6
REMARK VINA RESULT:    -6.441      3.744      8.073
REMARK INTER + INTRA:          -9.944
REMARK INTER:                  -9.332
REMARK INTRA:                  -0.612
REMARK UNBOUND:                -0.867
REMARK  Name = 
REMARK  7 active torsions:
REMARK  status: ('A' for Active; 'I' for Inactive)
REMARK    1  A    between atoms: C_2  and  C_3
REMARK    2  A    between atoms: C_6  and  O_7
REMARK    3  A    between atoms: O_7  and  C_8
REMARK    4  A    between atoms: C_8  and  C_9
REMARK    5  A    between atoms: C_9  and  C_10
REMARK    6  A    between atoms: C_15  and  O_16
REMARK    7  A    between atoms: O_16  and  C_17
REMARK                            x       y       z     vdW  Elec       q    Type
REMARK                         _______ _______ _______ _____ _____    ______ ____
ROOT
ATOM      1  C   UNL     1      45.189   5.273  10.375  0.00  0.00    +0.000 A 
ATOM      2  C   UNL     1      44.452   4.169  10.819  0.00  0.00    +0.000 A 
ATOM      3  C   UNL     1      44.366   3.025  10.025  0.00  0.00    +0.000 A 
ATOM      4  F   UNL     1      43.664   1.976  10.467  0.00  0.00    +0.000 F 
ATOM      5  C   UNL     1      44.981   2.964   8.780  0.00  0.00    +0.000 A 
ATOM      6  C   UNL     1      45.699   4.065   8.316  0.00  0.00    +0.000 A 
ATOM      7  C   UNL     1      45.824   5.203   9.120  0.00  0.00    +0.000 A 
ENDROOT
BRANCH   1   8
ATOM      8  C   UNL     1      45.251   6.540  11.200  0.00  0.00    +0.000 C 
BRANCH   8   9
ATOM      9  C   UNL     1      45.597   6.240  12.663  0.00  0.00    +0.000 C 
BRANCH   9  10
ATOM     10  O   UNL     1      47.015   6.124  12.828  0.00  0.00    +0.000 OA
BRANCH  10  14
ATOM     11  C   UNL     1      48.197   4.872  16.647  0.00  0.00    +0.000 A 
ATOM     12  C   UNL     1      48.748   6.044  16.123  0.00  0.00    +0.000 A 
ATOM     13  C   UNL     1      48.378   6.492  14.847  0.00  0.00    +0.000 A 
ATOM     14  C   UNL     1      47.454   5.776  14.081  0.00  0.00    +0.000 A 
ATOM     15  C   UNL     1      46.911   4.600  14.608  0.00  0.00    +0.000 A 
ATOM     16  C   UNL     1      47.276   4.149  15.884  0.00  0.00    +0.000 A 
BRANCH  11  18
ATOM     17  N   UNL     1      48.885   4.055  19.012  0.00  0.00    +0.000 NA
ATOM     18  C   UNL     1      48.574   4.420  17.957  0.00  0.00    +0.000 C 
ENDBRANCH  11  18
ENDBRANCH  10  14
ENDBRANCH   9  10
ENDBRANCH   8   9
ENDBRANCH   1   8
BRANCH   6  19
ATOM     19  O   UNL     1      46.252   3.928   7.064  0.00  0.00    +0.000 OA
BRANCH  19  20
ATOM     20  C   UNL     1      46.527   2.592   6.579  0.00  0.00    +0.000 C 
ATOM     21  C   UNL     1      47.888   1.970   6.919  0.00  0.00    +0.000 C 
ATOM     22  O   UNL     1      48.211   1.774   5.524  0.00  0.00    +0.000 OA
ATOM     23  C   UNL     1      47.013   2.481   5.127  0.00  0.00    +0.000 C 
ENDBRANCH  19  20
ENDBRANCH   6  19
TORSDOF 7
ENDMDL
MODEL 7
REMARK VINA RESULT:    -6.115      3.107      7.074
REMARK INTER + INTRA:          -9.484
REMARK INTER:                  -8.929
REMARK INTRA:                  -0.555
REMARK UNBOUND:                -0.867
REMARK  Name = 
REMARK  7 active torsions:
REMARK  status: ('A' for Active; 'I' for Inactive)
REMARK    1  A    between atoms: C_2  and  C_3
REMARK    2  A    between atoms: C_6  and  O_7
REMARK    3  A    between atoms: O_7  and  C_8
REMARK    4  A    between atoms: C_8  and  C_9
REMARK    5  A    between atoms: C_9  and  C_10
REMARK    6  A    between atoms: C_15  and  O_16
REMARK    7  A    between atoms: O_16  and  C_17
REMARK                            x       y       z     vdW  Elec       q    Type
REMARK                         _______ _______ _______ _____ _____    ______ ____
ROOT
ATOM      1  C   UNL     1      44.267   3.166  10.405  0.00  0.00    +0.000 A 
ATOM      2  C   UNL     1      44.684   4.491  10.238  0.00  0.00    +0.000 A 
ATOM      3  C   UNL     1      45.511   4.831   9.168  0.00  0.00    +0.000 A 
ATOM      4  F   UNL     1      45.895   6.103   9.018  0.00  0.00    +0.000 F 
ATOM      5  C   UNL     1      45.955   3.869   8.268  0.00  0.00    +0.000 A 
ATOM      6  C   UNL     1      45.566   2.541   8.435  0.00  0.00    +0.000 A 
ATOM      7  C   UNL     1      44.705   2.196   9.484  0.00  0.00    +0.000 A 
ENDROOT
BRANCH   1   8
ATOM      8  C   UNL     1      43.411   2.771  11.590  0.00  0.00    +0.000 C 
BRANCH   8   9
ATOM      9  C   UNL     1      43.226   3.942  12.562  0.00  0.00    +0.000 C 
BRANCH   9  10
ATOM     10  O   UNL     1      44.276   3.953  13.536  0.00  0.00    +0.000 OA
BRANCH  10  14
ATOM     11  C   UNL     1      47.170   6.906  12.857  0.00  0.00    +0.000 A 
ATOM     12  C   UNL     1      47.590   5.620  13.206  0.00  0.00    +0.000 A 
ATOM     13  C   UNL     1      46.651   4.607  13.444  0.00  0.00    +0.000 A 
ATOM     14  C   UNL     1      45.281   4.867  13.335  0.00  0.00    +0.000 A 
ATOM     15  C   UNL     1      44.866   6.157  12.991  0.00  0.00    +0.000 A 
ATOM     16  C   UNL     1      45.802   7.173  12.752  0.00  0.00    +0.000 A 
BRANCH  11  18
ATOM     17  N   UNL     1      48.918   8.770  12.405  0.00  0.00    +0.000 NA
ATOM     18  C   UNL     1      48.137   7.938  12.610  0.00  0.00    +0.000 C 
ENDBRANCH  11  18
ENDBRANCH  10  14
ENDBRANCH   9  10
ENDBRANCH   8   9
ENDBRANCH   1   8
BRANCH   6  19
ATOM     19  O   UNL     1      46.072   1.653   7.516  0.00  0.00    +0.000 OA
BRANCH  19  20
ATOM     20  C   UNL     1      46.853   2.177   6.416  0.00  0.00    +0.000 C 
ATOM     21  C   UNL     1      47.018   1.298   5.168  0.00  0.00    +0.000 C 
ATOM     22  O   UNL     1      48.459   1.324   5.270  0.00  0.00    +0.000 OA
ATOM     23  C   UNL     1      48.377   2.030   6.530  0.00  0.00    +0.000 C 
ENDBRANCH  19  20
ENDBRANCH   6  19
TORSDOF 7
ENDMDL
MODEL 8
REMARK VINA RESULT:    -6.107      2.588      3.174
REMARK INTER + INTRA:          -9.473
REMARK INTER:                  -8.800
REMARK INTRA:                  -0.673
REMARK UNBOUND:                -0.867
REMARK  Name = 
REMARK  7 active torsions:
REMARK  status: ('A' for Active; 'I' for Inactive)
REMARK    1  A    between atoms: C_2  and  C_3
REMARK    2  A    between atoms: C_6  and  O_7
REMARK    3  A    between atoms: O_7  and  C_8
REMARK    4  A    between atoms: C_8  and  C_9
REMARK    5  A    between atoms: C_9  and  C_10
REMARK    6  A    between atoms: C_15  and  O_16
REMARK    7  A    between atoms: O_16  and  C_17
REMARK                            x       y       z     vdW  Elec       q    Type
REMARK                         _______ _______ _______ _____ _____    ______ ____
ROOT
ATOM      1  C   UNL     1      44.386   7.493  11.500  0.00  0.00    +0.000 A 
ATOM      2  C   UNL     1      43.904   8.727  11.051  0.00  0.00    +0.000 A 
ATOM      3  C   UNL     1      44.627   9.892  11.307  0.00  0.00    +0.000 A 
ATOM      4  F   UNL     1      44.156  11.064  10.865  0.00  0.00    +0.000 F 
ATOM      5  C   UNL     1      45.817   9.858  12.026  0.00  0.00    +0.000 A 
ATOM      6  C   UNL     1      46.298   8.638  12.498  0.00  0.00    +0.000 A 
ATOM      7  C   UNL     1      45.599   7.458  12.215  0.00  0.00    +0.000 A 
ENDROOT
BRANCH   1   8
ATOM      8  C   UNL     1      43.589   6.226  11.276  0.00  0.00    +0.000 C 
BRANCH   8   9
ATOM      9  C   UNL     1      44.488   4.985  11.308  0.00  0.00    +0.000 C 
BRANCH   9  10
ATOM     10  O   UNL     1      43.983   3.978  10.423  0.00  0.00    +0.000 OA
BRANCH  10  14
ATOM     11  C   UNL     1      46.565   2.438   7.505  0.00  0.00    +0.000 A 
ATOM     12  C   UNL     1      46.378   3.820   7.576  0.00  0.00    +0.000 A 
ATOM     13  C   UNL     1      45.520   4.371   8.537  0.00  0.00    +0.000 A 
ATOM     14  C   UNL     1      44.839   3.549   9.439  0.00  0.00    +0.000 A 
ATOM     15  C   UNL     1      45.025   2.165   9.360  0.00  0.00    +0.000 A 
ATOM     16  C   UNL     1      45.883   1.609   8.401  0.00  0.00    +0.000 A 
BRANCH  11  18
ATOM     17  N   UNL     1      48.168   1.431   5.730  0.00  0.00    +0.000 NA
ATOM     18  C   UNL     1      47.450   1.878   6.522  0.00  0.00    +0.000 C 
ENDBRANCH  11  18
ENDBRANCH  10  14
ENDBRANCH   9  10
ENDBRANCH   8   9
ENDBRANCH   1   8
BRANCH   6  19
ATOM     19  O   UNL     1      47.465   8.699  13.221  0.00  0.00    +0.000 OA
BRANCH  19  20
ATOM     20  C   UNL     1      47.906   7.506  13.913  0.00  0.00    +0.000 C 
ATOM     21  C   UNL     1      48.734   7.681  15.193  0.00  0.00    +0.000 C 
ATOM     22  O   UNL     1      49.834   6.915  14.655  0.00  0.00    +0.000 OA
ATOM     23  C   UNL     1      49.174   6.833  13.370  0.00  0.00    +0.000 C 
ENDBRANCH  19  20
ENDBRANCH   6  19
TORSDOF 7
ENDMDL
MODEL 9
REMARK VINA RESULT:    -5.971      3.796      7.600
REMARK INTER + INTRA:          -9.282
REMARK INTER:                  -8.638
REMARK INTRA:                  -0.645
REMARK UNBOUND:                -0.867
REMARK  Name = 
REMARK  7 active torsions:
REMARK  status: ('A' for Active; 'I' for Inactive)
REMARK    1  A    between atoms: C_2  and  C_3
REMARK    2  A    between atoms: C_6  and  O_7
REMARK    3  A    between atoms: O_7  and  C_8
REMARK    4  A    between atoms: C_8  and  C_9
REMARK    5  A    between atoms: C_9  and  C_10
REMARK    6  A    between atoms: C_15  and  O_16
REMARK    7  A    between atoms: O_16  and  C_17
REMARK                            x       y       z     vdW  Elec       q    Type
REMARK                         _______ _______ _______ _____ _____    ______ ____
ROOT
ATOM      1  C   UNL     1      45.103   5.170  10.684  0.00  0.00    +0.000 A 
ATOM      2  C   UNL     1      44.319   4.238  11.372  0.00  0.00    +0.000 A 
ATOM      3  C   UNL     1      43.947   3.046  10.750  0.00  0.00    +0.000 A 
ATOM      4  F   UNL     1      43.203   2.162  11.424  0.00  0.00    +0.000 F 
ATOM      5  C   UNL     1      44.322   2.771   9.440  0.00  0.00    +0.000 A 
ATOM      6  C   UNL     1      45.084   3.700   8.735  0.00  0.00    +0.000 A 
ATOM      7  C   UNL     1      45.495   4.882   9.362  0.00  0.00    +0.000 A 
ENDROOT
BRANCH   1   8
ATOM      8  C   UNL     1      45.473   6.490  11.326  0.00  0.00    +0.000 C 
BRANCH   8   9
ATOM      9  C   UNL     1      46.357   6.284  12.562  0.00  0.00    +0.000 C 
BRANCH   9  10
ATOM     10  O   UNL     1      46.760   7.546  13.105  0.00  0.00    +0.000 OA
BRANCH  10  14
ATOM     11  C   UNL     1      50.225   9.133  11.364  0.00  0.00    +0.000 A 
ATOM     12  C   UNL     1      49.112   9.962  11.524  0.00  0.00    +0.000 A 
ATOM     13  C   UNL     1      47.935   9.466  12.100  0.00  0.00    +0.000 A 
ATOM     14  C   UNL     1      47.855   8.136  12.523  0.00  0.00    +0.000 A 
ATOM     15  C   UNL     1      48.970   7.308  12.354  0.00  0.00    +0.000 A 
ATOM     16  C   UNL     1      50.150   7.800  11.780  0.00  0.00    +0.000 A 
BRANCH  11  18
ATOM     17  N   UNL     1      52.407  10.058  10.307  0.00  0.00    +0.000 NA
ATOM     18  C   UNL     1      51.431   9.647  10.778  0.00  0.00    +0.000 C 
ENDBRANCH  11  18
ENDBRANCH  10  14
ENDBRANCH   9  10
ENDBRANCH   8   9
ENDBRANCH   1   8
BRANCH   6  19
ATOM     19  O   UNL     1      45.387   3.359   7.438  0.00  0.00    +0.000 OA
BRANCH  19  20
ATOM     20  C   UNL     1      46.742   2.949   7.137  0.00  0.00    +0.000 C 
ATOM     21  C   UNL     1      47.093   2.645   5.674  0.00  0.00    +0.000 C 
ATOM     22  O   UNL     1      47.516   1.301   5.994  0.00  0.00    +0.000 OA
ATOM     23  C   UNL     1      47.072   1.467   7.361  0.00  0.00    +0.000 C 
ENDBRANCH  19  20
ENDBRANCH   6  19
TORSDOF 7
ENDMDL
