MODEL 1
REMARK VINA RESULT:    -6.959      0.000      0.000
REMARK INTER + INTRA:         -11.850
REMARK INTER:                 -10.010
REMARK INTRA:                  -1.840
REMARK UNBOUND:                -1.840
REMARK  Name = 
REMARK  9 active torsions:
REMARK  status: ('A' for Active; 'I' for Inactive)
REMARK    1  A    between atoms: C_1  and  C_2
REMARK    2  A    between atoms: C_2  and  N_3
REMARK    3  A    between atoms: C_2  and  C_21
REMARK    4  A    between atoms: C_7  and  C_8
REMARK    5  A    between atoms: C_8  and  N_9
REMARK    6  A    between atoms: N_9  and  C_10
REMARK    7  A    between atoms: C_10  and  C_11
REMARK    8  A    between atoms: C_11  and  O_12
REMARK    9  A    between atoms: C_21  and  C_23
REMARK                            x       y       z     vdW  Elec       q    Type
REMARK                         _______ _______ _______ _____ _____    ______ ____
ROOT
ATOM      1  N   UNL     1      49.916   8.240  15.157  0.00  0.00    +0.000 N 
ATOM      2  C   UNL     1      48.985   8.139  14.142  0.00  0.00    +0.000 A 
ATOM      3  C   UNL     1      47.730   8.701  14.364  0.00  0.00    +0.000 A 
ATOM      4  C   UNL     1      46.676   8.414  13.497  0.00  0.00    +0.000 A 
ATOM      5  C   UNL     1      46.894   7.582  12.403  0.00  0.00    +0.000 A 
ATOM      6  C   UNL     1      48.206   7.173  12.188  0.00  0.00    +0.000 A 
ATOM      7  N   UNL     1      49.236   7.399  13.048  0.00  0.00    +0.000 NA
ATOM      8  H   UNL     1      50.042   9.167  15.551  0.00  0.00    +0.000 HD
ENDROOT
BRANCH   1  10
ATOM      9  C   UNL     1      52.368   8.095  14.807  0.00  0.00    +0.000 C 
ATOM     10  C   UNL     1      51.097   7.373  15.236  0.00  0.00    +0.000 C 
BRANCH  10  11
ATOM     11  C   UNL     1      51.272   6.996  16.723  0.00  0.00    +0.000 C 
ATOM     12  O   UNL     1      51.623   7.870  17.526  0.00  0.00    +0.000 OA
BRANCH  11  13
ATOM     13  C   UNL     1      50.950   5.653  17.219  0.00  0.00    +0.000 A 
ATOM     14  C   UNL     1      51.860   4.642  17.476  0.00  0.00    +0.000 A 
ATOM     15  S   UNL     1      51.105   3.109  17.658  0.00  0.00    +0.000 S 
ATOM     16  C   UNL     1      49.552   3.785  17.478  0.00  0.00    +0.000 A 
ATOM     17  N   UNL     1      48.430   3.019  17.423  0.00  0.00    +0.000 NA
ATOM     18  C   UNL     1      47.332   3.696  17.324  0.00  0.00    +0.000 A 
ATOM     19  N   UNL     1      47.250   5.067  17.328  0.00  0.00    +0.000 N 
ATOM     20  C   UNL     1      48.352   5.877  17.490  0.00  0.00    +0.000 A 
ATOM     21  O   UNL     1      48.237   7.063  17.781  0.00  0.00    +0.000 OA
ATOM     22  C   UNL     1      49.612   5.162  17.422  0.00  0.00    +0.000 A 
ATOM     23  H   UNL     1      46.356   5.532  17.386  0.00  0.00    +0.000 HD
ENDBRANCH  11  13
ENDBRANCH  10  11
ENDBRANCH   1  10
BRANCH   5  24
ATOM     24  C   UNL     1      45.753   7.023  11.593  0.00  0.00    +0.000 C 
BRANCH  24  25
ATOM     25  N   UNL     1      45.494   5.616  11.828  0.00  0.00    +0.000 N 
ATOM     26  C   UNL     1      45.243   4.783  10.758  0.00  0.00    +0.000 A 
ATOM     27  N   UNL     1      45.589   5.183   9.524  0.00  0.00    +0.000 NA
ATOM     28  C   UNL     1      45.417   4.318   8.506  0.00  0.00    +0.000 A 
ATOM     29  C   UNL     1      44.886   3.058   8.661  0.00  0.00    +0.000 A 
ATOM     30  C   UNL     1      44.521   2.747   9.943  0.00  0.00    +0.000 A 
ATOM     31  N   UNL     1      44.697   3.577  10.987  0.00  0.00    +0.000 NA
BRANCH  25  32
ATOM     32  C   UNL     1      45.174   5.153  13.174  0.00  0.00    +0.000 C 
BRANCH  32  33
ATOM     33  C   UNL     1      46.396   4.509  13.842  0.00  0.00    +0.000 C 
BRANCH  33  34
ATOM     34  O   UNL     1      46.466   3.118  13.527  0.00  0.00    +0.000 OA
ATOM     35  H   UNL     1      45.916   2.656  14.183  0.00  0.00    +0.000 HD
ENDBRANCH  33  34
ENDBRANCH  32  33
ENDBRANCH  25  32
ENDBRANCH  24  25
ENDBRANCH   5  24
TORSDOF 8
ENDMDL
MODEL 2
REMARK VINA RESULT:    -6.925      1.605      1.981
REMARK INTER + INTRA:         -11.801
REMARK INTER:                 -10.362
REMARK INTRA:                  -1.438
REMARK UNBOUND:                -1.840
REMARK  Name = 
REMARK  9 active torsions:
REMARK  status: ('A' for Active; 'I' for Inactive)
REMARK    1  A    between atoms: C_1  and  C_2
REMARK    2  A    between atoms: C_2  and  N_3
REMARK    3  A    between atoms: C_2  and  C_21
REMARK    4  A    between atoms: C_7  and  C_8
REMARK    5  A    between atoms: C_8  and  N_9
REMARK    6  A    between atoms: N_9  and  C_10
REMARK    7  A    between atoms: C_10  and  C_11
REMARK    8  A    between atoms: C_11  and  O_12
REMARK    9  A    between atoms: C_21  and  C_23
REMARK                            x       y       z     vdW  Elec       q    Type
REMARK                         _______ _______ _______ _____ _____    ______ ____
ROOT
ATOM      1  N   UNL     1      48.347   8.240  14.721  0.00  0.00    +0.000 N 
ATOM      2  C   UNL     1      47.606   7.952  13.591  0.00  0.00    +0.000 A 
ATOM      3  C   UNL     1      46.359   8.559  13.468  0.00  0.00    +0.000 A 
ATOM      4  C   UNL     1      45.464   8.119  12.494  0.00  0.00    +0.000 A 
ATOM      5  C   UNL     1      45.833   7.087  11.638  0.00  0.00    +0.000 A 
ATOM      6  C   UNL     1      47.142   6.629  11.749  0.00  0.00    +0.000 A 
ATOM      7  N   UNL     1      48.013   7.009  12.723  0.00  0.00    +0.000 NA
ATOM      8  H   UNL     1      48.443   9.226  14.947  0.00  0.00    +0.000 HD
ENDROOT
BRANCH   1  10
ATOM      9  C   UNL     1      50.806   8.074  15.005  0.00  0.00    +0.000 C 
ATOM     10  C   UNL     1      49.454   7.394  15.178  0.00  0.00    +0.000 C 
BRANCH  10  11
ATOM     11  C   UNL     1      49.249   7.176  16.693  0.00  0.00    +0.000 C 
ATOM     12  O   UNL     1      48.509   7.948  17.315  0.00  0.00    +0.000 OA
BRANCH  11  13
ATOM     13  C   UNL     1      49.841   6.029  17.392  0.00  0.00    +0.000 A 
ATOM     14  C   UNL     1      50.953   6.065  18.215  0.00  0.00    +0.000 A 
ATOM     15  S   UNL     1      51.586   4.500  18.533  0.00  0.00    +0.000 S 
ATOM     16  C   UNL     1      50.339   3.750  17.648  0.00  0.00    +0.000 A 
ATOM     17  N   UNL     1      50.319   2.410  17.417  0.00  0.00    +0.000 NA
ATOM     18  C   UNL     1      49.281   2.003  16.761  0.00  0.00    +0.000 A 
ATOM     19  N   UNL     1      48.238   2.803  16.362  0.00  0.00    +0.000 N 
ATOM     20  C   UNL     1      48.170   4.142  16.670  0.00  0.00    +0.000 A 
ATOM     21  O   UNL     1      47.121   4.770  16.567  0.00  0.00    +0.000 OA
ATOM     22  C   UNL     1      49.394   4.669  17.242  0.00  0.00    +0.000 A 
ATOM     23  H   UNL     1      47.397   2.401  15.976  0.00  0.00    +0.000 HD
ENDBRANCH  11  13
ENDBRANCH  10  11
ENDBRANCH   1  10
BRANCH   5  24
ATOM     24  C   UNL     1      44.828   6.391  10.756  0.00  0.00    +0.000 C 
BRANCH  24  25
ATOM     25  N   UNL     1      44.831   4.948  10.879  0.00  0.00    +0.000 N 
ATOM     26  C   UNL     1      45.189   4.172   9.796  0.00  0.00    +0.000 A 
ATOM     27  N   UNL     1      45.863   4.739   8.782  0.00  0.00    +0.000 NA
ATOM     28  C   UNL     1      46.280   3.945   7.777  0.00  0.00    +0.000 A 
ATOM     29  C   UNL     1      46.033   2.593   7.724  0.00  0.00    +0.000 A 
ATOM     30  C   UNL     1      45.304   2.105   8.774  0.00  0.00    +0.000 A 
ATOM     31  N   UNL     1      44.888   2.863   9.806  0.00  0.00    +0.000 NA
BRANCH  25  32
ATOM     32  C   UNL     1      44.154   4.315  12.007  0.00  0.00    +0.000 C 
BRANCH  32  33
ATOM     33  C   UNL     1      42.787   4.962  12.264  0.00  0.00    +0.000 C 
BRANCH  33  34
ATOM     34  O   UNL     1      42.768   5.605  13.539  0.00  0.00    +0.000 OA
ATOM     35  H   UNL     1      43.483   6.265  13.529  0.00  0.00    +0.000 HD
ENDBRANCH  33  34
ENDBRANCH  32  33
ENDBRANCH  25  32
ENDBRANCH  24  25
ENDBRANCH   5  24
TORSDOF 8
ENDMDL
MODEL 3
REMARK VINA RESULT:    -6.631      2.780      7.067
REMARK INTER + INTRA:         -11.378
REMARK INTER:                  -9.829
REMARK INTRA:                  -1.549
REMARK UNBOUND:                -1.840
REMARK  Name = 
REMARK  9 active torsions:
REMARK  status: ('A' for Active; 'I' for Inactive)
REMARK    1  A    between atoms: C_1  and  C_2
REMARK    2  A    between atoms: C_2  and  N_3
REMARK    3  A    between atoms: C_2  and  C_21
REMARK    4  A    between atoms: C_7  and  C_8
REMARK    5  A    between atoms: C_8  and  N_9
REMARK    6  A    between atoms: N_9  and  C_10
REMARK    7  A    between atoms: C_10  and  C_11
REMARK    8  A    between atoms: C_11  and  O_12
REMARK    9  A    between atoms: C_21  and  C_23
REMARK                            x       y       z     vdW  Elec       q    Type
REMARK                         _______ _______ _______ _____ _____    ______ ____
ROOT
ATOM      1  N   UNL     1      49.606   8.774  13.513  0.00  0.00    +0.000 N 
ATOM      2  C   UNL     1      49.732   8.237  14.779  0.00  0.00    +0.000 A 
ATOM      3  C   UNL     1      50.949   7.645  15.108  0.00  0.00    +0.000 A 
ATOM      4  C   UNL     1      51.056   6.867  16.260  0.00  0.00    +0.000 A 
ATOM      5  C   UNL     1      49.946   6.705  17.084  0.00  0.00    +0.000 A 
ATOM      6  C   UNL     1      48.813   7.437  16.747  0.00  0.00    +0.000 A 
ATOM      7  N   UNL     1      48.672   8.160  15.603  0.00  0.00    +0.000 NA
ATOM      8  H   UNL     1      50.357   9.392  13.218  0.00  0.00    +0.000 HD
ENDROOT
BRANCH   1  10
ATOM      9  C   UNL     1      48.378  10.189  11.886  0.00  0.00    +0.000 C 
ATOM     10  C   UNL     1      48.304   9.052  12.897  0.00  0.00    +0.000 C 
BRANCH  10  11
ATOM     11  C   UNL     1      47.902   7.781  12.119  0.00  0.00    +0.000 C 
ATOM     12  O   UNL     1      48.468   7.529  11.048  0.00  0.00    +0.000 OA
BRANCH  11  13
ATOM     13  C   UNL     1      46.929   6.823  12.659  0.00  0.00    +0.000 A 
ATOM     14  C   UNL     1      47.213   5.770  13.511  0.00  0.00    +0.000 A 
ATOM     15  S   UNL     1      45.921   4.642  13.615  0.00  0.00    +0.000 S 
ATOM     16  C   UNL     1      44.937   5.583  12.592  0.00  0.00    +0.000 A 
ATOM     17  N   UNL     1      43.718   5.158  12.166  0.00  0.00    +0.000 NA
ATOM     18  C   UNL     1      43.089   6.013  11.427  0.00  0.00    +0.000 A 
ATOM     19  N   UNL     1      43.543   7.272  11.118  0.00  0.00    +0.000 N 
ATOM     20  C   UNL     1      44.721   7.779  11.618  0.00  0.00    +0.000 A 
ATOM     21  O   UNL     1      44.968   8.980  11.578  0.00  0.00    +0.000 OA
ATOM     22  C   UNL     1      45.536   6.790  12.298  0.00  0.00    +0.000 A 
ATOM     23  H   UNL     1      42.944   7.938  10.653  0.00  0.00    +0.000 HD
ENDBRANCH  11  13
ENDBRANCH  10  11
ENDBRANCH   1  10
BRANCH   5  24
ATOM     24  C   UNL     1      49.919   5.673  18.182  0.00  0.00    +0.000 C 
BRANCH  24  25
ATOM     25  N   UNL     1      49.726   4.316  17.714  0.00  0.00    +0.000 N 
ATOM     26  C   UNL     1      50.777   3.423  17.759  0.00  0.00    +0.000 A 
ATOM     27  N   UNL     1      51.829   3.694  18.548  0.00  0.00    +0.000 NA
ATOM     28  C   UNL     1      52.802   2.768  18.646  0.00  0.00    +0.000 A 
ATOM     29  C   UNL     1      52.784   1.573  17.966  0.00  0.00    +0.000 A 
ATOM     30  C   UNL     1      51.698   1.395  17.153  0.00  0.00    +0.000 A 
ATOM     31  N   UNL     1      50.697   2.288  17.045  0.00  0.00    +0.000 NA
BRANCH  25  32
ATOM     32  C   UNL     1      48.556   3.988  16.904  0.00  0.00    +0.000 C 
BRANCH  32  33
ATOM     33  C   UNL     1      47.265   4.108  17.724  0.00  0.00    +0.000 C 
BRANCH  33  34
ATOM     34  O   UNL     1      46.538   2.879  17.700  0.00  0.00    +0.000 OA
ATOM     35  H   UNL     1      45.954   2.887  18.478  0.00  0.00    +0.000 HD
ENDBRANCH  33  34
ENDBRANCH  32  33
ENDBRANCH  25  32
ENDBRANCH  24  25
ENDBRANCH   5  24
TORSDOF 8
ENDMDL
MODEL 4
REMARK VINA RESULT:    -6.421      2.688      3.720
REMARK INTER + INTRA:         -11.077
REMARK INTER:                 -10.306
REMARK INTRA:                  -0.771
REMARK UNBOUND:                -1.840
REMARK  Name = 
REMARK  9 active torsions:
REMARK  status: ('A' for Active; 'I' for Inactive)
REMARK    1  A    between atoms: C_1  and  C_2
REMARK    2  A    between atoms: C_2  and  N_3
REMARK    3  A    between atoms: C_2  and  C_21
REMARK    4  A    between atoms: C_7  and  C_8
REMARK    5  A    between atoms: C_8  and  N_9
REMARK    6  A    between atoms: N_9  and  C_10
REMARK    7  A    between atoms: C_10  and  C_11
REMARK    8  A    between atoms: C_11  and  O_12
REMARK    9  A    between atoms: C_21  and  C_23
REMARK                            x       y       z     vdW  Elec       q    Type
REMARK                         _______ _______ _______ _____ _____    ______ ____
ROOT
ATOM      1  N   UNL     1      48.159   5.718  15.895  0.00  0.00    +0.000 N 
ATOM      2  C   UNL     1      47.615   5.717  14.625  0.00  0.00    +0.000 A 
ATOM      3  C   UNL     1      47.724   6.887  13.878  0.00  0.00    +0.000 A 
ATOM      4  C   UNL     1      46.982   7.036  12.707  0.00  0.00    +0.000 A 
ATOM      5  C   UNL     1      46.153   6.002  12.284  0.00  0.00    +0.000 A 
ATOM      6  C   UNL     1      46.206   4.824  13.021  0.00  0.00    +0.000 A 
ATOM      7  N   UNL     1      46.882   4.675  14.192  0.00  0.00    +0.000 NA
ATOM      8  H   UNL     1      49.113   6.061  15.967  0.00  0.00    +0.000 HD
ENDROOT
BRANCH   1  10
ATOM      9  C   UNL     1      48.903   3.760  17.225  0.00  0.00    +0.000 C 
ATOM     10  C   UNL     1      47.778   4.741  16.920  0.00  0.00    +0.000 C 
BRANCH  10  11
ATOM     11  C   UNL     1      47.512   5.538  18.216  0.00  0.00    +0.000 C 
ATOM     12  O   UNL     1      46.436   5.383  18.805  0.00  0.00    +0.000 OA
BRANCH  11  13
ATOM     13  C   UNL     1      48.537   6.407  18.808  0.00  0.00    +0.000 A 
ATOM     14  C   UNL     1      48.821   7.706  18.425  0.00  0.00    +0.000 A 
ATOM     15  S   UNL     1      50.319   8.264  19.055  0.00  0.00    +0.000 S 
ATOM     16  C   UNL     1      50.567   6.814  19.913  0.00  0.00    +0.000 A 
ATOM     17  N   UNL     1      51.717   6.563  20.595  0.00  0.00    +0.000 NA
ATOM     18  C   UNL     1      51.722   5.431  21.221  0.00  0.00    +0.000 A 
ATOM     19  N   UNL     1      50.667   4.554  21.271  0.00  0.00    +0.000 N 
ATOM     20  C   UNL     1      49.451   4.820  20.685  0.00  0.00    +0.000 A 
ATOM     21  O   UNL     1      48.446   4.181  20.976  0.00  0.00    +0.000 OA
ATOM     22  C   UNL     1      49.466   5.989  19.825  0.00  0.00    +0.000 A 
ATOM     23  H   UNL     1      50.688   3.755  21.888  0.00  0.00    +0.000 HD
ENDBRANCH  11  13
ENDBRANCH  10  11
ENDBRANCH   1  10
BRANCH   5  24
ATOM     24  C   UNL     1      45.134   6.202  11.191  0.00  0.00    +0.000 C 
BRANCH  24  25
ATOM     25  N   UNL     1      44.584   4.970  10.662  0.00  0.00    +0.000 N 
ATOM     26  C   UNL     1      45.009   4.507   9.434  0.00  0.00    +0.000 A 
ATOM     27  N   UNL     1      46.155   4.981   8.919  0.00  0.00    +0.000 NA
ATOM     28  C   UNL     1      46.597   4.450   7.762  0.00  0.00    +0.000 A 
ATOM     29  C   UNL     1      45.926   3.466   7.073  0.00  0.00    +0.000 A 
ATOM     30  C   UNL     1      44.747   3.071   7.645  0.00  0.00    +0.000 A 
ATOM     31  N   UNL     1      44.285   3.564   8.809  0.00  0.00    +0.000 NA
BRANCH  25  32
ATOM     32  C   UNL     1      43.371   4.407  11.247  0.00  0.00    +0.000 C 
BRANCH  32  33
ATOM     33  C   UNL     1      42.499   5.503  11.873  0.00  0.00    +0.000 C 
BRANCH  33  34
ATOM     34  O   UNL     1      42.536   5.423  13.298  0.00  0.00    +0.000 OA
ATOM     35  H   UNL     1      42.715   4.493  13.520  0.00  0.00    +0.000 HD
ENDBRANCH  33  34
ENDBRANCH  32  33
ENDBRANCH  25  32
ENDBRANCH  24  25
ENDBRANCH   5  24
TORSDOF 8
ENDMDL
MODEL 5
REMARK VINA RESULT:    -6.343      2.043      2.524
REMARK INTER + INTRA:         -10.964
REMARK INTER:                  -9.867
REMARK INTRA:                  -1.097
REMARK UNBOUND:                -1.840
REMARK  Name = 
REMARK  9 active torsions:
REMARK  status: ('A' for Active; 'I' for Inactive)
REMARK    1  A    between atoms: C_1  and  C_2
REMARK    2  A    between atoms: C_2  and  N_3
REMARK    3  A    between atoms: C_2  and  C_21
REMARK    4  A    between atoms: C_7  and  C_8
REMARK    5  A    between atoms: C_8  and  N_9
REMARK    6  A    between atoms: N_9  and  C_10
REMARK    7  A    between atoms: C_10  and  C_11
REMARK    8  A    between atoms: C_11  and  O_12
REMARK    9  A    between atoms: C_21  and  C_23
REMARK                            x       y       z     vdW  Elec       q    Type
REMARK                         _______ _______ _______ _____ _____    ______ ____
ROOT
ATOM      1  N   UNL     1      48.214   8.458  14.580  0.00  0.00    +0.000 N 
ATOM      2  C   UNL     1      47.492   7.953  13.516  0.00  0.00    +0.000 A 
ATOM      3  C   UNL     1      46.276   8.562  13.217  0.00  0.00    +0.000 A 
ATOM      4  C   UNL     1      45.389   7.949  12.333  0.00  0.00    +0.000 A 
ATOM      5  C   UNL     1      45.737   6.739  11.741  0.00  0.00    +0.000 A 
ATOM      6  C   UNL     1      47.020   6.270  11.998  0.00  0.00    +0.000 A 
ATOM      7  N   UNL     1      47.881   6.825  12.894  0.00  0.00    +0.000 NA
ATOM      8  H   UNL     1      48.347   9.465  14.585  0.00  0.00    +0.000 HD
ENDROOT
BRANCH   1  10
ATOM      9  C   UNL     1      50.577   8.474  15.335  0.00  0.00    +0.000 C 
ATOM     10  C   UNL     1      49.271   7.695  15.253  0.00  0.00    +0.000 C 
BRANCH  10  11
ATOM     11  C   UNL     1      48.793   7.461  16.703  0.00  0.00    +0.000 C 
ATOM     12  O   UNL     1      48.366   8.421  17.355  0.00  0.00    +0.000 OA
BRANCH  11  13
ATOM     13  C   UNL     1      48.754   6.117  17.292  0.00  0.00    +0.000 A 
ATOM     14  C   UNL     1      48.159   5.001  16.730  0.00  0.00    +0.000 A 
ATOM     15  S   UNL     1      47.963   3.722  17.861  0.00  0.00    +0.000 S 
ATOM     16  C   UNL     1      48.742   4.608  19.089  0.00  0.00    +0.000 A 
ATOM     17  N   UNL     1      48.832   4.151  20.367  0.00  0.00    +0.000 NA
ATOM     18  C   UNL     1      49.490   4.931  21.162  0.00  0.00    +0.000 A 
ATOM     19  N   UNL     1      50.109   6.098  20.785  0.00  0.00    +0.000 N 
ATOM     20  C   UNL     1      50.133   6.539  19.482  0.00  0.00    +0.000 A 
ATOM     21  O   UNL     1      50.919   7.405  19.114  0.00  0.00    +0.000 OA
ATOM     22  C   UNL     1      49.257   5.790  18.600  0.00  0.00    +0.000 A 
ATOM     23  H   UNL     1      50.720   6.588  21.422  0.00  0.00    +0.000 HD
ENDBRANCH  11  13
ENDBRANCH  10  11
ENDBRANCH   1  10
BRANCH   5  24
ATOM     24  C   UNL     1      44.727   5.901  11.000  0.00  0.00    +0.000 C 
BRANCH  24  25
ATOM     25  N   UNL     1      45.054   4.491  10.943  0.00  0.00    +0.000 N 
ATOM     26  C   UNL     1      45.387   3.917   9.733  0.00  0.00    +0.000 A 
ATOM     27  N   UNL     1      45.752   4.711   8.714  0.00  0.00    +0.000 NA
ATOM     28  C   UNL     1      46.159   4.126   7.570  0.00  0.00    +0.000 A 
ATOM     29  C   UNL     1      46.198   2.763   7.387  0.00  0.00    +0.000 A 
ATOM     30  C   UNL     1      45.768   2.030   8.459  0.00  0.00    +0.000 A 
ATOM     31  N   UNL     1      45.375   2.579   9.624  0.00  0.00    +0.000 NA
BRANCH  25  32
ATOM     32  C   UNL     1      44.718   3.623  12.067  0.00  0.00    +0.000 C 
BRANCH  32  33
ATOM     33  C   UNL     1      43.213   3.325  12.105  0.00  0.00    +0.000 C 
BRANCH  33  34
ATOM     34  O   UNL     1      42.953   1.993  11.661  0.00  0.00    +0.000 OA
ATOM     35  H   UNL     1      43.809   1.618  11.390  0.00  0.00    +0.000 HD
ENDBRANCH  33  34
ENDBRANCH  32  33
ENDBRANCH  25  32
ENDBRANCH  24  25
ENDBRANCH   5  24
TORSDOF 8
ENDMDL
MODEL 6
REMARK VINA RESULT:    -6.338      2.363      2.994
REMARK INTER + INTRA:         -10.956
REMARK INTER:                  -9.746
REMARK INTRA:                  -1.210
REMARK UNBOUND:                -1.840
REMARK  Name = 
REMARK  9 active torsions:
REMARK  status: ('A' for Active; 'I' for Inactive)
REMARK    1  A    between atoms: C_1  and  C_2
REMARK    2  A    between atoms: C_2  and  N_3
REMARK    3  A    between atoms: C_2  and  C_21
REMARK    4  A    between atoms: C_7  and  C_8
REMARK    5  A    between atoms: C_8  and  N_9
REMARK    6  A    between atoms: N_9  and  C_10
REMARK    7  A    between atoms: C_10  and  C_11
REMARK    8  A    between atoms: C_11  and  O_12
REMARK    9  A    between atoms: C_21  and  C_23
REMARK                            x       y       z     vdW  Elec       q    Type
REMARK                         _______ _______ _______ _____ _____    ______ ____
ROOT
ATOM      1  N   UNL     1      48.900   7.208  15.542  0.00  0.00    +0.000 N 
ATOM      2  C   UNL     1      48.234   7.140  14.333  0.00  0.00    +0.000 A 
ATOM      3  C   UNL     1      47.385   8.195  14.008  0.00  0.00    +0.000 A 
ATOM      4  C   UNL     1      46.499   8.070  12.939  0.00  0.00    +0.000 A 
ATOM      5  C   UNL     1      46.485   6.896  12.192  0.00  0.00    +0.000 A 
ATOM      6  C   UNL     1      47.455   5.950  12.507  0.00  0.00    +0.000 A 
ATOM      7  N   UNL     1      48.293   6.030  13.576  0.00  0.00    +0.000 NA
ATOM      8  H   UNL     1      49.380   8.082  15.734  0.00  0.00    +0.000 HD
ENDROOT
BRANCH   1  10
ATOM      9  C   UNL     1      50.750   6.370  16.966  0.00  0.00    +0.000 C 
ATOM     10  C   UNL     1      49.485   6.029  16.190  0.00  0.00    +0.000 C 
BRANCH  10  11
ATOM     11  C   UNL     1      48.447   5.526  17.216  0.00  0.00    +0.000 C 
ATOM     12  O   UNL     1      47.438   4.937  16.810  0.00  0.00    +0.000 OA
BRANCH  11  13
ATOM     13  C   UNL     1      48.671   5.653  18.662  0.00  0.00    +0.000 A 
ATOM     14  C   UNL     1      49.193   4.676  19.492  0.00  0.00    +0.000 A 
ATOM     15  S   UNL     1      48.943   5.026  21.156  0.00  0.00    +0.000 S 
ATOM     16  C   UNL     1      48.210   6.520  20.794  0.00  0.00    +0.000 A 
ATOM     17  N   UNL     1      47.655   7.306  21.754  0.00  0.00    +0.000 NA
ATOM     18  C   UNL     1      47.178   8.424  21.310  0.00  0.00    +0.000 A 
ATOM     19  N   UNL     1      47.251   8.849  20.006  0.00  0.00    +0.000 N 
ATOM     20  C   UNL     1      47.900   8.132  19.027  0.00  0.00    +0.000 A 
ATOM     21  O   UNL     1      48.209   8.645  17.957  0.00  0.00    +0.000 OA
ATOM     22  C   UNL     1      48.286   6.798  19.445  0.00  0.00    +0.000 A 
ATOM     23  H   UNL     1      46.982   9.789  19.753  0.00  0.00    +0.000 HD
ENDBRANCH  11  13
ENDBRANCH  10  11
ENDBRANCH   1  10
BRANCH   5  24
ATOM     24  C   UNL     1      45.382   6.595  11.210  0.00  0.00    +0.000 C 
BRANCH  24  25
ATOM     25  N   UNL     1      45.037   5.191  11.120  0.00  0.00    +0.000 N 
ATOM     26  C   UNL     1      45.164   4.533   9.914  0.00  0.00    +0.000 A 
ATOM     27  N   UNL     1      45.928   5.078   8.952  0.00  0.00    +0.000 NA
ATOM     28  C   UNL     1      46.111   4.376   7.817  0.00  0.00    +0.000 A 
ATOM     29  C   UNL     1      45.540   3.147   7.583  0.00  0.00    +0.000 A 
ATOM     30  C   UNL     1      44.743   2.686   8.595  0.00  0.00    +0.000 A 
ATOM     31  N   UNL     1      44.554   3.348   9.751  0.00  0.00    +0.000 NA
BRANCH  25  32
ATOM     32  C   UNL     1      44.257   4.566  12.184  0.00  0.00    +0.000 C 
BRANCH  32  33
ATOM     33  C   UNL     1      42.829   5.124  12.223  0.00  0.00    +0.000 C 
BRANCH  33  34
ATOM     34  O   UNL     1      42.461   5.472  13.558  0.00  0.00    +0.000 OA
ATOM     35  H   UNL     1      41.517   5.255  13.652  0.00  0.00    +0.000 HD
ENDBRANCH  33  34
ENDBRANCH  32  33
ENDBRANCH  25  32
ENDBRANCH  24  25
ENDBRANCH   5  24
TORSDOF 8
ENDMDL
MODEL 7
REMARK VINA RESULT:    -6.214      3.483      8.168
REMARK INTER + INTRA:         -10.778
REMARK INTER:                  -9.658
REMARK INTRA:                  -1.120
REMARK UNBOUND:                -1.840
REMARK  Name = 
REMARK  9 active torsions:
REMARK  status: ('A' for Active; 'I' for Inactive)
REMARK    1  A    between atoms: C_1  and  C_2
REMARK    2  A    between atoms: C_2  and  N_3
REMARK    3  A    between atoms: C_2  and  C_21
REMARK    4  A    between atoms: C_7  and  C_8
REMARK    5  A    between atoms: C_8  and  N_9
REMARK    6  A    between atoms: N_9  and  C_10
REMARK    7  A    between atoms: C_10  and  C_11
REMARK    8  A    between atoms: C_11  and  O_12
REMARK    9  A    between atoms: C_21  and  C_23
REMARK                            x       y       z     vdW  Elec       q    Type
REMARK                         _______ _______ _______ _____ _____    ______ ____
ROOT
ATOM      1  N   UNL     1      47.399   6.010  13.793  0.00  0.00    +0.000 N 
ATOM      2  C   UNL     1      48.134   6.076  14.961  0.00  0.00    +0.000 A 
ATOM      3  C   UNL     1      47.964   5.050  15.886  0.00  0.00    +0.000 A 
ATOM      4  C   UNL     1      48.472   5.186  17.177  0.00  0.00    +0.000 A 
ATOM      5  C   UNL     1      49.165   6.342  17.524  0.00  0.00    +0.000 A 
ATOM      6  C   UNL     1      49.398   7.254  16.502  0.00  0.00    +0.000 A 
ATOM      7  N   UNL     1      48.869   7.166  15.251  0.00  0.00    +0.000 NA
ATOM      8  H   UNL     1      47.431   5.122  13.301  0.00  0.00    +0.000 HD
ENDROOT
BRANCH   1  10
ATOM      9  C   UNL     1      48.227   7.319  11.854  0.00  0.00    +0.000 C 
ATOM     10  C   UNL     1      47.165   7.179  12.938  0.00  0.00    +0.000 C 
BRANCH  10  11
ATOM     11  C   UNL     1      45.818   6.941  12.222  0.00  0.00    +0.000 C 
ATOM     12  O   UNL     1      44.899   7.752  12.388  0.00  0.00    +0.000 OA
BRANCH  11  13
ATOM     13  C   UNL     1      45.631   5.827  11.284  0.00  0.00    +0.000 A 
ATOM     14  C   UNL     1      45.973   5.829   9.943  0.00  0.00    +0.000 A 
ATOM     15  S   UNL     1      45.257   4.526   9.081  0.00  0.00    +0.000 S 
ATOM     16  C   UNL     1      44.551   3.898  10.497  0.00  0.00    +0.000 A 
ATOM     17  N   UNL     1      43.703   2.835  10.474  0.00  0.00    +0.000 NA
ATOM     18  C   UNL     1      43.289   2.465  11.643  0.00  0.00    +0.000 A 
ATOM     19  N   UNL     1      43.685   3.025  12.832  0.00  0.00    +0.000 N 
ATOM     20  C   UNL     1      44.622   4.030  12.904  0.00  0.00    +0.000 A 
ATOM     21  O   UNL     1      45.175   4.315  13.961  0.00  0.00    +0.000 OA
ATOM     22  C   UNL     1      44.971   4.592  11.613  0.00  0.00    +0.000 A 
ATOM     23  H   UNL     1      43.431   2.602  13.713  0.00  0.00    +0.000 HD
ENDBRANCH  11  13
ENDBRANCH  10  11
ENDBRANCH   1  10
BRANCH   5  24
ATOM     24  C   UNL     1      49.499   6.664  18.958  0.00  0.00    +0.000 C 
BRANCH  24  25
ATOM     25  N   UNL     1      48.342   6.916  19.793  0.00  0.00    +0.000 N 
ATOM     26  C   UNL     1      47.972   8.216  20.071  0.00  0.00    +0.000 A 
ATOM     27  N   UNL     1      48.444   9.207  19.297  0.00  0.00    +0.000 NA
ATOM     28  C   UNL     1      48.000  10.458  19.530  0.00  0.00    +0.000 A 
ATOM     29  C   UNL     1      47.109  10.773  20.530  0.00  0.00    +0.000 A 
ATOM     30  C   UNL     1      46.713   9.712  21.297  0.00  0.00    +0.000 A 
ATOM     31  N   UNL     1      47.119   8.447  21.082  0.00  0.00    +0.000 NA
BRANCH  25  32
ATOM     32  C   UNL     1      47.778   5.836  20.597  0.00  0.00    +0.000 C 
BRANCH  32  33
ATOM     33  C   UNL     1      48.832   4.761  20.894  0.00  0.00    +0.000 C 
BRANCH  33  34
ATOM     34  O   UNL     1      48.350   3.469  20.525  0.00  0.00    +0.000 OA
ATOM     35  H   UNL     1      47.778   3.167  21.252  0.00  0.00    +0.000 HD
ENDBRANCH  33  34
ENDBRANCH  32  33
ENDBRANCH  25  32
ENDBRANCH  24  25
ENDBRANCH   5  24
TORSDOF 8
ENDMDL
MODEL 8
REMARK VINA RESULT:    -6.163      2.783      4.881
REMARK INTER + INTRA:         -10.705
REMARK INTER:                  -8.721
REMARK INTRA:                  -1.984
REMARK UNBOUND:                -1.840
REMARK  Name = 
REMARK  9 active torsions:
REMARK  status: ('A' for Active; 'I' for Inactive)
REMARK    1  A    between atoms: C_1  and  C_2
REMARK    2  A    between atoms: C_2  and  N_3
REMARK    3  A    between atoms: C_2  and  C_21
REMARK    4  A    between atoms: C_7  and  C_8
REMARK    5  A    between atoms: C_8  and  N_9
REMARK    6  A    between atoms: N_9  and  C_10
REMARK    7  A    between atoms: C_10  and  C_11
REMARK    8  A    between atoms: C_11  and  O_12
REMARK    9  A    between atoms: C_21  and  C_23
REMARK                            x       y       z     vdW  Elec       q    Type
REMARK                         _______ _______ _______ _____ _____    ______ ____
ROOT
ATOM      1  N   UNL     1      48.690   3.858  19.518  0.00  0.00    +0.000 N 
ATOM      2  C   UNL     1      48.138   3.685  18.264  0.00  0.00    +0.000 A 
ATOM      3  C   UNL     1      48.655   2.665  17.469  0.00  0.00    +0.000 A 
ATOM      4  C   UNL     1      48.325   2.602  16.116  0.00  0.00    +0.000 A 
ATOM      5  C   UNL     1      47.463   3.550  15.575  0.00  0.00    +0.000 A 
ATOM      6  C   UNL     1      46.895   4.451  16.468  0.00  0.00    +0.000 A 
ATOM      7  N   UNL     1      47.241   4.562  17.780  0.00  0.00    +0.000 NA
ATOM      8  H   UNL     1      48.775   3.018  20.084  0.00  0.00    +0.000 HD
ENDROOT
BRANCH   1  10
ATOM      9  C   UNL     1      48.548   4.856  21.786  0.00  0.00    +0.000 C 
ATOM     10  C   UNL     1      48.543   5.101  20.282  0.00  0.00    +0.000 C 
BRANCH  10  11
ATOM     11  C   UNL     1      49.782   5.967  19.963  0.00  0.00    +0.000 C 
ATOM     12  O   UNL     1      50.881   5.414  19.828  0.00  0.00    +0.000 OA
BRANCH  11  13
ATOM     13  C   UNL     1      49.672   7.412  19.732  0.00  0.00    +0.000 A 
ATOM     14  C   UNL     1      49.834   8.401  20.687  0.00  0.00    +0.000 A 
ATOM     15  S   UNL     1      49.249   9.928  20.157  0.00  0.00    +0.000 S 
ATOM     16  C   UNL     1      48.848   9.309  18.622  0.00  0.00    +0.000 A 
ATOM     17  N   UNL     1      48.201  10.053  17.686  0.00  0.00    +0.000 NA
ATOM     18  C   UNL     1      48.010   9.441  16.563  0.00  0.00    +0.000 A 
ATOM     19  N   UNL     1      48.452   8.173  16.272  0.00  0.00    +0.000 N 
ATOM     20  C   UNL     1      49.204   7.429  17.153  0.00  0.00    +0.000 A 
ATOM     21  O   UNL     1      49.830   6.441  16.784  0.00  0.00    +0.000 OA
ATOM     22  C   UNL     1      49.282   8.007  18.481  0.00  0.00    +0.000 A 
ATOM     23  H   UNL     1      48.391   7.806  15.334  0.00  0.00    +0.000 HD
ENDBRANCH  11  13
ENDBRANCH  10  11
ENDBRANCH   1  10
BRANCH   5  24
ATOM     24  C   UNL     1      47.283   3.698  14.086  0.00  0.00    +0.000 C 
BRANCH  24  25
ATOM     25  N   UNL     1      46.470   4.833  13.698  0.00  0.00    +0.000 N 
ATOM     26  C   UNL     1      45.317   4.627  12.969  0.00  0.00    +0.000 A 
ATOM     27  N   UNL     1      44.775   3.398  12.939  0.00  0.00    +0.000 NA
ATOM     28  C   UNL     1      43.602   3.239  12.296  0.00  0.00    +0.000 A 
ATOM     29  C   UNL     1      42.944   4.261  11.652  0.00  0.00    +0.000 A 
ATOM     30  C   UNL     1      43.585   5.469  11.695  0.00  0.00    +0.000 A 
ATOM     31  N   UNL     1      44.747   5.671  12.345  0.00  0.00    +0.000 NA
BRANCH  25  32
ATOM     32  C   UNL     1      47.021   6.182  13.780  0.00  0.00    +0.000 C 
BRANCH  32  33
ATOM     33  C   UNL     1      48.302   6.307  12.946  0.00  0.00    +0.000 C 
BRANCH  33  34
ATOM     34  O   UNL     1      49.417   6.618  13.781  0.00  0.00    +0.000 OA
ATOM     35  H   UNL     1      49.066   6.740  14.680  0.00  0.00    +0.000 HD
ENDBRANCH  33  34
ENDBRANCH  32  33
ENDBRANCH  25  32
ENDBRANCH  24  25
ENDBRANCH   5  24
TORSDOF 8
ENDMDL
MODEL 9
REMARK VINA RESULT:    -5.981      1.960      2.428
REMARK INTER + INTRA:         -10.443
REMARK INTER:                  -8.749
REMARK INTRA:                  -1.695
REMARK UNBOUND:                -1.840
REMARK  Name = 
REMARK  9 active torsions:
REMARK  status: ('A' for Active; 'I' for Inactive)
REMARK    1  A    between atoms: C_1  and  C_2
REMARK    2  A    between atoms: C_2  and  N_3
REMARK    3  A    between atoms: C_2  and  C_21
REMARK    4  A    between atoms: C_7  and  C_8
REMARK    5  A    between atoms: C_8  and  N_9
REMARK    6  A    between atoms: N_9  and  C_10
REMARK    7  A    between atoms: C_10  and  C_11
REMARK    8  A    between atoms: C_11  and  O_12
REMARK    9  A    between atoms: C_21  and  C_23
REMARK                            x       y       z     vdW  Elec       q    Type
REMARK                         _______ _______ _______ _____ _____    ______ ____
ROOT
ATOM      1  N   UNL     1      50.657   7.877  16.088  0.00  0.00    +0.000 N 
ATOM      2  C   UNL     1      49.880   7.942  14.947  0.00  0.00    +0.000 A 
ATOM      3  C   UNL     1      48.622   8.528  15.060  0.00  0.00    +0.000 A 
ATOM      4  C   UNL     1      47.697   8.396  14.025  0.00  0.00    +0.000 A 
ATOM      5  C   UNL     1      48.049   7.694  12.876  0.00  0.00    +0.000 A 
ATOM      6  C   UNL     1      49.365   7.254  12.798  0.00  0.00    +0.000 A 
ATOM      7  N   UNL     1      50.267   7.328  13.815  0.00  0.00    +0.000 NA
ATOM      8  H   UNL     1      50.749   8.744  16.609  0.00  0.00    +0.000 HD
ENDROOT
BRANCH   1  10
ATOM      9  C   UNL     1      53.121   7.690  16.307  0.00  0.00    +0.000 C 
ATOM     10  C   UNL     1      51.790   6.955  16.221  0.00  0.00    +0.000 C 
BRANCH  10  11
ATOM     11  C   UNL     1      51.599   6.210  17.560  0.00  0.00    +0.000 C 
ATOM     12  O   UNL     1      51.904   6.782  18.614  0.00  0.00    +0.000 OA
BRANCH  11  13
ATOM     13  C   UNL     1      50.987   4.877  17.618  0.00  0.00    +0.000 A 
ATOM     14  C   UNL     1      51.663   3.677  17.753  0.00  0.00    +0.000 A 
ATOM     15  S   UNL     1      50.675   2.320  17.387  0.00  0.00    +0.000 S 
ATOM     16  C   UNL     1      49.312   3.308  17.125  0.00  0.00    +0.000 A 
ATOM     17  N   UNL     1      48.131   2.808  16.674  0.00  0.00    +0.000 NA
ATOM     18  C   UNL     1      47.190   3.690  16.568  0.00  0.00    +0.000 A 
ATOM     19  N   UNL     1      47.308   5.013  16.920  0.00  0.00    +0.000 N 
ATOM     20  C   UNL     1      48.452   5.533  17.481  0.00  0.00    +0.000 A 
ATOM     21  O   UNL     1      48.448   6.619  18.051  0.00  0.00    +0.000 OA
ATOM     22  C   UNL     1      49.580   4.622  17.447  0.00  0.00    +0.000 A 
ATOM     23  H   UNL     1      46.499   5.616  16.941  0.00  0.00    +0.000 HD
ENDBRANCH  11  13
ENDBRANCH  10  11
ENDBRANCH   1  10
BRANCH   5  24
ATOM     24  C   UNL     1      47.021   7.288  11.851  0.00  0.00    +0.000 C 
BRANCH  24  25
ATOM     25  N   UNL     1      45.671   7.197  12.369  0.00  0.00    +0.000 N 
ATOM     26  C   UNL     1      45.055   5.966  12.455  0.00  0.00    +0.000 A 
ATOM     27  N   UNL     1      45.809   4.855  12.407  0.00  0.00    +0.000 NA
ATOM     28  C   UNL     1      45.198   3.668  12.583  0.00  0.00    +0.000 A 
ATOM     29  C   UNL     1      43.844   3.533  12.785  0.00  0.00    +0.000 A 
ATOM     30  C   UNL     1      43.146   4.709  12.777  0.00  0.00    +0.000 A 
ATOM     31  N   UNL     1      43.724   5.915  12.625  0.00  0.00    +0.000 NA
BRANCH  25  32
ATOM     32  C   UNL     1      44.856   8.403  12.484  0.00  0.00    +0.000 C 
BRANCH  32  33
ATOM     33  C   UNL     1      44.365   8.872  11.109  0.00  0.00    +0.000 C 
BRANCH  33  34
ATOM     34  O   UNL     1      43.034   8.415  10.867  0.00  0.00    +0.000 OA
ATOM     35  H   UNL     1      42.939   7.572  11.345  0.00  0.00    +0.000 HD
ENDBRANCH  33  34
ENDBRANCH  32  33
ENDBRANCH  25  32
ENDBRANCH  24  25
ENDBRANCH   5  24
TORSDOF 8
ENDMDL
