MODEL 1
REMARK VINA RESULT:    -7.907      0.000      0.000
REMARK INTER + INTRA:         -12.600
REMARK INTER:                 -11.836
REMARK INTRA:                  -0.763
REMARK UNBOUND:                -0.763
REMARK  Name = 
REMARK  9 active torsions:
REMARK  status: ('A' for Active; 'I' for Inactive)
REMARK    1  A    between atoms: N_1  and  C_2
REMARK    2  A    between atoms: C_2  and  C_3
REMARK    3  A    between atoms: C_2  and  C_10
REMARK    4  A    between atoms: C_3  and  C_4
REMARK    5  A    between atoms: C_10  and  C_11
REMARK    6  A    between atoms: C_14  and  C_15
REMARK    7  A    between atoms: C_15  and  N_16
REMARK    8  A    between atoms: N_16  and  C_17
REMARK    9  A    between atoms: C_17  and  C_18
REMARK                            x       y       z     vdW  Elec       q    Type
REMARK                         _______ _______ _______ _____ _____    ______ ____
ROOT
ATOM      1  C   UNL     1      45.693   5.429  11.789  0.00  0.00    +0.000 A 
ATOM      2  C   UNL     1      46.460   6.543  11.415  0.00  0.00    +0.000 A 
ATOM      3  C   UNL     1      47.449   7.048  12.275  0.00  0.00    +0.000 A 
ATOM      4  C   UNL     1      47.713   6.430  13.500  0.00  0.00    +0.000 A 
ATOM      5  C   UNL     1      47.002   5.271  13.832  0.00  0.00    +0.000 A 
ATOM      6  C   UNL     1      45.997   4.780  12.983  0.00  0.00    +0.000 A 
ENDROOT
BRANCH   1   7
ATOM      7  C   UNL     1      44.519   4.978  10.940  0.00  0.00    +0.000 C 
BRANCH   7   8
ATOM      8  C   UNL     1      44.685   3.610  10.245  0.00  0.00    +0.000 C 
BRANCH   8   9
ATOM      9  N   UNL     1      43.676   2.655  10.760  0.00  0.00    +0.000 NA
ATOM     10  H   UNL     1      43.481   2.906  11.732  0.00  0.00    +0.000 HD
ATOM     11  H   UNL     1      44.085   1.723  10.815  0.00  0.00    +0.000 HD
ENDBRANCH   8   9
BRANCH   8  12
ATOM     12  C   UNL     1      44.576   3.703   8.701  0.00  0.00    +0.000 C 
BRANCH  12  13
ATOM     13  C   UNL     1      45.651   2.922   7.980  0.00  0.00    +0.000 A 
ATOM     14  C   UNL     1      45.963   1.604   8.343  0.00  0.00    +0.000 A 
ATOM     15  C   UNL     1      46.915   0.877   7.627  0.00  0.00    +0.000 A 
ATOM     16  C   UNL     1      47.576   1.465   6.550  0.00  0.00    +0.000 A 
ATOM     17  C   UNL     1      47.297   2.785   6.208  0.00  0.00    +0.000 A 
ATOM     18  C   UNL     1      46.345   3.510   6.911  0.00  0.00    +0.000 A 
ENDBRANCH  12  13
ENDBRANCH   8  12
ENDBRANCH   7   8
ENDBRANCH   1   7
BRANCH   4  19
ATOM     19  C   UNL     1      48.769   6.990  14.433  0.00  0.00    +0.000 C 
BRANCH  19  20
ATOM     20  N   UNL     1      48.220   7.211  15.771  0.00  0.00    +0.000 NA
ATOM     21  H   UNL     1      47.277   6.824  15.801  0.00  0.00    +0.000 HD
BRANCH  20  22
ATOM     22  C   UNL     1      49.021   6.563  16.818  0.00  0.00    +0.000 C 
BRANCH  22  23
ATOM     23  C   UNL     1      48.622   5.117  16.961  0.00  0.00    +0.000 A 
ATOM     24  C   UNL     1      47.311   4.744  17.188  0.00  0.00    +0.000 A 
ATOM     25  N   UNL     1      46.913   3.460  17.281  0.00  0.00    +0.000 NA
ATOM     26  C   UNL     1      47.902   2.566  17.127  0.00  0.00    +0.000 A 
ATOM     27  N   UNL     1      49.199   2.860  16.898  0.00  0.00    +0.000 NA
ATOM     28  N   UNL     1      49.569   4.164  16.813  0.00  0.00    +0.000 NA
ENDBRANCH  22  23
ENDBRANCH  20  22
ENDBRANCH  19  20
ENDBRANCH   4  19
TORSDOF 9
ENDMDL
MODEL 2
REMARK VINA RESULT:    -7.664      1.236      1.820
REMARK INTER + INTRA:         -12.236
REMARK INTER:                 -11.508
REMARK INTRA:                  -0.728
REMARK UNBOUND:                -0.763
REMARK  Name = 
REMARK  9 active torsions:
REMARK  status: ('A' for Active; 'I' for Inactive)
REMARK    1  A    between atoms: N_1  and  C_2
REMARK    2  A    between atoms: C_2  and  C_3
REMARK    3  A    between atoms: C_2  and  C_10
REMARK    4  A    between atoms: C_3  and  C_4
REMARK    5  A    between atoms: C_10  and  C_11
REMARK    6  A    between atoms: C_14  and  C_15
REMARK    7  A    between atoms: C_15  and  N_16
REMARK    8  A    between atoms: N_16  and  C_17
REMARK    9  A    between atoms: C_17  and  C_18
REMARK                            x       y       z     vdW  Elec       q    Type
REMARK                         _______ _______ _______ _____ _____    ______ ____
ROOT
ATOM      1  C   UNL     1      45.697   4.870  11.788  0.00  0.00    +0.000 A 
ATOM      2  C   UNL     1      46.415   6.065  11.634  0.00  0.00    +0.000 A 
ATOM      3  C   UNL     1      47.222   6.551  12.676  0.00  0.00    +0.000 A 
ATOM      4  C   UNL     1      47.355   5.836  13.869  0.00  0.00    +0.000 A 
ATOM      5  C   UNL     1      46.701   4.603  13.986  0.00  0.00    +0.000 A 
ATOM      6  C   UNL     1      45.876   4.130  12.954  0.00  0.00    +0.000 A 
ENDROOT
BRANCH   1   7
ATOM      7  C   UNL     1      44.701   4.424  10.733  0.00  0.00    +0.000 C 
BRANCH   7   8
ATOM      8  C   UNL     1      44.548   2.897  10.564  0.00  0.00    +0.000 C 
BRANCH   8   9
ATOM      9  N   UNL     1      43.453   2.400  11.429  0.00  0.00    +0.000 NA
ATOM     10  H   UNL     1      43.780   1.541  11.880  0.00  0.00    +0.000 HD
ATOM     11  H   UNL     1      42.669   2.101  10.850  0.00  0.00    +0.000 HD
ENDBRANCH   8   9
BRANCH   8  12
ATOM     12  C   UNL     1      44.283   2.480   9.094  0.00  0.00    +0.000 C 
BRANCH  12  13
ATOM     13  C   UNL     1      45.535   2.453   8.249  0.00  0.00    +0.000 A 
ATOM     14  C   UNL     1      46.046   3.620   7.664  0.00  0.00    +0.000 A 
ATOM     15  C   UNL     1      47.238   3.589   6.938  0.00  0.00    +0.000 A 
ATOM     16  C   UNL     1      47.924   2.386   6.777  0.00  0.00    +0.000 A 
ATOM     17  C   UNL     1      47.403   1.218   7.325  0.00  0.00    +0.000 A 
ATOM     18  C   UNL     1      46.223   1.245   8.055  0.00  0.00    +0.000 A 
ENDBRANCH  12  13
ENDBRANCH   8  12
ENDBRANCH   7   8
ENDBRANCH   1   7
BRANCH   4  19
ATOM     19  C   UNL     1      48.212   6.374  14.997  0.00  0.00    +0.000 C 
BRANCH  19  20
ATOM     20  N   UNL     1      47.924   5.676  16.251  0.00  0.00    +0.000 NA
ATOM     21  H   UNL     1      47.614   4.730  16.030  0.00  0.00    +0.000 HD
BRANCH  20  22
ATOM     22  C   UNL     1      49.103   5.586  17.124  0.00  0.00    +0.000 C 
BRANCH  22  23
ATOM     23  C   UNL     1      49.695   4.202  17.060  0.00  0.00    +0.000 A 
ATOM     24  C   UNL     1      50.903   3.899  17.660  0.00  0.00    +0.000 A 
ATOM     25  N   UNL     1      51.442   2.665  17.658  0.00  0.00    +0.000 NA
ATOM     26  C   UNL     1      50.700   1.743  17.024  0.00  0.00    +0.000 A 
ATOM     27  N   UNL     1      49.513   1.968  16.423  0.00  0.00    +0.000 NA
ATOM     28  N   UNL     1      48.998   3.224  16.440  0.00  0.00    +0.000 NA
ENDBRANCH  22  23
ENDBRANCH  20  22
ENDBRANCH  19  20
ENDBRANCH   4  19
TORSDOF 9
ENDMDL
MODEL 3
REMARK VINA RESULT:    -7.307      1.578      2.365
REMARK INTER + INTRA:         -11.701
REMARK INTER:                 -10.608
REMARK INTRA:                  -1.093
REMARK UNBOUND:                -0.763
REMARK  Name = 
REMARK  9 active torsions:
REMARK  status: ('A' for Active; 'I' for Inactive)
REMARK    1  A    between atoms: N_1  and  C_2
REMARK    2  A    between atoms: C_2  and  C_3
REMARK    3  A    between atoms: C_2  and  C_10
REMARK    4  A    between atoms: C_3  and  C_4
REMARK    5  A    between atoms: C_10  and  C_11
REMARK    6  A    between atoms: C_14  and  C_15
REMARK    7  A    between atoms: C_15  and  N_16
REMARK    8  A    between atoms: N_16  and  C_17
REMARK    9  A    between atoms: C_17  and  C_18
REMARK                            x       y       z     vdW  Elec       q    Type
REMARK                         _______ _______ _______ _____ _____    ______ ____
ROOT
ATOM      1  C   UNL     1      44.995   5.004  12.961  0.00  0.00    +0.000 A 
ATOM      2  C   UNL     1      46.233   4.486  13.374  0.00  0.00    +0.000 A 
ATOM      3  C   UNL     1      47.355   5.324  13.479  0.00  0.00    +0.000 A 
ATOM      4  C   UNL     1      47.253   6.692  13.216  0.00  0.00    +0.000 A 
ATOM      5  C   UNL     1      45.998   7.217  12.885  0.00  0.00    +0.000 A 
ATOM      6  C   UNL     1      44.881   6.376  12.755  0.00  0.00    +0.000 A 
ENDROOT
BRANCH   1   7
ATOM      7  C   UNL     1      43.822   4.080  12.690  0.00  0.00    +0.000 C 
BRANCH   7   8
ATOM      8  C   UNL     1      43.993   3.118  11.495  0.00  0.00    +0.000 C 
BRANCH   8   9
ATOM      9  N   UNL     1      42.952   2.065  11.540  0.00  0.00    +0.000 NA
ATOM     10  H   UNL     1      42.263   2.281  10.814  0.00  0.00    +0.000 HD
ATOM     11  H   UNL     1      42.432   2.135  12.414  0.00  0.00    +0.000 HD
ENDBRANCH   8   9
BRANCH   8  12
ATOM     12  C   UNL     1      43.942   3.845  10.126  0.00  0.00    +0.000 C 
BRANCH  12  13
ATOM     13  C   UNL     1      44.993   3.359   9.155  0.00  0.00    +0.000 A 
ATOM     14  C   UNL     1      45.316   1.999   9.050  0.00  0.00    +0.000 A 
ATOM     15  C   UNL     1      46.244   1.560   8.104  0.00  0.00    +0.000 A 
ATOM     16  C   UNL     1      46.869   2.479   7.263  0.00  0.00    +0.000 A 
ATOM     17  C   UNL     1      46.579   3.834   7.387  0.00  0.00    +0.000 A 
ATOM     18  C   UNL     1      45.651   4.275   8.319  0.00  0.00    +0.000 A 
ENDBRANCH  12  13
ENDBRANCH   8  12
ENDBRANCH   7   8
ENDBRANCH   1   7
BRANCH   4  19
ATOM     19  C   UNL     1      48.471   7.588  13.314  0.00  0.00    +0.000 C 
BRANCH  19  20
ATOM     20  N   UNL     1      49.608   6.865  13.884  0.00  0.00    +0.000 NA
ATOM     21  H   UNL     1      50.338   6.800  13.174  0.00  0.00    +0.000 HD
BRANCH  20  22
ATOM     22  C   UNL     1      50.166   7.540  15.063  0.00  0.00    +0.000 C 
BRANCH  22  23
ATOM     23  C   UNL     1      49.370   7.188  16.293  0.00  0.00    +0.000 A 
ATOM     24  C   UNL     1      49.184   5.877  16.688  0.00  0.00    +0.000 A 
ATOM     25  N   UNL     1      48.512   5.527  17.802  0.00  0.00    +0.000 NA
ATOM     26  C   UNL     1      48.040   6.567  18.507  0.00  0.00    +0.000 A 
ATOM     27  N   UNL     1      48.189   7.868  18.183  0.00  0.00    +0.000 NA
ATOM     28  N   UNL     1      48.869   8.187  17.051  0.00  0.00    +0.000 NA
ENDBRANCH  22  23
ENDBRANCH  20  22
ENDBRANCH  19  20
ENDBRANCH   4  19
TORSDOF 9
ENDMDL
MODEL 4
REMARK VINA RESULT:    -7.075      1.498      2.169
REMARK INTER + INTRA:         -11.354
REMARK INTER:                 -10.296
REMARK INTRA:                  -1.058
REMARK UNBOUND:                -0.763
REMARK  Name = 
REMARK  9 active torsions:
REMARK  status: ('A' for Active; 'I' for Inactive)
REMARK    1  A    between atoms: N_1  and  C_2
REMARK    2  A    between atoms: C_2  and  C_3
REMARK    3  A    between atoms: C_2  and  C_10
REMARK    4  A    between atoms: C_3  and  C_4
REMARK    5  A    between atoms: C_10  and  C_11
REMARK    6  A    between atoms: C_14  and  C_15
REMARK    7  A    between atoms: C_15  and  N_16
REMARK    8  A    between atoms: N_16  and  C_17
REMARK    9  A    between atoms: C_17  and  C_18
REMARK                            x       y       z     vdW  Elec       q    Type
REMARK                         _______ _______ _______ _____ _____    ______ ____
ROOT
ATOM      1  C   UNL     1      46.166   7.105  12.595  0.00  0.00    +0.000 A 
ATOM      2  C   UNL     1      47.153   6.109  12.648  0.00  0.00    +0.000 A 
ATOM      3  C   UNL     1      48.382   6.357  13.281  0.00  0.00    +0.000 A 
ATOM      4  C   UNL     1      48.630   7.583  13.903  0.00  0.00    +0.000 A 
ATOM      5  C   UNL     1      47.611   8.543  13.920  0.00  0.00    +0.000 A 
ATOM      6  C   UNL     1      46.392   8.304  13.266  0.00  0.00    +0.000 A 
ENDROOT
BRANCH   1   7
ATOM      7  C   UNL     1      44.904   6.901  11.777  0.00  0.00    +0.000 C 
BRANCH   7   8
ATOM      8  C   UNL     1      44.196   5.543  11.969  0.00  0.00    +0.000 C 
BRANCH   8   9
ATOM      9  N   UNL     1      43.236   5.628  13.094  0.00  0.00    +0.000 NA
ATOM     10  H   UNL     1      43.296   4.752  13.620  0.00  0.00    +0.000 HD
ATOM     11  H   UNL     1      42.283   5.641  12.731  0.00  0.00    +0.000 HD
ENDBRANCH   8   9
BRANCH   8  12
ATOM     12  C   UNL     1      43.461   5.062  10.691  0.00  0.00    +0.000 C 
BRANCH  12  13
ATOM     13  C   UNL     1      44.292   4.124   9.845  0.00  0.00    +0.000 A 
ATOM     14  C   UNL     1      44.227   2.734  10.018  0.00  0.00    +0.000 A 
ATOM     15  C   UNL     1      44.954   1.880   9.187  0.00  0.00    +0.000 A 
ATOM     16  C   UNL     1      45.765   2.409   8.183  0.00  0.00    +0.000 A 
ATOM     17  C   UNL     1      45.862   3.788   8.031  0.00  0.00    +0.000 A 
ATOM     18  C   UNL     1      45.135   4.641   8.848  0.00  0.00    +0.000 A 
ENDBRANCH  12  13
ENDBRANCH   8  12
ENDBRANCH   7   8
ENDBRANCH   1   7
BRANCH   4  19
ATOM     19  C   UNL     1      49.964   7.852  14.569  0.00  0.00    +0.000 C 
BRANCH  19  20
ATOM     20  N   UNL     1      50.400   6.697  15.355  0.00  0.00    +0.000 NA
ATOM     21  H   UNL     1      51.389   6.810  15.575  0.00  0.00    +0.000 HD
BRANCH  20  22
ATOM     22  C   UNL     1      49.656   6.566  16.615  0.00  0.00    +0.000 C 
BRANCH  22  23
ATOM     23  C   UNL     1      49.065   5.184  16.732  0.00  0.00    +0.000 A 
ATOM     24  C   UNL     1      47.706   4.963  16.623  0.00  0.00    +0.000 A 
ATOM     25  N   UNL     1      47.148   3.738  16.683  0.00  0.00    +0.000 NA
ATOM     26  C   UNL     1      48.030   2.741  16.851  0.00  0.00    +0.000 A 
ATOM     27  N   UNL     1      49.367   2.885  16.959  0.00  0.00    +0.000 NA
ATOM     28  N   UNL     1      49.898   4.133  16.899  0.00  0.00    +0.000 NA
ENDBRANCH  22  23
ENDBRANCH  20  22
ENDBRANCH  19  20
ENDBRANCH   4  19
TORSDOF 9
ENDMDL
MODEL 5
REMARK VINA RESULT:    -7.006      2.311      4.166
REMARK INTER + INTRA:         -11.251
REMARK INTER:                 -10.916
REMARK INTRA:                  -0.335
REMARK UNBOUND:                -0.763
REMARK  Name = 
REMARK  9 active torsions:
REMARK  status: ('A' for Active; 'I' for Inactive)
REMARK    1  A    between atoms: N_1  and  C_2
REMARK    2  A    between atoms: C_2  and  C_3
REMARK    3  A    between atoms: C_2  and  C_10
REMARK    4  A    between atoms: C_3  and  C_4
REMARK    5  A    between atoms: C_10  and  C_11
REMARK    6  A    between atoms: C_14  and  C_15
REMARK    7  A    between atoms: C_15  and  N_16
REMARK    8  A    between atoms: N_16  and  C_17
REMARK    9  A    between atoms: C_17  and  C_18
REMARK                            x       y       z     vdW  Elec       q    Type
REMARK                         _______ _______ _______ _____ _____    ______ ____
ROOT
ATOM      1  C   UNL     1      45.391   3.297   8.433  0.00  0.00    +0.000 A 
ATOM      2  C   UNL     1      44.626   2.538   9.332  0.00  0.00    +0.000 A 
ATOM      3  C   UNL     1      44.281   3.060  10.590  0.00  0.00    +0.000 A 
ATOM      4  C   UNL     1      44.658   4.355  10.954  0.00  0.00    +0.000 A 
ATOM      5  C   UNL     1      45.350   5.137  10.022  0.00  0.00    +0.000 A 
ATOM      6  C   UNL     1      45.716   4.608   8.774  0.00  0.00    +0.000 A 
ENDROOT
BRANCH   1   7
ATOM      7  C   UNL     1      45.902   2.683   7.143  0.00  0.00    +0.000 C 
BRANCH   7   8
ATOM      8  C   UNL     1      47.134   1.763   7.284  0.00  0.00    +0.000 C 
BRANCH   8   9
ATOM      9  N   UNL     1      46.710   0.413   7.720  0.00  0.00    +0.000 NA
ATOM     10  H   UNL     1      46.542   0.452   8.729  0.00  0.00    +0.000 HD
ATOM     11  H   UNL     1      47.487  -0.239   7.618  0.00  0.00    +0.000 HD
ENDBRANCH   8   9
BRANCH   8  12
ATOM     12  C   UNL     1      47.956   1.655   5.973  0.00  0.00    +0.000 C 
BRANCH  12  13
ATOM     13  C   UNL     1      47.206   0.964   4.857  0.00  0.00    +0.000 A 
ATOM     14  C   UNL     1      46.443   1.690   3.932  0.00  0.00    +0.000 A 
ATOM     15  C   UNL     1      45.808   1.043   2.871  0.00  0.00    +0.000 A 
ATOM     16  C   UNL     1      45.917  -0.341   2.734  0.00  0.00    +0.000 A 
ATOM     17  C   UNL     1      46.643  -1.070   3.669  0.00  0.00    +0.000 A 
ATOM     18  C   UNL     1      47.284  -0.431   4.721  0.00  0.00    +0.000 A 
ENDBRANCH  12  13
ENDBRANCH   8  12
ENDBRANCH   7   8
ENDBRANCH   1   7
BRANCH   4  19
ATOM     19  C   UNL     1      44.300   4.906  12.320  0.00  0.00    +0.000 C 
BRANCH  19  20
ATOM     20  N   UNL     1      45.133   4.306  13.362  0.00  0.00    +0.000 NA
ATOM     21  H   UNL     1      45.499   3.420  13.013  0.00  0.00    +0.000 HD
BRANCH  20  22
ATOM     22  C   UNL     1      46.268   5.162  13.733  0.00  0.00    +0.000 C 
BRANCH  22  23
ATOM     23  C   UNL     1      47.151   4.457  14.730  0.00  0.00    +0.000 A 
ATOM     24  C   UNL     1      47.728   5.128  15.792  0.00  0.00    +0.000 A 
ATOM     25  N   UNL     1      48.489   4.522  16.724  0.00  0.00    +0.000 NA
ATOM     26  C   UNL     1      48.636   3.201  16.539  0.00  0.00    +0.000 A 
ATOM     27  N   UNL     1      48.097   2.485  15.531  0.00  0.00    +0.000 NA
ATOM     28  N   UNL     1      47.338   3.125  14.605  0.00  0.00    +0.000 NA
ENDBRANCH  22  23
ENDBRANCH  20  22
ENDBRANCH  19  20
ENDBRANCH   4  19
TORSDOF 9
ENDMDL
MODEL 6
REMARK VINA RESULT:    -6.971      3.051      5.546
REMARK INTER + INTRA:         -11.198
REMARK INTER:                 -10.654
REMARK INTRA:                  -0.544
REMARK UNBOUND:                -0.763
REMARK  Name = 
REMARK  9 active torsions:
REMARK  status: ('A' for Active; 'I' for Inactive)
REMARK    1  A    between atoms: N_1  and  C_2
REMARK    2  A    between atoms: C_2  and  C_3
REMARK    3  A    between atoms: C_2  and  C_10
REMARK    4  A    between atoms: C_3  and  C_4
REMARK    5  A    between atoms: C_10  and  C_11
REMARK    6  A    between atoms: C_14  and  C_15
REMARK    7  A    between atoms: C_15  and  N_16
REMARK    8  A    between atoms: N_16  and  C_17
REMARK    9  A    between atoms: C_17  and  C_18
REMARK                            x       y       z     vdW  Elec       q    Type
REMARK                         _______ _______ _______ _____ _____    ______ ____
ROOT
ATOM      1  C   UNL     1      45.935   2.554   8.068  0.00  0.00    +0.000 A 
ATOM      2  C   UNL     1      45.074   1.720   8.797  0.00  0.00    +0.000 A 
ATOM      3  C   UNL     1      44.258   2.250   9.810  0.00  0.00    +0.000 A 
ATOM      4  C   UNL     1      44.258   3.620  10.084  0.00  0.00    +0.000 A 
ATOM      5  C   UNL     1      45.057   4.459   9.298  0.00  0.00    +0.000 A 
ATOM      6  C   UNL     1      45.891   3.927   8.303  0.00  0.00    +0.000 A 
ENDROOT
BRANCH   1   7
ATOM      7  C   UNL     1      46.934   1.968   7.088  0.00  0.00    +0.000 C 
BRANCH   7   8
ATOM      8  C   UNL     1      46.708   2.335   5.606  0.00  0.00    +0.000 C 
BRANCH   8   9
ATOM      9  N   UNL     1      46.965   3.780   5.398  0.00  0.00    +0.000 NA
ATOM     10  H   UNL     1      47.834   3.866   4.865  0.00  0.00    +0.000 HD
ATOM     11  H   UNL     1      47.170   4.223   6.293  0.00  0.00    +0.000 HD
ENDBRANCH   8   9
BRANCH   8  12
ATOM     12  C   UNL     1      47.592   1.504   4.640  0.00  0.00    +0.000 C 
BRANCH  12  13
ATOM     13  C   UNL     1      46.790   0.619   3.713  0.00  0.00    +0.000 A 
ATOM     14  C   UNL     1      46.958  -0.773   3.707  0.00  0.00    +0.000 A 
ATOM     15  C   UNL     1      46.165  -1.581   2.891  0.00  0.00    +0.000 A 
ATOM     16  C   UNL     1      45.205  -1.004   2.060  0.00  0.00    +0.000 A 
ATOM     17  C   UNL     1      45.059   0.379   2.035  0.00  0.00    +0.000 A 
ATOM     18  C   UNL     1      45.839   1.187   2.852  0.00  0.00    +0.000 A 
ENDBRANCH  12  13
ENDBRANCH   8  12
ENDBRANCH   7   8
ENDBRANCH   1   7
BRANCH   4  19
ATOM     19  C   UNL     1      43.388   4.184  11.189  0.00  0.00    +0.000 C 
BRANCH  19  20
ATOM     20  N   UNL     1      43.851   5.512  11.594  0.00  0.00    +0.000 NA
ATOM     21  H   UNL     1      43.055   6.149  11.584  0.00  0.00    +0.000 HD
BRANCH  20  22
ATOM     22  C   UNL     1      44.432   5.515  12.943  0.00  0.00    +0.000 C 
BRANCH  22  23
ATOM     23  C   UNL     1      45.883   5.918  12.886  0.00  0.00    +0.000 A 
ATOM     24  C   UNL     1      46.827   5.356  13.724  0.00  0.00    +0.000 A 
ATOM     25  N   UNL     1      48.138   5.663  13.674  0.00  0.00    +0.000 NA
ATOM     26  C   UNL     1      48.455   6.563  12.729  0.00  0.00    +0.000 A 
ATOM     27  N   UNL     1      47.587   7.145  11.877  0.00  0.00    +0.000 NA
ATOM     28  N   UNL     1      46.272   6.817  11.955  0.00  0.00    +0.000 NA
ENDBRANCH  22  23
ENDBRANCH  20  22
ENDBRANCH  19  20
ENDBRANCH   4  19
TORSDOF 9
ENDMDL
MODEL 7
REMARK VINA RESULT:    -6.807      4.335      6.321
REMARK INTER + INTRA:         -10.952
REMARK INTER:                  -9.990
REMARK INTRA:                  -0.962
REMARK UNBOUND:                -0.763
REMARK  Name = 
REMARK  9 active torsions:
REMARK  status: ('A' for Active; 'I' for Inactive)
REMARK    1  A    between atoms: N_1  and  C_2
REMARK    2  A    between atoms: C_2  and  C_3
REMARK    3  A    between atoms: C_2  and  C_10
REMARK    4  A    between atoms: C_3  and  C_4
REMARK    5  A    between atoms: C_10  and  C_11
REMARK    6  A    between atoms: C_14  and  C_15
REMARK    7  A    between atoms: C_15  and  N_16
REMARK    8  A    between atoms: N_16  and  C_17
REMARK    9  A    between atoms: C_17  and  C_18
REMARK                            x       y       z     vdW  Elec       q    Type
REMARK                         _______ _______ _______ _____ _____    ______ ____
ROOT
ATOM      1  C   UNL     1      45.301   5.090  12.187  0.00  0.00    +0.000 A 
ATOM      2  C   UNL     1      46.538   5.702  11.931  0.00  0.00    +0.000 A 
ATOM      3  C   UNL     1      46.628   7.097  11.798  0.00  0.00    +0.000 A 
ATOM      4  C   UNL     1      45.499   7.904  11.958  0.00  0.00    +0.000 A 
ATOM      5  C   UNL     1      44.284   7.296  12.295  0.00  0.00    +0.000 A 
ATOM      6  C   UNL     1      44.188   5.900  12.404  0.00  0.00    +0.000 A 
ENDROOT
BRANCH   1   7
ATOM      7  C   UNL     1      45.167   3.578  12.171  0.00  0.00    +0.000 C 
BRANCH   7   8
ATOM      8  C   UNL     1      44.271   3.000  11.055  0.00  0.00    +0.000 C 
BRANCH   8   9
ATOM      9  N   UNL     1      42.860   2.971  11.504  0.00  0.00    +0.000 NA
ATOM     10  H   UNL     1      42.559   3.940  11.642  0.00  0.00    +0.000 HD
ATOM     11  H   UNL     1      42.804   2.553  12.432  0.00  0.00    +0.000 HD
ENDBRANCH   8   9
BRANCH   8  12
ATOM     12  C   UNL     1      44.381   3.791   9.726  0.00  0.00    +0.000 C 
BRANCH  12  13
ATOM     13  C   UNL     1      45.362   3.182   8.750  0.00  0.00    +0.000 A 
ATOM     14  C   UNL     1      45.658   1.812   8.774  0.00  0.00    +0.000 A 
ATOM     15  C   UNL     1      46.519   1.255   7.827  0.00  0.00    +0.000 A 
ATOM     16  C   UNL     1      47.104   2.066   6.855  0.00  0.00    +0.000 A 
ATOM     17  C   UNL     1      46.842   3.432   6.849  0.00  0.00    +0.000 A 
ATOM     18  C   UNL     1      45.980   3.989   7.783  0.00  0.00    +0.000 A 
ENDBRANCH  12  13
ENDBRANCH   8  12
ENDBRANCH   7   8
ENDBRANCH   1   7
BRANCH   4  19
ATOM     19  C   UNL     1      45.599   9.408  11.796  0.00  0.00    +0.000 C 
BRANCH  19  20
ATOM     20  N   UNL     1      44.496   9.921  10.982  0.00  0.00    +0.000 NA
ATOM     21  H   UNL     1      43.745   9.231  10.984  0.00  0.00    +0.000 HD
BRANCH  20  22
ATOM     22  C   UNL     1      43.962  11.189  11.498  0.00  0.00    +0.000 C 
BRANCH  22  23
ATOM     23  C   UNL     1      42.458  11.131  11.572  0.00  0.00    +0.000 A 
ATOM     24  C   UNL     1      41.738  10.130  10.948  0.00  0.00    +0.000 A 
ATOM     25  N   UNL     1      40.397  10.025  11.026  0.00  0.00    +0.000 NA
ATOM     26  C   UNL     1      39.814  10.977  11.772  0.00  0.00    +0.000 A 
ATOM     27  N   UNL     1      40.456  11.977  12.411  0.00  0.00    +0.000 NA
ATOM     28  N   UNL     1      41.808  12.057  12.310  0.00  0.00    +0.000 NA
ENDBRANCH  22  23
ENDBRANCH  20  22
ENDBRANCH  19  20
ENDBRANCH   4  19
TORSDOF 9
ENDMDL
MODEL 8
REMARK VINA RESULT:    -6.717      3.002      4.574
REMARK INTER + INTRA:         -10.818
REMARK INTER:                 -10.193
REMARK INTRA:                  -0.625
REMARK UNBOUND:                -0.763
REMARK  Name = 
REMARK  9 active torsions:
REMARK  status: ('A' for Active; 'I' for Inactive)
REMARK    1  A    between atoms: N_1  and  C_2
REMARK    2  A    between atoms: C_2  and  C_3
REMARK    3  A    between atoms: C_2  and  C_10
REMARK    4  A    between atoms: C_3  and  C_4
REMARK    5  A    between atoms: C_10  and  C_11
REMARK    6  A    between atoms: C_14  and  C_15
REMARK    7  A    between atoms: C_15  and  N_16
REMARK    8  A    between atoms: N_16  and  C_17
REMARK    9  A    between atoms: C_17  and  C_18
REMARK                            x       y       z     vdW  Elec       q    Type
REMARK                         _______ _______ _______ _____ _____    ______ ____
ROOT
ATOM      1  C   UNL     1      45.281   5.014  11.450  0.00  0.00    +0.000 A 
ATOM      2  C   UNL     1      45.661   4.449  12.677  0.00  0.00    +0.000 A 
ATOM      3  C   UNL     1      46.653   5.056  13.464  0.00  0.00    +0.000 A 
ATOM      4  C   UNL     1      47.251   6.253  13.061  0.00  0.00    +0.000 A 
ATOM      5  C   UNL     1      46.810   6.856  11.877  0.00  0.00    +0.000 A 
ATOM      6  C   UNL     1      45.836   6.237  11.078  0.00  0.00    +0.000 A 
ENDROOT
BRANCH   1   7
ATOM      7  C   UNL     1      44.330   4.281  10.522  0.00  0.00    +0.000 C 
BRANCH   7   8
ATOM      8  C   UNL     1      44.414   2.740  10.562  0.00  0.00    +0.000 C 
BRANCH   8   9
ATOM      9  N   UNL     1      43.377   2.201  11.471  0.00  0.00    +0.000 NA
ATOM     10  H   UNL     1      43.652   2.435  12.429  0.00  0.00    +0.000 HD
ATOM     11  H   UNL     1      43.395   1.182  11.444  0.00  0.00    +0.000 HD
ENDBRANCH   8   9
BRANCH   8  12
ATOM     12  C   UNL     1      44.267   2.094   9.159  0.00  0.00    +0.000 C 
BRANCH  12  13
ATOM     13  C   UNL     1      45.491   2.273   8.291  0.00  0.00    +0.000 A 
ATOM     14  C   UNL     1      45.822   3.522   7.744  0.00  0.00    +0.000 A 
ATOM     15  C   UNL     1      46.989   3.683   6.996  0.00  0.00    +0.000 A 
ATOM     16  C   UNL     1      47.831   2.594   6.775  0.00  0.00    +0.000 A 
ATOM     17  C   UNL     1      47.489   1.345   7.284  0.00  0.00    +0.000 A 
ATOM     18  C   UNL     1      46.335   1.181   8.036  0.00  0.00    +0.000 A 
ENDBRANCH  12  13
ENDBRANCH   8  12
ENDBRANCH   7   8
ENDBRANCH   1   7
BRANCH   4  19
ATOM     19  C   UNL     1      48.334   6.894  13.905  0.00  0.00    +0.000 C 
BRANCH  19  20
ATOM     20  N   UNL     1      49.620   6.880  13.206  0.00  0.00    +0.000 NA
ATOM     21  H   UNL     1      49.523   6.314  12.363  0.00  0.00    +0.000 HD
BRANCH  20  22
ATOM     22  C   UNL     1      50.058   8.226  12.813  0.00  0.00    +0.000 C 
BRANCH  22  23
ATOM     23  C   UNL     1      51.337   8.149  12.021  0.00  0.00    +0.000 A 
ATOM     24  C   UNL     1      51.363   7.663  10.727  0.00  0.00    +0.000 A 
ATOM     25  N   UNL     1      52.480   7.617   9.976  0.00  0.00    +0.000 NA
ATOM     26  C   UNL     1      53.574   8.093  10.591  0.00  0.00    +0.000 A 
ATOM     27  N   UNL     1      53.619   8.586  11.846  0.00  0.00    +0.000 NA
ATOM     28  N   UNL     1      52.476   8.615  12.578  0.00  0.00    +0.000 NA
ENDBRANCH  22  23
ENDBRANCH  20  22
ENDBRANCH  19  20
ENDBRANCH   4  19
TORSDOF 9
ENDMDL
MODEL 9
REMARK VINA RESULT:    -6.292      3.078      7.897
REMARK INTER + INTRA:         -10.182
REMARK INTER:                  -8.930
REMARK INTRA:                  -1.252
REMARK UNBOUND:                -0.763
REMARK  Name = 
REMARK  9 active torsions:
REMARK  status: ('A' for Active; 'I' for Inactive)
REMARK    1  A    between atoms: N_1  and  C_2
REMARK    2  A    between atoms: C_2  and  C_3
REMARK    3  A    between atoms: C_2  and  C_10
REMARK    4  A    between atoms: C_3  and  C_4
REMARK    5  A    between atoms: C_10  and  C_11
REMARK    6  A    between atoms: C_14  and  C_15
REMARK    7  A    between atoms: C_15  and  N_16
REMARK    8  A    between atoms: N_16  and  C_17
REMARK    9  A    between atoms: C_17  and  C_18
REMARK                            x       y       z     vdW  Elec       q    Type
REMARK                         _______ _______ _______ _____ _____    ______ ____
ROOT
ATOM      1  C   UNL     1      47.259   6.953  12.434  0.00  0.00    +0.000 A 
ATOM      2  C   UNL     1      47.138   5.713  13.081  0.00  0.00    +0.000 A 
ATOM      3  C   UNL     1      45.890   5.075  13.170  0.00  0.00    +0.000 A 
ATOM      4  C   UNL     1      44.756   5.640  12.583  0.00  0.00    +0.000 A 
ATOM      5  C   UNL     1      44.897   6.835  11.868  0.00  0.00    +0.000 A 
ATOM      6  C   UNL     1      46.140   7.486  11.800  0.00  0.00    +0.000 A 
ENDROOT
BRANCH   1   7
ATOM      7  C   UNL     1      48.566   7.722  12.475  0.00  0.00    +0.000 C 
BRANCH   7   8
ATOM      8  C   UNL     1      48.528   9.063  13.239  0.00  0.00    +0.000 C 
BRANCH   8   9
ATOM      9  N   UNL     1      49.197   8.916  14.552  0.00  0.00    +0.000 NA
ATOM     10  H   UNL     1      48.646   9.435  15.241  0.00  0.00    +0.000 HD
ATOM     11  H   UNL     1      50.097   9.395  14.533  0.00  0.00    +0.000 HD
ENDBRANCH   8   9
BRANCH   8  12
ATOM     12  C   UNL     1      49.182  10.225  12.447  0.00  0.00    +0.000 C 
BRANCH  12  13
ATOM     13  C   UNL     1      48.228  10.900  11.488  0.00  0.00    +0.000 A 
ATOM     14  C   UNL     1      46.856  10.983  11.760  0.00  0.00    +0.000 A 
ATOM     15  C   UNL     1      45.999  11.665  10.895  0.00  0.00    +0.000 A 
ATOM     16  C   UNL     1      46.505  12.258   9.738  0.00  0.00    +0.000 A 
ATOM     17  C   UNL     1      47.860  12.148   9.444  0.00  0.00    +0.000 A 
ATOM     18  C   UNL     1      48.717  11.480  10.306  0.00  0.00    +0.000 A 
ENDBRANCH  12  13
ENDBRANCH   8  12
ENDBRANCH   7   8
ENDBRANCH   1   7
BRANCH   4  19
ATOM     19  C   UNL     1      43.408   4.956  12.697  0.00  0.00    +0.000 C 
BRANCH  19  20
ATOM     20  N   UNL     1      42.979   4.425  11.403  0.00  0.00    +0.000 NA
ATOM     21  H   UNL     1      43.288   5.067  10.673  0.00  0.00    +0.000 HD
BRANCH  20  22
ATOM     22  C   UNL     1      43.547   3.099  11.127  0.00  0.00    +0.000 C 
BRANCH  22  23
ATOM     23  C   UNL     1      44.388   3.141   9.877  0.00  0.00    +0.000 A 
ATOM     24  C   UNL     1      44.596   4.315   9.180  0.00  0.00    +0.000 A 
ATOM     25  N   UNL     1      45.374   4.397   8.083  0.00  0.00    +0.000 NA
ATOM     26  C   UNL     1      45.941   3.235   7.724  0.00  0.00    +0.000 A 
ATOM     27  N   UNL     1      45.786   2.056   8.361  0.00  0.00    +0.000 NA
ATOM     28  N   UNL     1      44.992   2.006   9.462  0.00  0.00    +0.000 NA
ENDBRANCH  22  23
ENDBRANCH  20  22
ENDBRANCH  19  20
ENDBRANCH   4  19
TORSDOF 9
ENDMDL
