MODEL 1
REMARK VINA RESULT:    -8.085      0.000      0.000
REMARK INTER + INTRA:         -13.049
REMARK INTER:                 -11.867
REMARK INTRA:                  -1.183
REMARK UNBOUND:                -1.183
REMARK  Name = 
REMARK  12 active torsions:
REMARK  status: ('A' for Active; 'I' for Inactive)
REMARK    1  A    between atoms: C_1  and  O_2
REMARK    2  A    between atoms: O_2  and  C_3
REMARK    3  A    between atoms: C_5  and  C_6
REMARK    4  A    between atoms: C_6  and  C_7
REMARK    5  A    between atoms: C_6  and  C_8
REMARK    6  A    between atoms: C_6  and  C_9
REMARK    7  A    between atoms: C_9  and  O_10
REMARK    8  A    between atoms: O_10  and  C_11
REMARK    9  A    between atoms: C_14  and  C_15
REMARK   10  A    between atoms: C_15  and  O_17
REMARK   11  A    between atoms: C_22  and  C_23
REMARK   12  A    between atoms: C_23  and  N_24
REMARK                            x       y       z     vdW  Elec       q    Type
REMARK                         _______ _______ _______ _____ _____    ______ ____
ROOT
ATOM      1  C   UNL     1      43.667   4.614  11.670  0.00  0.00    +0.000 C 
ATOM      2  C   UNL     1      43.603   3.300  12.481  0.00  0.00    +0.000 C 
ATOM      3  C   UNL     1      42.394   5.441  11.950  0.00  0.00    +0.000 C 
ENDROOT
BRANCH   1   6
ATOM      4  C   UNL     1      46.907   5.639  13.520  0.00  0.00    +0.000 A 
ATOM      5  C   UNL     1      45.759   4.944  13.111  0.00  0.00    +0.000 A 
ATOM      6  C   UNL     1      44.911   5.428  12.093  0.00  0.00    +0.000 A 
ATOM      7  C   UNL     1      45.246   6.659  11.510  0.00  0.00    +0.000 A 
ATOM      8  C   UNL     1      46.391   7.353  11.900  0.00  0.00    +0.000 A 
ATOM      9  C   UNL     1      47.246   6.844  12.888  0.00  0.00    +0.000 A 
BRANCH   4  11
ATOM     10  C   UNL     1      47.177   4.364  15.521  0.00  0.00    +0.000 C 
ATOM     11  O   UNL     1      47.729   5.232  14.539  0.00  0.00    +0.000 OA
ENDBRANCH   4  11
BRANCH   9  12
ATOM     12  C   UNL     1      48.517   7.596  13.200  0.00  0.00    +0.000 C 
BRANCH  12  13
ATOM     13  N   UNL     1      49.692   6.756  12.953  0.00  0.00    +0.000 NA
ATOM     14  H   UNL     1      49.374   5.889  12.521  0.00  0.00    +0.000 HD
ATOM     15  H   UNL     1      50.106   6.497  13.845  0.00  0.00    +0.000 HD
ENDBRANCH  12  13
ENDBRANCH   9  12
ENDBRANCH   1   6
BRANCH   1  16
ATOM     16  C   UNL     1      43.699   4.259  10.158  0.00  0.00    +0.000 C 
BRANCH  16  17
ATOM     17  O   UNL     1      43.888   2.857   9.915  0.00  0.00    +0.000 OA
BRANCH  17  18
ATOM     18  C   UNL     1      44.898   2.648   8.994  0.00  0.00    +0.000 A 
ATOM     19  C   UNL     1      45.330   3.743   8.263  0.00  0.00    +0.000 A 
ATOM     20  C   UNL     1      46.351   3.556   7.327  0.00  0.00    +0.000 A 
ATOM     21  C   UNL     1      46.907   2.282   7.168  0.00  0.00    +0.000 A 
ATOM     22  C   UNL     1      46.397   1.246   7.929  0.00  0.00    +0.000 A 
ATOM     23  N   UNL     1      45.412   1.406   8.844  0.00  0.00    +0.000 NA
BRANCH  21  24
ATOM     24  C   UNL     1      47.977   1.959   6.204  0.00  0.00    +0.000 C 
ATOM     25  O   UNL     1      47.917   1.000   5.455  0.00  0.00    +0.000 OA
BRANCH  24  26
ATOM     26  O   UNL     1      49.039   2.789   6.255  0.00  0.00    +0.000 OA
ATOM     27  H   UNL     1      48.858   3.689   6.581  0.00  0.00    +0.000 HD
ENDBRANCH  24  26
ENDBRANCH  21  24
ENDBRANCH  17  18
ENDBRANCH  16  17
ENDBRANCH   1  16
TORSDOF 9
ENDMDL
MODEL 2
REMARK VINA RESULT:    -7.677      0.998      1.786
REMARK INTER + INTRA:         -12.450
REMARK INTER:                 -11.375
REMARK INTRA:                  -1.075
REMARK UNBOUND:                -1.183
REMARK  Name = 
REMARK  12 active torsions:
REMARK  status: ('A' for Active; 'I' for Inactive)
REMARK    1  A    between atoms: C_1  and  O_2
REMARK    2  A    between atoms: O_2  and  C_3
REMARK    3  A    between atoms: C_5  and  C_6
REMARK    4  A    between atoms: C_6  and  C_7
REMARK    5  A    between atoms: C_6  and  C_8
REMARK    6  A    between atoms: C_6  and  C_9
REMARK    7  A    between atoms: C_9  and  O_10
REMARK    8  A    between atoms: O_10  and  C_11
REMARK    9  A    between atoms: C_14  and  C_15
REMARK   10  A    between atoms: C_15  and  O_17
REMARK   11  A    between atoms: C_22  and  C_23
REMARK   12  A    between atoms: C_23  and  N_24
REMARK                            x       y       z     vdW  Elec       q    Type
REMARK                         _______ _______ _______ _____ _____    ______ ____
ROOT
ATOM      1  C   UNL     1      43.668   4.411  11.679  0.00  0.00    +0.000 C 
ATOM      2  C   UNL     1      43.306   3.044  12.302  0.00  0.00    +0.000 C 
ATOM      3  C   UNL     1      42.499   5.394  11.906  0.00  0.00    +0.000 C 
ENDROOT
BRANCH   1   6
ATOM      4  C   UNL     1      46.379   6.901  12.870  0.00  0.00    +0.000 A 
ATOM      5  C   UNL     1      45.240   6.345  12.268  0.00  0.00    +0.000 A 
ATOM      6  C   UNL     1      44.945   4.968  12.347  0.00  0.00    +0.000 A 
ATOM      7  C   UNL     1      45.855   4.156  13.039  0.00  0.00    +0.000 A 
ATOM      8  C   UNL     1      46.984   4.699  13.652  0.00  0.00    +0.000 A 
ATOM      9  C   UNL     1      47.248   6.074  13.598  0.00  0.00    +0.000 A 
BRANCH   4  11
ATOM     10  C   UNL     1      45.696   9.161  12.514  0.00  0.00    +0.000 C 
ATOM     11  O   UNL     1      46.732   8.223  12.775  0.00  0.00    +0.000 OA
ENDBRANCH   4  11
BRANCH   9  12
ATOM     12  C   UNL     1      48.436   6.613  14.358  0.00  0.00    +0.000 C 
BRANCH  12  13
ATOM     13  N   UNL     1      49.521   6.971  13.442  0.00  0.00    +0.000 NA
ATOM     14  H   UNL     1      49.585   6.244  12.730  0.00  0.00    +0.000 HD
ATOM     15  H   UNL     1      50.401   6.953  13.950  0.00  0.00    +0.000 HD
ENDBRANCH  12  13
ENDBRANCH   9  12
ENDBRANCH   1   6
BRANCH   1  16
ATOM     16  C   UNL     1      43.857   4.219  10.149  0.00  0.00    +0.000 C 
BRANCH  16  17
ATOM     17  O   UNL     1      43.923   2.839   9.760  0.00  0.00    +0.000 OA
BRANCH  17  18
ATOM     18  C   UNL     1      44.942   2.631   8.849  0.00  0.00    +0.000 A 
ATOM     19  C   UNL     1      45.297   3.696   8.037  0.00  0.00    +0.000 A 
ATOM     20  C   UNL     1      46.327   3.509   7.109  0.00  0.00    +0.000 A 
ATOM     21  C   UNL     1      46.967   2.268   7.040  0.00  0.00    +0.000 A 
ATOM     22  C   UNL     1      46.530   1.259   7.879  0.00  0.00    +0.000 A 
ATOM     23  N   UNL     1      45.539   1.419   8.787  0.00  0.00    +0.000 NA
BRANCH  21  24
ATOM     24  C   UNL     1      48.054   1.947   6.095  0.00  0.00    +0.000 C 
ATOM     25  O   UNL     1      47.988   1.017   5.310  0.00  0.00    +0.000 OA
BRANCH  24  26
ATOM     26  O   UNL     1      49.138   2.743   6.205  0.00  0.00    +0.000 OA
ATOM     27  H   UNL     1      49.474   2.878   7.109  0.00  0.00    +0.000 HD
ENDBRANCH  24  26
ENDBRANCH  21  24
ENDBRANCH  17  18
ENDBRANCH  16  17
ENDBRANCH   1  16
TORSDOF 9
ENDMDL
MODEL 3
REMARK VINA RESULT:    -6.908      1.683      2.453
REMARK INTER + INTRA:         -11.321
REMARK INTER:                 -10.467
REMARK INTRA:                  -0.854
REMARK UNBOUND:                -1.183
REMARK  Name = 
REMARK  12 active torsions:
REMARK  status: ('A' for Active; 'I' for Inactive)
REMARK    1  A    between atoms: C_1  and  O_2
REMARK    2  A    between atoms: O_2  and  C_3
REMARK    3  A    between atoms: C_5  and  C_6
REMARK    4  A    between atoms: C_6  and  C_7
REMARK    5  A    between atoms: C_6  and  C_8
REMARK    6  A    between atoms: C_6  and  C_9
REMARK    7  A    between atoms: C_9  and  O_10
REMARK    8  A    between atoms: O_10  and  C_11
REMARK    9  A    between atoms: C_14  and  C_15
REMARK   10  A    between atoms: C_15  and  O_17
REMARK   11  A    between atoms: C_22  and  C_23
REMARK   12  A    between atoms: C_23  and  N_24
REMARK                            x       y       z     vdW  Elec       q    Type
REMARK                         _______ _______ _______ _____ _____    ______ ____
ROOT
ATOM      1  C   UNL     1      44.488   4.722  11.966  0.00  0.00    +0.000 C 
ATOM      2  C   UNL     1      45.075   3.326  12.276  0.00  0.00    +0.000 C 
ATOM      3  C   UNL     1      43.138   4.874  12.699  0.00  0.00    +0.000 C 
ENDROOT
BRANCH   1   6
ATOM      4  C   UNL     1      45.889   8.195  12.937  0.00  0.00    +0.000 A 
ATOM      5  C   UNL     1      45.047   7.165  12.491  0.00  0.00    +0.000 A 
ATOM      6  C   UNL     1      45.462   5.818  12.452  0.00  0.00    +0.000 A 
ATOM      7  C   UNL     1      46.776   5.541  12.858  0.00  0.00    +0.000 A 
ATOM      8  C   UNL     1      47.619   6.553  13.315  0.00  0.00    +0.000 A 
ATOM      9  C   UNL     1      47.182   7.884  13.383  0.00  0.00    +0.000 A 
BRANCH   4  11
ATOM     10  C   UNL     1      45.200  10.115  11.697  0.00  0.00    +0.000 C 
ATOM     11  O   UNL     1      45.545   9.522  12.942  0.00  0.00    +0.000 OA
ENDBRANCH   4  11
BRANCH   9  12
ATOM     12  C   UNL     1      48.110   8.918  13.973  0.00  0.00    +0.000 C 
BRANCH  12  13
ATOM     13  N   UNL     1      48.660   9.781  12.924  0.00  0.00    +0.000 NA
ATOM     14  H   UNL     1      49.570  10.115  13.236  0.00  0.00    +0.000 HD
ATOM     15  H   UNL     1      48.069  10.603  12.830  0.00  0.00    +0.000 HD
ENDBRANCH  12  13
ENDBRANCH   9  12
ENDBRANCH   1   6
BRANCH   1  16
ATOM     16  C   UNL     1      44.230   4.818  10.437  0.00  0.00    +0.000 C 
BRANCH  16  17
ATOM     17  O   UNL     1      43.922   3.550   9.839  0.00  0.00    +0.000 OA
BRANCH  17  18
ATOM     18  C   UNL     1      44.915   3.165   8.958  0.00  0.00    +0.000 A 
ATOM     19  C   UNL     1      45.277   1.827   8.950  0.00  0.00    +0.000 A 
ATOM     20  C   UNL     1      46.278   1.415   8.066  0.00  0.00    +0.000 A 
ATOM     21  C   UNL     1      46.870   2.356   7.218  0.00  0.00    +0.000 A 
ATOM     22  C   UNL     1      46.457   3.672   7.311  0.00  0.00    +0.000 A 
ATOM     23  N   UNL     1      45.486   4.092   8.156  0.00  0.00    +0.000 NA
BRANCH  21  24
ATOM     24  C   UNL     1      47.944   2.044   6.254  0.00  0.00    +0.000 C 
ATOM     25  O   UNL     1      47.919   1.056   5.542  0.00  0.00    +0.000 OA
BRANCH  24  26
ATOM     26  O   UNL     1      48.968   2.922   6.261  0.00  0.00    +0.000 OA
ATOM     27  H   UNL     1      49.856   2.536   6.366  0.00  0.00    +0.000 HD
ENDBRANCH  24  26
ENDBRANCH  21  24
ENDBRANCH  17  18
ENDBRANCH  16  17
ENDBRANCH   1  16
TORSDOF 9
ENDMDL
MODEL 4
REMARK VINA RESULT:    -6.308      4.012      6.867
REMARK INTER + INTRA:         -10.442
REMARK INTER:                  -9.776
REMARK INTRA:                  -0.665
REMARK UNBOUND:                -1.183
REMARK  Name = 
REMARK  12 active torsions:
REMARK  status: ('A' for Active; 'I' for Inactive)
REMARK    1  A    between atoms: C_1  and  O_2
REMARK    2  A    between atoms: O_2  and  C_3
REMARK    3  A    between atoms: C_5  and  C_6
REMARK    4  A    between atoms: C_6  and  C_7
REMARK    5  A    between atoms: C_6  and  C_8
REMARK    6  A    between atoms: C_6  and  C_9
REMARK    7  A    between atoms: C_9  and  O_10
REMARK    8  A    between atoms: O_10  and  C_11
REMARK    9  A    between atoms: C_14  and  C_15
REMARK   10  A    between atoms: C_15  and  O_17
REMARK   11  A    between atoms: C_22  and  C_23
REMARK   12  A    between atoms: C_23  and  N_24
REMARK                            x       y       z     vdW  Elec       q    Type
REMARK                         _______ _______ _______ _____ _____    ______ ____
ROOT
ATOM      1  C   UNL     1      48.240   4.891  16.950  0.00  0.00    +0.000 C 
ATOM      2  C   UNL     1      47.361   4.912  18.221  0.00  0.00    +0.000 C 
ATOM      3  C   UNL     1      48.799   6.309  16.701  0.00  0.00    +0.000 C 
ENDROOT
BRANCH   1   6
ATOM      4  C   UNL     1      51.750   3.512  17.814  0.00  0.00    +0.000 A 
ATOM      5  C   UNL     1      50.659   4.370  17.610  0.00  0.00    +0.000 A 
ATOM      6  C   UNL     1      49.413   3.904  17.141  0.00  0.00    +0.000 A 
ATOM      7  C   UNL     1      49.306   2.535  16.859  0.00  0.00    +0.000 A 
ATOM      8  C   UNL     1      50.379   1.669  17.068  0.00  0.00    +0.000 A 
ATOM      9  C   UNL     1      51.601   2.138  17.569  0.00  0.00    +0.000 A 
BRANCH   4  11
ATOM     10  C   UNL     1      53.123   4.405  19.551  0.00  0.00    +0.000 C 
ATOM     11  O   UNL     1      52.992   3.929  18.218  0.00  0.00    +0.000 OA
ENDBRANCH   4  11
BRANCH   9  12
ATOM     12  C   UNL     1      52.694   1.138  17.862  0.00  0.00    +0.000 C 
BRANCH  12  13
ATOM     13  N   UNL     1      52.129  -0.112  18.377  0.00  0.00    +0.000 NA
ATOM     14  H   UNL     1      52.902  -0.724  18.637  0.00  0.00    +0.000 HD
ATOM     15  H   UNL     1      51.630  -0.583  17.627  0.00  0.00    +0.000 HD
ENDBRANCH  12  13
ENDBRANCH   9  12
ENDBRANCH   1   6
BRANCH   1  16
ATOM     16  C   UNL     1      47.348   4.497  15.741  0.00  0.00    +0.000 C 
BRANCH  16  17
ATOM     17  O   UNL     1      47.765   5.108  14.511  0.00  0.00    +0.000 OA
BRANCH  17  18
ATOM     18  C   UNL     1      46.852   4.861  13.503  0.00  0.00    +0.000 A 
ATOM     19  C   UNL     1      46.640   5.868  12.575  0.00  0.00    +0.000 A 
ATOM     20  C   UNL     1      45.722   5.640  11.545  0.00  0.00    +0.000 A 
ATOM     21  C   UNL     1      45.062   4.409  11.479  0.00  0.00    +0.000 A 
ATOM     22  C   UNL     1      45.325   3.472  12.461  0.00  0.00    +0.000 A 
ATOM     23  N   UNL     1      46.213   3.670  13.464  0.00  0.00    +0.000 NA
BRANCH  21  24
ATOM     24  C   UNL     1      44.065   4.057  10.449  0.00  0.00    +0.000 C 
ATOM     25  O   UNL     1      43.851   2.906  10.110  0.00  0.00    +0.000 OA
BRANCH  24  26
ATOM     26  O   UNL     1      43.444   5.117   9.892  0.00  0.00    +0.000 OA
ATOM     27  H   UNL     1      42.472   5.120   9.955  0.00  0.00    +0.000 HD
ENDBRANCH  24  26
ENDBRANCH  21  24
ENDBRANCH  17  18
ENDBRANCH  16  17
ENDBRANCH   1  16
TORSDOF 9
ENDMDL
MODEL 5
REMARK VINA RESULT:    -6.246      1.841      2.218
REMARK INTER + INTRA:         -10.350
REMARK INTER:                  -9.702
REMARK INTRA:                  -0.648
REMARK UNBOUND:                -1.183
REMARK  Name = 
REMARK  12 active torsions:
REMARK  status: ('A' for Active; 'I' for Inactive)
REMARK    1  A    between atoms: C_1  and  O_2
REMARK    2  A    between atoms: O_2  and  C_3
REMARK    3  A    between atoms: C_5  and  C_6
REMARK    4  A    between atoms: C_6  and  C_7
REMARK    5  A    between atoms: C_6  and  C_8
REMARK    6  A    between atoms: C_6  and  C_9
REMARK    7  A    between atoms: C_9  and  O_10
REMARK    8  A    between atoms: O_10  and  C_11
REMARK    9  A    between atoms: C_14  and  C_15
REMARK   10  A    between atoms: C_15  and  O_17
REMARK   11  A    between atoms: C_22  and  C_23
REMARK   12  A    between atoms: C_23  and  N_24
REMARK                            x       y       z     vdW  Elec       q    Type
REMARK                         _______ _______ _______ _____ _____    ______ ____
ROOT
ATOM      1  C   UNL     1      44.353   4.431  12.202  0.00  0.00    +0.000 C 
ATOM      2  C   UNL     1      45.474   3.425  12.550  0.00  0.00    +0.000 C 
ATOM      3  C   UNL     1      43.222   4.306  13.244  0.00  0.00    +0.000 C 
ENDROOT
BRANCH   1   6
ATOM      4  C   UNL     1      46.777   7.396  12.750  0.00  0.00    +0.000 A 
ATOM      5  C   UNL     1      46.216   6.111  12.720  0.00  0.00    +0.000 A 
ATOM      6  C   UNL     1      44.917   5.870  12.226  0.00  0.00    +0.000 A 
ATOM      7  C   UNL     1      44.184   6.979  11.780  0.00  0.00    +0.000 A 
ATOM      8  C   UNL     1      44.736   8.260  11.793  0.00  0.00    +0.000 A 
ATOM      9  C   UNL     1      46.041   8.482  12.253  0.00  0.00    +0.000 A 
BRANCH   4  11
ATOM     10  C   UNL     1      49.115   6.915  12.803  0.00  0.00    +0.000 C 
ATOM     11  O   UNL     1      48.013   7.683  13.269  0.00  0.00    +0.000 OA
ENDBRANCH   4  11
BRANCH   9  12
ATOM     12  C   UNL     1      46.613   9.876  12.156  0.00  0.00    +0.000 C 
BRANCH  12  13
ATOM     13  N   UNL     1      45.544  10.877  12.157  0.00  0.00    +0.000 NA
ATOM     14  H   UNL     1      44.857  10.605  11.456  0.00  0.00    +0.000 HD
ATOM     15  H   UNL     1      45.927  11.769  11.853  0.00  0.00    +0.000 HD
ENDBRANCH  12  13
ENDBRANCH   9  12
ENDBRANCH   1   6
BRANCH   1  16
ATOM     16  C   UNL     1      43.778   4.062  10.807  0.00  0.00    +0.000 C 
BRANCH  16  17
ATOM     17  O   UNL     1      44.453   4.725   9.727  0.00  0.00    +0.000 OA
BRANCH  17  18
ATOM     18  C   UNL     1      45.172   3.822   8.966  0.00  0.00    +0.000 A 
ATOM     19  C   UNL     1      46.000   4.337   7.981  0.00  0.00    +0.000 A 
ATOM     20  C   UNL     1      46.738   3.443   7.199  0.00  0.00    +0.000 A 
ATOM     21  C   UNL     1      46.625   2.070   7.442  0.00  0.00    +0.000 A 
ATOM     22  C   UNL     1      45.758   1.650   8.434  0.00  0.00    +0.000 A 
ATOM     23  N   UNL     1      45.038   2.498   9.206  0.00  0.00    +0.000 NA
BRANCH  21  24
ATOM     24  C   UNL     1      47.340   1.031   6.676  0.00  0.00    +0.000 C 
ATOM     25  O   UNL     1      48.158   1.298   5.814  0.00  0.00    +0.000 OA
BRANCH  24  26
ATOM     26  O   UNL     1      46.981  -0.232   6.984  0.00  0.00    +0.000 OA
ATOM     27  H   UNL     1      47.672  -0.909   6.870  0.00  0.00    +0.000 HD
ENDBRANCH  24  26
ENDBRANCH  21  24
ENDBRANCH  17  18
ENDBRANCH  16  17
ENDBRANCH   1  16
TORSDOF 9
ENDMDL
MODEL 6
REMARK VINA RESULT:    -6.230      2.223      2.856
REMARK INTER + INTRA:         -10.327
REMARK INTER:                  -9.436
REMARK INTRA:                  -0.891
REMARK UNBOUND:                -1.183
REMARK  Name = 
REMARK  12 active torsions:
REMARK  status: ('A' for Active; 'I' for Inactive)
REMARK    1  A    between atoms: C_1  and  O_2
REMARK    2  A    between atoms: O_2  and  C_3
REMARK    3  A    between atoms: C_5  and  C_6
REMARK    4  A    between atoms: C_6  and  C_7
REMARK    5  A    between atoms: C_6  and  C_8
REMARK    6  A    between atoms: C_6  and  C_9
REMARK    7  A    between atoms: C_9  and  O_10
REMARK    8  A    between atoms: O_10  and  C_11
REMARK    9  A    between atoms: C_14  and  C_15
REMARK   10  A    between atoms: C_15  and  O_17
REMARK   11  A    between atoms: C_22  and  C_23
REMARK   12  A    between atoms: C_23  and  N_24
REMARK                            x       y       z     vdW  Elec       q    Type
REMARK                         _______ _______ _______ _____ _____    ______ ____
ROOT
ATOM      1  C   UNL     1      44.904   6.142  11.791  0.00  0.00    +0.000 C 
ATOM      2  C   UNL     1      44.983   5.451  13.172  0.00  0.00    +0.000 C 
ATOM      3  C   UNL     1      43.422   6.274  11.378  0.00  0.00    +0.000 C 
ENDROOT
BRANCH   1   6
ATOM      4  C   UNL     1      47.551   8.935  12.190  0.00  0.00    +0.000 A 
ATOM      5  C   UNL     1      46.923   7.682  12.120  0.00  0.00    +0.000 A 
ATOM      6  C   UNL     1      45.541   7.547  11.873  0.00  0.00    +0.000 A 
ATOM      7  C   UNL     1      44.799   8.727  11.721  0.00  0.00    +0.000 A 
ATOM      8  C   UNL     1      45.413   9.978  11.777  0.00  0.00    +0.000 A 
ATOM      9  C   UNL     1      46.794  10.098  11.986  0.00  0.00    +0.000 A 
BRANCH   4  11
ATOM     10  C   UNL     1      49.345   8.651  13.740  0.00  0.00    +0.000 C 
ATOM     11  O   UNL     1      48.879   9.114  12.479  0.00  0.00    +0.000 OA
ENDBRANCH   4  11
BRANCH   9  12
ATOM     12  C   UNL     1      47.413  11.474  11.944  0.00  0.00    +0.000 C 
BRANCH  12  13
ATOM     13  N   UNL     1      47.819  11.903  13.284  0.00  0.00    +0.000 NA
ATOM     14  H   UNL     1      47.780  12.921  13.315  0.00  0.00    +0.000 HD
ATOM     15  H   UNL     1      48.793  11.649  13.431  0.00  0.00    +0.000 HD
ENDBRANCH  12  13
ENDBRANCH   9  12
ENDBRANCH   1   6
BRANCH   1  16
ATOM     16  C   UNL     1      45.625   5.243  10.750  0.00  0.00    +0.000 C 
BRANCH  16  17
ATOM     17  O   UNL     1      44.717   4.514   9.911  0.00  0.00    +0.000 OA
BRANCH  17  18
ATOM     18  C   UNL     1      45.403   3.776   8.964  0.00  0.00    +0.000 A 
ATOM     19  C   UNL     1      45.376   2.397   9.090  0.00  0.00    +0.000 A 
ATOM     20  C   UNL     1      46.061   1.630   8.142  0.00  0.00    +0.000 A 
ATOM     21  C   UNL     1      46.737   2.275   7.101  0.00  0.00    +0.000 A 
ATOM     22  C   UNL     1      46.723   3.657   7.070  0.00  0.00    +0.000 A 
ATOM     23  N   UNL     1      46.062   4.418   7.974  0.00  0.00    +0.000 NA
BRANCH  21  24
ATOM     24  C   UNL     1      47.505   1.576   6.053  0.00  0.00    +0.000 C 
ATOM     25  O   UNL     1      47.244   0.441   5.696  0.00  0.00    +0.000 OA
BRANCH  24  26
ATOM     26  O   UNL     1      48.539   2.285   5.557  0.00  0.00    +0.000 OA
ATOM     27  H   UNL     1      49.403   1.834   5.561  0.00  0.00    +0.000 HD
ENDBRANCH  24  26
ENDBRANCH  21  24
ENDBRANCH  17  18
ENDBRANCH  16  17
ENDBRANCH   1  16
TORSDOF 9
ENDMDL
MODEL 7
REMARK VINA RESULT:    -6.138      2.621      7.576
REMARK INTER + INTRA:         -10.191
REMARK INTER:                  -9.054
REMARK INTRA:                  -1.137
REMARK UNBOUND:                -1.183
REMARK  Name = 
REMARK  12 active torsions:
REMARK  status: ('A' for Active; 'I' for Inactive)
REMARK    1  A    between atoms: C_1  and  O_2
REMARK    2  A    between atoms: O_2  and  C_3
REMARK    3  A    between atoms: C_5  and  C_6
REMARK    4  A    between atoms: C_6  and  C_7
REMARK    5  A    between atoms: C_6  and  C_8
REMARK    6  A    between atoms: C_6  and  C_9
REMARK    7  A    between atoms: C_9  and  O_10
REMARK    8  A    between atoms: O_10  and  C_11
REMARK    9  A    between atoms: C_14  and  C_15
REMARK   10  A    between atoms: C_15  and  O_17
REMARK   11  A    between atoms: C_22  and  C_23
REMARK   12  A    between atoms: C_23  and  N_24
REMARK                            x       y       z     vdW  Elec       q    Type
REMARK                         _______ _______ _______ _____ _____    ______ ____
ROOT
ATOM      1  C   UNL     1      47.166   7.977  12.307  0.00  0.00    +0.000 C 
ATOM      2  C   UNL     1      48.408   7.642  11.449  0.00  0.00    +0.000 C 
ATOM      3  C   UNL     1      46.629   9.364  11.895  0.00  0.00    +0.000 C 
ENDROOT
BRANCH   1   6
ATOM      4  C   UNL     1      45.149   5.102  10.684  0.00  0.00    +0.000 A 
ATOM      5  C   UNL     1      46.112   6.091  10.930  0.00  0.00    +0.000 A 
ATOM      6  C   UNL     1      46.070   6.913  12.076  0.00  0.00    +0.000 A 
ATOM      7  C   UNL     1      45.001   6.720  12.964  0.00  0.00    +0.000 A 
ATOM      8  C   UNL     1      44.044   5.732  12.736  0.00  0.00    +0.000 A 
ATOM      9  C   UNL     1      44.117   4.897  11.612  0.00  0.00    +0.000 A 
BRANCH   4  11
ATOM     10  C   UNL     1      45.915   4.730   8.453  0.00  0.00    +0.000 C 
ATOM     11  O   UNL     1      45.122   4.318   9.559  0.00  0.00    +0.000 OA
ENDBRANCH   4  11
BRANCH   9  12
ATOM     12  C   UNL     1      43.104   3.787  11.469  0.00  0.00    +0.000 C 
BRANCH  12  13
ATOM     13  N   UNL     1      43.706   2.491  11.789  0.00  0.00    +0.000 NA
ATOM     14  H   UNL     1      43.865   2.456  12.795  0.00  0.00    +0.000 HD
ATOM     15  H   UNL     1      44.622   2.436  11.352  0.00  0.00    +0.000 HD
ENDBRANCH  12  13
ENDBRANCH   9  12
ENDBRANCH   1   6
BRANCH   1  16
ATOM     16  C   UNL     1      47.601   8.041  13.797  0.00  0.00    +0.000 C 
BRANCH  16  17
ATOM     17  O   UNL     1      48.778   7.267  14.072  0.00  0.00    +0.000 OA
BRANCH  17  18
ATOM     18  C   UNL     1      48.519   6.298  15.024  0.00  0.00    +0.000 A 
ATOM     19  C   UNL     1      49.111   6.453  16.267  0.00  0.00    +0.000 A 
ATOM     20  C   UNL     1      48.863   5.486  17.247  0.00  0.00    +0.000 A 
ATOM     21  C   UNL     1      48.022   4.410  16.946  0.00  0.00    +0.000 A 
ATOM     22  C   UNL     1      47.490   4.331  15.671  0.00  0.00    +0.000 A 
ATOM     23  N   UNL     1      47.714   5.258  14.710  0.00  0.00    +0.000 NA
BRANCH  21  24
ATOM     24  C   UNL     1      47.696   3.323  17.890  0.00  0.00    +0.000 C 
ATOM     25  O   UNL     1      48.463   2.962  18.764  0.00  0.00    +0.000 OA
BRANCH  24  26
ATOM     26  O   UNL     1      46.499   2.741  17.674  0.00  0.00    +0.000 OA
ATOM     27  H   UNL     1      45.756   3.089  18.200  0.00  0.00    +0.000 HD
ENDBRANCH  24  26
ENDBRANCH  21  24
ENDBRANCH  17  18
ENDBRANCH  16  17
ENDBRANCH   1  16
TORSDOF 9
ENDMDL
MODEL 8
REMARK VINA RESULT:    -5.656      4.184      8.144
REMARK INTER + INTRA:          -9.484
REMARK INTER:                  -8.168
REMARK INTRA:                  -1.316
REMARK UNBOUND:                -1.183
REMARK  Name = 
REMARK  12 active torsions:
REMARK  status: ('A' for Active; 'I' for Inactive)
REMARK    1  A    between atoms: C_1  and  O_2
REMARK    2  A    between atoms: O_2  and  C_3
REMARK    3  A    between atoms: C_5  and  C_6
REMARK    4  A    between atoms: C_6  and  C_7
REMARK    5  A    between atoms: C_6  and  C_8
REMARK    6  A    between atoms: C_6  and  C_9
REMARK    7  A    between atoms: C_9  and  O_10
REMARK    8  A    between atoms: O_10  and  C_11
REMARK    9  A    between atoms: C_14  and  C_15
REMARK   10  A    between atoms: C_15  and  O_17
REMARK   11  A    between atoms: C_22  and  C_23
REMARK   12  A    between atoms: C_23  and  N_24
REMARK                            x       y       z     vdW  Elec       q    Type
REMARK                         _______ _______ _______ _____ _____    ______ ____
ROOT
ATOM      1  C   UNL     1      48.545   8.505  12.309  0.00  0.00    +0.000 C 
ATOM      2  C   UNL     1      49.652   7.630  11.678  0.00  0.00    +0.000 C 
ATOM      3  C   UNL     1      48.507   9.868  11.586  0.00  0.00    +0.000 C 
ENDROOT
BRANCH   1   6
ATOM      4  C   UNL     1      45.834   5.745  12.306  0.00  0.00    +0.000 A 
ATOM      5  C   UNL     1      47.057   6.423  12.416  0.00  0.00    +0.000 A 
ATOM      6  C   UNL     1      47.176   7.805  12.156  0.00  0.00    +0.000 A 
ATOM      7  C   UNL     1      46.017   8.484  11.754  0.00  0.00    +0.000 A 
ATOM      8  C   UNL     1      44.793   7.824  11.652  0.00  0.00    +0.000 A 
ATOM      9  C   UNL     1      44.679   6.458  11.948  0.00  0.00    +0.000 A 
BRANCH   4  11
ATOM     10  C   UNL     1      46.596   3.752  13.376  0.00  0.00    +0.000 C 
ATOM     11  O   UNL     1      45.682   4.396  12.498  0.00  0.00    +0.000 OA
ENDBRANCH   4  11
BRANCH   9  12
ATOM     12  C   UNL     1      43.311   5.822  11.908  0.00  0.00    +0.000 C 
BRANCH  12  13
ATOM     13  N   UNL     1      42.844   5.508  13.260  0.00  0.00    +0.000 NA
ATOM     14  H   UNL     1      43.394   6.058  13.919  0.00  0.00    +0.000 HD
ATOM     15  H   UNL     1      43.048   4.533  13.462  0.00  0.00    +0.000 HD
ENDBRANCH  12  13
ENDBRANCH   9  12
ENDBRANCH   1   6
BRANCH   1  16
ATOM     16  C   UNL     1      48.903   8.749  13.801  0.00  0.00    +0.000 C 
BRANCH  16  17
ATOM     17  O   UNL     1      49.794   7.759  14.335  0.00  0.00    +0.000 OA
BRANCH  17  18
ATOM     18  C   UNL     1      49.258   7.171  15.465  0.00  0.00    +0.000 A 
ATOM     19  C   UNL     1      49.139   7.961  16.598  0.00  0.00    +0.000 A 
ATOM     20  C   UNL     1      48.597   7.388  17.753  0.00  0.00    +0.000 A 
ATOM     21  C   UNL     1      48.187   6.052  17.725  0.00  0.00    +0.000 A 
ATOM     22  C   UNL     1      48.363   5.338  16.554  0.00  0.00    +0.000 A 
ATOM     23  N   UNL     1      48.880   5.873  15.423  0.00  0.00    +0.000 NA
BRANCH  21  24
ATOM     24  C   UNL     1      47.616   5.335  18.882  0.00  0.00    +0.000 C 
ATOM     25  O   UNL     1      48.308   4.762  19.705  0.00  0.00    +0.000 OA
BRANCH  24  26
ATOM     26  O   UNL     1      46.268   5.335  18.924  0.00  0.00    +0.000 OA
ATOM     27  H   UNL     1      45.869   4.994  19.745  0.00  0.00    +0.000 HD
ENDBRANCH  24  26
ENDBRANCH  21  24
ENDBRANCH  17  18
ENDBRANCH  16  17
ENDBRANCH   1  16
TORSDOF 9
ENDMDL
MODEL 9
REMARK VINA RESULT:    -5.567      3.766      8.528
REMARK INTER + INTRA:          -9.354
REMARK INTER:                  -8.421
REMARK INTRA:                  -0.933
REMARK UNBOUND:                -1.183
REMARK  Name = 
REMARK  12 active torsions:
REMARK  status: ('A' for Active; 'I' for Inactive)
REMARK    1  A    between atoms: C_1  and  O_2
REMARK    2  A    between atoms: O_2  and  C_3
REMARK    3  A    between atoms: C_5  and  C_6
REMARK    4  A    between atoms: C_6  and  C_7
REMARK    5  A    between atoms: C_6  and  C_8
REMARK    6  A    between atoms: C_6  and  C_9
REMARK    7  A    between atoms: C_9  and  O_10
REMARK    8  A    between atoms: O_10  and  C_11
REMARK    9  A    between atoms: C_14  and  C_15
REMARK   10  A    between atoms: C_15  and  O_17
REMARK   11  A    between atoms: C_22  and  C_23
REMARK   12  A    between atoms: C_23  and  N_24
REMARK                            x       y       z     vdW  Elec       q    Type
REMARK                         _______ _______ _______ _____ _____    ______ ____
ROOT
ATOM      1  C   UNL     1      47.846   7.334  13.060  0.00  0.00    +0.000 C 
ATOM      2  C   UNL     1      48.544   7.671  11.723  0.00  0.00    +0.000 C 
ATOM      3  C   UNL     1      47.096   8.585  13.566  0.00  0.00    +0.000 C 
ENDROOT
BRANCH   1   6
ATOM      4  C   UNL     1      44.783   5.351  11.776  0.00  0.00    +0.000 A 
ATOM      5  C   UNL     1      45.718   6.370  12.012  0.00  0.00    +0.000 A 
ATOM      6  C   UNL     1      46.839   6.182  12.848  0.00  0.00    +0.000 A 
ATOM      7  C   UNL     1      46.976   4.930  13.464  0.00  0.00    +0.000 A 
ATOM      8  C   UNL     1      46.060   3.906  13.228  0.00  0.00    +0.000 A 
ATOM      9  C   UNL     1      44.970   4.092  12.367  0.00  0.00    +0.000 A 
BRANCH   4  11
ATOM     10  C   UNL     1      42.443   5.818  11.691  0.00  0.00    +0.000 C 
ATOM     11  O   UNL     1      43.653   5.505  11.014  0.00  0.00    +0.000 OA
ENDBRANCH   4  11
BRANCH   9  12
ATOM     12  C   UNL     1      44.066   2.917  12.081  0.00  0.00    +0.000 C 
BRANCH  12  13
ATOM     13  N   UNL     1      44.200   2.487  10.687  0.00  0.00    +0.000 NA
ATOM     14  H   UNL     1      43.326   2.040  10.410  0.00  0.00    +0.000 HD
ATOM     15  H   UNL     1      44.919   1.770  10.630  0.00  0.00    +0.000 HD
ENDBRANCH  12  13
ENDBRANCH   9  12
ENDBRANCH   1   6
BRANCH   1  16
ATOM     16  C   UNL     1      48.935   6.961  14.103  0.00  0.00    +0.000 C 
BRANCH  16  17
ATOM     17  O   UNL     1      48.831   7.716  15.319  0.00  0.00    +0.000 OA
BRANCH  17  18
ATOM     18  C   UNL     1      48.799   6.878  16.419  0.00  0.00    +0.000 A 
ATOM     19  C   UNL     1      48.483   7.446  17.643  0.00  0.00    +0.000 A 
ATOM     20  C   UNL     1      48.442   6.618  18.768  0.00  0.00    +0.000 A 
ATOM     21  C   UNL     1      48.708   5.253  18.622  0.00  0.00    +0.000 A 
ATOM     22  C   UNL     1      49.032   4.780  17.363  0.00  0.00    +0.000 A 
ATOM     23  N   UNL     1      49.073   5.563  16.259  0.00  0.00    +0.000 NA
BRANCH  21  24
ATOM     24  C   UNL     1      48.709   4.283  19.735  0.00  0.00    +0.000 C 
ATOM     25  O   UNL     1      49.068   4.579  20.861  0.00  0.00    +0.000 OA
BRANCH  24  26
ATOM     26  O   UNL     1      48.319   3.040  19.389  0.00  0.00    +0.000 OA
ATOM     27  H   UNL     1      47.995   2.479  20.116  0.00  0.00    +0.000 HD
ENDBRANCH  24  26
ENDBRANCH  21  24
ENDBRANCH  17  18
ENDBRANCH  16  17
ENDBRANCH   1  16
TORSDOF 9
ENDMDL
