MODEL 1
REMARK VINA RESULT:    -8.215      0.000      0.000
REMARK INTER + INTRA:         -11.663
REMARK INTER:                 -10.616
REMARK INTRA:                  -1.047
REMARK UNBOUND:                -1.047
REMARK  Name = 
REMARK  6 active torsions:
REMARK  status: ('A' for Active; 'I' for Inactive)
REMARK    1  A    between atoms: C_1  and  C_2
REMARK    2  A    between atoms: C_2  and  N_3
REMARK    3  A    between atoms: C_2  and  C_16
REMARK    4  A    between atoms: C_4  and  C_6
REMARK    5  A    between atoms: C_19  and  O_20
REMARK    6  A    between atoms: O_20  and  C_21
REMARK                            x       y       z     vdW  Elec       q    Type
REMARK                         _______ _______ _______ _____ _____    ______ ____
ROOT
ATOM      1  C   UNL     1      43.848   2.835  10.994  0.00  0.00    +0.000 C 
ATOM      2  C   UNL     1      44.253   3.838   9.912  0.00  0.00    +0.000 C 
ENDROOT
BRANCH   2   3
ATOM      3  C   UNL     1      45.218   3.226   8.912  0.00  0.00    +0.000 A 
ATOM      4  C   UNL     1      45.421   1.840   8.918  0.00  0.00    +0.000 A 
ATOM      5  C   UNL     1      46.274   1.240   7.991  0.00  0.00    +0.000 A 
ATOM      6  C   UNL     1      46.882   2.006   6.993  0.00  0.00    +0.000 A 
ATOM      7  C   UNL     1      46.720   3.393   7.001  0.00  0.00    +0.000 A 
ATOM      8  C   UNL     1      45.899   3.999   7.958  0.00  0.00    +0.000 A 
BRANCH   6   9
ATOM      9  O   UNL     1      47.687   1.490   6.003  0.00  0.00    +0.000 OA
BRANCH   9  10
ATOM     10  C   UNL     1      47.115   0.902   4.902  0.00  0.00    +0.000 A 
ATOM     11  C   UNL     1      46.467   1.591   3.877  0.00  0.00    +0.000 A 
ATOM     12  C   UNL     1      45.886   0.878   2.831  0.00  0.00    +0.000 A 
ATOM     13  C   UNL     1      46.027  -0.501   2.817  0.00  0.00    +0.000 A 
ATOM     14  N   UNL     1      46.703  -1.195   3.757  0.00  0.00    +0.000 NA
ATOM     15  C   UNL     1      47.234  -0.475   4.777  0.00  0.00    +0.000 A 
ENDBRANCH   9  10
ENDBRANCH   6   9
ENDBRANCH   2   3
BRANCH   2  16
ATOM     16  N   UNL     1      44.830   5.034  10.493  0.00  0.00    +0.000 N 
ATOM     17  C   UNL     1      44.078   6.003  11.103  0.00  0.00    +0.000 C 
ATOM     18  O   UNL     1      42.858   5.919  11.203  0.00  0.00    +0.000 OA
ATOM     19  H   UNL     1      45.816   5.200  10.323  0.00  0.00    +0.000 HD
BRANCH  17  20
ATOM     20  C   UNL     1      44.821   7.128  11.689  0.00  0.00    +0.000 A 
ATOM     21  C   UNL     1      44.486   8.427  11.333  0.00  0.00    +0.000 A 
ATOM     22  S   UNL     1      45.404   9.616  12.143  0.00  0.00    +0.000 S 
ATOM     23  C   UNL     1      46.314   8.432  12.961  0.00  0.00    +0.000 A 
ATOM     24  N   UNL     1      47.303   8.787  13.823  0.00  0.00    +0.000 NA
ATOM     25  C   UNL     1      47.939   7.791  14.346  0.00  0.00    +0.000 A 
ATOM     26  N   UNL     1      47.668   6.472  14.088  0.00  0.00    +0.000 N 
ATOM     27  C   UNL     1      46.645   6.066  13.264  0.00  0.00    +0.000 A 
ATOM     28  O   UNL     1      46.377   4.880  13.128  0.00  0.00    +0.000 OA
ATOM     29  C   UNL     1      45.915   7.149  12.632  0.00  0.00    +0.000 A 
ATOM     30  H   UNL     1      48.192   5.739  14.543  0.00  0.00    +0.000 HD
ENDBRANCH  17  20
ENDBRANCH   2  16
TORSDOF 5
ENDMDL
MODEL 2
REMARK VINA RESULT:    -8.175      1.496      1.749
REMARK INTER + INTRA:         -11.612
REMARK INTER:                 -10.501
REMARK INTRA:                  -1.110
REMARK UNBOUND:                -1.047
REMARK  Name = 
REMARK  6 active torsions:
REMARK  status: ('A' for Active; 'I' for Inactive)
REMARK    1  A    between atoms: C_1  and  C_2
REMARK    2  A    between atoms: C_2  and  N_3
REMARK    3  A    between atoms: C_2  and  C_16
REMARK    4  A    between atoms: C_4  and  C_6
REMARK    5  A    between atoms: C_19  and  O_20
REMARK    6  A    between atoms: O_20  and  C_21
REMARK                            x       y       z     vdW  Elec       q    Type
REMARK                         _______ _______ _______ _____ _____    ______ ____
ROOT
ATOM      1  C   UNL     1      43.978   2.848  10.195  0.00  0.00    +0.000 C 
ATOM      2  C   UNL     1      44.962   3.795   9.507  0.00  0.00    +0.000 C 
ENDROOT
BRANCH   2   3
ATOM      3  C   UNL     1      45.771   3.085   8.436  0.00  0.00    +0.000 A 
ATOM      4  C   UNL     1      45.949   1.697   8.522  0.00  0.00    +0.000 A 
ATOM      5  C   UNL     1      46.657   1.007   7.539  0.00  0.00    +0.000 A 
ATOM      6  C   UNL     1      47.138   1.680   6.412  0.00  0.00    +0.000 A 
ATOM      7  C   UNL     1      47.003   3.067   6.335  0.00  0.00    +0.000 A 
ATOM      8  C   UNL     1      46.329   3.766   7.343  0.00  0.00    +0.000 A 
BRANCH   6   9
ATOM      9  O   UNL     1      47.792   1.070   5.366  0.00  0.00    +0.000 OA
BRANCH   9  10
ATOM     10  C   UNL     1      47.063   0.497   4.352  0.00  0.00    +0.000 A 
ATOM     11  C   UNL     1      46.324   1.205   3.404  0.00  0.00    +0.000 A 
ATOM     12  C   UNL     1      45.588   0.508   2.449  0.00  0.00    +0.000 A 
ATOM     13  C   UNL     1      45.666  -0.876   2.438  0.00  0.00    +0.000 A 
ATOM     14  N   UNL     1      46.423  -1.590   3.299  0.00  0.00    +0.000 NA
ATOM     15  C   UNL     1      47.106  -0.885   4.234  0.00  0.00    +0.000 A 
ENDBRANCH   9  10
ENDBRANCH   6   9
ENDBRANCH   2   3
BRANCH   2  16
ATOM     16  N   UNL     1      45.849   4.422  10.466  0.00  0.00    +0.000 N 
ATOM     17  C   UNL     1      45.595   5.647  11.026  0.00  0.00    +0.000 C 
ATOM     18  O   UNL     1      44.590   6.297  10.751  0.00  0.00    +0.000 OA
ATOM     19  H   UNL     1      46.745   3.977  10.626  0.00  0.00    +0.000 HD
BRANCH  17  20
ATOM     20  C   UNL     1      46.565   6.119  12.023  0.00  0.00    +0.000 A 
ATOM     21  C   UNL     1      47.317   7.256  11.760  0.00  0.00    +0.000 A 
ATOM     22  S   UNL     1      48.354   7.701  13.040  0.00  0.00    +0.000 S 
ATOM     23  C   UNL     1      47.869   6.360  13.970  0.00  0.00    +0.000 A 
ATOM     24  N   UNL     1      48.400   6.137  15.202  0.00  0.00    +0.000 NA
ATOM     25  C   UNL     1      47.972   5.065  15.782  0.00  0.00    +0.000 A 
ATOM     26  N   UNL     1      47.057   4.200  15.243  0.00  0.00    +0.000 N 
ATOM     27  C   UNL     1      46.456   4.411  14.024  0.00  0.00    +0.000 A 
ATOM     28  O   UNL     1      45.577   3.663  13.616  0.00  0.00    +0.000 OA
ATOM     29  C   UNL     1      46.920   5.591  13.320  0.00  0.00    +0.000 A 
ATOM     30  H   UNL     1      46.751   3.385  15.756  0.00  0.00    +0.000 HD
ENDBRANCH  17  20
ENDBRANCH   2  16
TORSDOF 5
ENDMDL
MODEL 3
REMARK VINA RESULT:    -7.956      2.809      4.012
REMARK INTER + INTRA:         -11.328
REMARK INTER:                 -11.356
REMARK INTRA:                   0.028
REMARK UNBOUND:                -1.047
REMARK  Name = 
REMARK  6 active torsions:
REMARK  status: ('A' for Active; 'I' for Inactive)
REMARK    1  A    between atoms: C_1  and  C_2
REMARK    2  A    between atoms: C_2  and  N_3
REMARK    3  A    between atoms: C_2  and  C_16
REMARK    4  A    between atoms: C_4  and  C_6
REMARK    5  A    between atoms: C_19  and  O_20
REMARK    6  A    between atoms: O_20  and  C_21
REMARK                            x       y       z     vdW  Elec       q    Type
REMARK                         _______ _______ _______ _____ _____    ______ ____
ROOT
ATOM      1  C   UNL     1      43.566   3.741  13.317  0.00  0.00    +0.000 C 
ATOM      2  C   UNL     1      44.208   5.000  12.731  0.00  0.00    +0.000 C 
ENDROOT
BRANCH   2   3
ATOM      3  C   UNL     1      44.691   4.774  11.309  0.00  0.00    +0.000 A 
ATOM      4  C   UNL     1      44.173   3.699  10.573  0.00  0.00    +0.000 A 
ATOM      5  C   UNL     1      44.568   3.482   9.253  0.00  0.00    +0.000 A 
ATOM      6  C   UNL     1      45.434   4.378   8.620  0.00  0.00    +0.000 A 
ATOM      7  C   UNL     1      45.988   5.428   9.353  0.00  0.00    +0.000 A 
ATOM      8  C   UNL     1      45.624   5.621  10.691  0.00  0.00    +0.000 A 
BRANCH   6   9
ATOM      9  O   UNL     1      45.827   4.276   7.305  0.00  0.00    +0.000 OA
BRANCH   9  10
ATOM     10  C   UNL     1      46.389   3.106   6.854  0.00  0.00    +0.000 A 
ATOM     11  C   UNL     1      46.626   1.981   7.642  0.00  0.00    +0.000 A 
ATOM     12  C   UNL     1      47.244   0.867   7.078  0.00  0.00    +0.000 A 
ATOM     13  C   UNL     1      47.548   0.896   5.727  0.00  0.00    +0.000 A 
ATOM     14  N   UNL     1      47.273   1.943   4.920  0.00  0.00    +0.000 NA
ATOM     15  C   UNL     1      46.697   3.023   5.503  0.00  0.00    +0.000 A 
ENDBRANCH   9  10
ENDBRANCH   6   9
ENDBRANCH   2   3
BRANCH   2  16
ATOM     16  N   UNL     1      45.302   5.467  13.559  0.00  0.00    +0.000 N 
ATOM     17  C   UNL     1      46.332   4.658  13.958  0.00  0.00    +0.000 C 
ATOM     18  O   UNL     1      46.400   3.475  13.635  0.00  0.00    +0.000 OA
ATOM     19  H   UNL     1      45.221   6.400  13.948  0.00  0.00    +0.000 HD
BRANCH  17  20
ATOM     20  C   UNL     1      47.392   5.298  14.750  0.00  0.00    +0.000 A 
ATOM     21  C   UNL     1      48.162   6.301  14.178  0.00  0.00    +0.000 A 
ATOM     22  S   UNL     1      49.309   6.976  15.246  0.00  0.00    +0.000 S 
ATOM     23  C   UNL     1      48.847   5.916  16.496  0.00  0.00    +0.000 A 
ATOM     24  N   UNL     1      49.461   5.960  17.708  0.00  0.00    +0.000 NA
ATOM     25  C   UNL     1      49.041   5.076  18.552  0.00  0.00    +0.000 A 
ATOM     26  N   UNL     1      48.056   4.158  18.293  0.00  0.00    +0.000 N 
ATOM     27  C   UNL     1      47.373   4.111  17.101  0.00  0.00    +0.000 A 
ATOM     28  O   UNL     1      46.440   3.336  16.939  0.00  0.00    +0.000 OA
ATOM     29  C   UNL     1      47.824   5.069  16.109  0.00  0.00    +0.000 A 
ATOM     30  H   UNL     1      47.761   3.503  19.003  0.00  0.00    +0.000 HD
ENDBRANCH  17  20
ENDBRANCH   2  16
TORSDOF 5
ENDMDL
MODEL 4
REMARK VINA RESULT:    -7.607      2.600      3.728
REMARK INTER + INTRA:         -10.878
REMARK INTER:                 -10.748
REMARK INTRA:                  -0.130
REMARK UNBOUND:                -1.047
REMARK  Name = 
REMARK  6 active torsions:
REMARK  status: ('A' for Active; 'I' for Inactive)
REMARK    1  A    between atoms: C_1  and  C_2
REMARK    2  A    between atoms: C_2  and  N_3
REMARK    3  A    between atoms: C_2  and  C_16
REMARK    4  A    between atoms: C_4  and  C_6
REMARK    5  A    between atoms: C_19  and  O_20
REMARK    6  A    between atoms: O_20  and  C_21
REMARK                            x       y       z     vdW  Elec       q    Type
REMARK                         _______ _______ _______ _____ _____    ______ ____
ROOT
ATOM      1  C   UNL     1      43.190   4.280  13.003  0.00  0.00    +0.000 C 
ATOM      2  C   UNL     1      44.108   5.389  12.487  0.00  0.00    +0.000 C 
ENDROOT
BRANCH   2   3
ATOM      3  C   UNL     1      44.665   5.063  11.112  0.00  0.00    +0.000 A 
ATOM      4  C   UNL     1      44.072   4.041  10.359  0.00  0.00    +0.000 A 
ATOM      5  C   UNL     1      44.535   3.737   9.079  0.00  0.00    +0.000 A 
ATOM      6  C   UNL     1      45.553   4.499   8.498  0.00  0.00    +0.000 A 
ATOM      7  C   UNL     1      46.179   5.492   9.253  0.00  0.00    +0.000 A 
ATOM      8  C   UNL     1      45.743   5.768  10.553  0.00  0.00    +0.000 A 
BRANCH   6   9
ATOM      9  O   UNL     1      46.028   4.310   7.220  0.00  0.00    +0.000 OA
BRANCH   9  10
ATOM     10  C   UNL     1      46.469   3.066   6.838  0.00  0.00    +0.000 A 
ATOM     11  C   UNL     1      46.618   1.976   7.694  0.00  0.00    +0.000 A 
ATOM     12  C   UNL     1      47.117   0.775   7.194  0.00  0.00    +0.000 A 
ATOM     13  C   UNL     1      47.392   0.690   5.838  0.00  0.00    +0.000 A 
ATOM     14  N   UNL     1      47.198   1.705   4.969  0.00  0.00    +0.000 NA
ATOM     15  C   UNL     1      46.737   2.869   5.490  0.00  0.00    +0.000 A 
ENDBRANCH   9  10
ENDBRANCH   6   9
ENDBRANCH   2   3
BRANCH   2  16
ATOM     16  N   UNL     1      45.192   5.649  13.413  0.00  0.00    +0.000 N 
ATOM     17  C   UNL     1      46.103   4.694  13.780  0.00  0.00    +0.000 C 
ATOM     18  O   UNL     1      46.063   3.548  13.343  0.00  0.00    +0.000 OA
ATOM     19  H   UNL     1      45.188   6.544  13.890  0.00  0.00    +0.000 HD
BRANCH  17  20
ATOM     20  C   UNL     1      47.174   5.132  14.687  0.00  0.00    +0.000 A 
ATOM     21  C   UNL     1      47.290   4.547  15.941  0.00  0.00    +0.000 A 
ATOM     22  S   UNL     1      48.616   5.127  16.845  0.00  0.00    +0.000 S 
ATOM     23  C   UNL     1      49.050   6.216  15.611  0.00  0.00    +0.000 A 
ATOM     24  N   UNL     1      50.119   7.043  15.756  0.00  0.00    +0.000 NA
ATOM     25  C   UNL     1      50.314   7.844  14.760  0.00  0.00    +0.000 A 
ATOM     26  N   UNL     1      49.539   7.885  13.631  0.00  0.00    +0.000 N 
ATOM     27  C   UNL     1      48.481   7.033  13.418  0.00  0.00    +0.000 A 
ATOM     28  O   UNL     1      47.869   7.040  12.358  0.00  0.00    +0.000 OA
ATOM     29  C   UNL     1      48.206   6.129  14.518  0.00  0.00    +0.000 A 
ATOM     30  H   UNL     1      49.755   8.525  12.880  0.00  0.00    +0.000 HD
ENDBRANCH  17  20
ENDBRANCH   2  16
TORSDOF 5
ENDMDL
MODEL 5
REMARK VINA RESULT:    -7.531      3.354      5.155
REMARK INTER + INTRA:         -10.780
REMARK INTER:                  -9.933
REMARK INTRA:                  -0.846
REMARK UNBOUND:                -1.047
REMARK  Name = 
REMARK  6 active torsions:
REMARK  status: ('A' for Active; 'I' for Inactive)
REMARK    1  A    between atoms: C_1  and  C_2
REMARK    2  A    between atoms: C_2  and  N_3
REMARK    3  A    between atoms: C_2  and  C_16
REMARK    4  A    between atoms: C_4  and  C_6
REMARK    5  A    between atoms: C_19  and  O_20
REMARK    6  A    between atoms: O_20  and  C_21
REMARK                            x       y       z     vdW  Elec       q    Type
REMARK                         _______ _______ _______ _____ _____    ______ ____
ROOT
ATOM      1  C   UNL     1      45.424   8.276  12.904  0.00  0.00    +0.000 C 
ATOM      2  C   UNL     1      46.351   7.075  12.704  0.00  0.00    +0.000 C 
ENDROOT
BRANCH   2   3
ATOM      3  C   UNL     1      45.819   6.126  11.645  0.00  0.00    +0.000 A 
ATOM      4  C   UNL     1      46.228   6.288  10.314  0.00  0.00    +0.000 A 
ATOM      5  C   UNL     1      45.787   5.414   9.320  0.00  0.00    +0.000 A 
ATOM      6  C   UNL     1      44.988   4.317   9.651  0.00  0.00    +0.000 A 
ATOM      7  C   UNL     1      44.540   4.167  10.965  0.00  0.00    +0.000 A 
ATOM      8  C   UNL     1      44.948   5.070  11.954  0.00  0.00    +0.000 A 
BRANCH   6   9
ATOM      9  O   UNL     1      44.558   3.371   8.748  0.00  0.00    +0.000 OA
BRANCH   9  10
ATOM     10  C   UNL     1      45.481   2.670   8.010  0.00  0.00    +0.000 A 
ATOM     11  C   UNL     1      46.114   3.149   6.863  0.00  0.00    +0.000 A 
ATOM     12  C   UNL     1      47.000   2.324   6.174  0.00  0.00    +0.000 A 
ATOM     13  C   UNL     1      47.270   1.068   6.694  0.00  0.00    +0.000 A 
ATOM     14  N   UNL     1      46.726   0.597   7.836  0.00  0.00    +0.000 NA
ATOM     15  C   UNL     1      45.846   1.412   8.469  0.00  0.00    +0.000 A 
ENDBRANCH   9  10
ENDBRANCH   6   9
ENDBRANCH   2   3
BRANCH   2  16
ATOM     16  N   UNL     1      46.565   6.363  13.948  0.00  0.00    +0.000 N 
ATOM     17  C   UNL     1      47.799   5.927  14.353  0.00  0.00    +0.000 C 
ATOM     18  O   UNL     1      48.812   6.116  13.687  0.00  0.00    +0.000 OA
ATOM     19  H   UNL     1      45.741   6.079  14.466  0.00  0.00    +0.000 HD
BRANCH  17  20
ATOM     20  C   UNL     1      47.856   5.268  15.666  0.00  0.00    +0.000 A 
ATOM     21  C   UNL     1      47.268   4.022  15.831  0.00  0.00    +0.000 A 
ATOM     22  S   UNL     1      47.471   3.372  17.396  0.00  0.00    +0.000 S 
ATOM     23  C   UNL     1      48.310   4.758  17.920  0.00  0.00    +0.000 A 
ATOM     24  N   UNL     1      48.765   4.855  19.197  0.00  0.00    +0.000 NA
ATOM     25  C   UNL     1      49.351   5.974  19.472  0.00  0.00    +0.000 A 
ATOM     26  N   UNL     1      49.529   6.999  18.581  0.00  0.00    +0.000 N 
ATOM     27  C   UNL     1      49.132   6.925  17.266  0.00  0.00    +0.000 A 
ATOM     28  O   UNL     1      49.388   7.826  16.478  0.00  0.00    +0.000 OA
ATOM     29  C   UNL     1      48.447   5.696  16.913  0.00  0.00    +0.000 A 
ATOM     30  H   UNL     1      50.011   7.844  18.854  0.00  0.00    +0.000 HD
ENDBRANCH  17  20
ENDBRANCH   2  16
TORSDOF 5
ENDMDL
MODEL 6
REMARK VINA RESULT:    -7.273      2.593      3.953
REMARK INTER + INTRA:         -10.446
REMARK INTER:                  -9.465
REMARK INTRA:                  -0.981
REMARK UNBOUND:                -1.047
REMARK  Name = 
REMARK  6 active torsions:
REMARK  status: ('A' for Active; 'I' for Inactive)
REMARK    1  A    between atoms: C_1  and  C_2
REMARK    2  A    between atoms: C_2  and  N_3
REMARK    3  A    between atoms: C_2  and  C_16
REMARK    4  A    between atoms: C_4  and  C_6
REMARK    5  A    between atoms: C_19  and  O_20
REMARK    6  A    between atoms: O_20  and  C_21
REMARK                            x       y       z     vdW  Elec       q    Type
REMARK                         _______ _______ _______ _____ _____    ______ ____
ROOT
ATOM      1  C   UNL     1      46.232   4.678  14.073  0.00  0.00    +0.000 C 
ATOM      2  C   UNL     1      45.921   5.775  13.053  0.00  0.00    +0.000 C 
ENDROOT
BRANCH   2   3
ATOM      3  C   UNL     1      45.569   5.196  11.695  0.00  0.00    +0.000 A 
ATOM      4  C   UNL     1      46.025   5.841  10.537  0.00  0.00    +0.000 A 
ATOM      5  C   UNL     1      45.750   5.318   9.274  0.00  0.00    +0.000 A 
ATOM      6  C   UNL     1      45.075   4.101   9.146  0.00  0.00    +0.000 A 
ATOM      7  C   UNL     1      44.580   3.470  10.288  0.00  0.00    +0.000 A 
ATOM      8  C   UNL     1      44.820   4.017  11.554  0.00  0.00    +0.000 A 
BRANCH   6   9
ATOM      9  O   UNL     1      44.816   3.482   7.944  0.00  0.00    +0.000 OA
BRANCH   9  10
ATOM     10  C   UNL     1      45.827   2.825   7.287  0.00  0.00    +0.000 A 
ATOM     11  C   UNL     1      46.411   3.251   6.095  0.00  0.00    +0.000 A 
ATOM     12  C   UNL     1      47.401   2.473   5.500  0.00  0.00    +0.000 A 
ATOM     13  C   UNL     1      47.816   1.323   6.153  0.00  0.00    +0.000 A 
ATOM     14  N   UNL     1      47.319   0.915   7.340  0.00  0.00    +0.000 NA
ATOM     15  C   UNL     1      46.337   1.679   7.881  0.00  0.00    +0.000 A 
ENDBRANCH   9  10
ENDBRANCH   6   9
ENDBRANCH   2   3
BRANCH   2  16
ATOM     16  N   UNL     1      47.026   6.704  12.926  0.00  0.00    +0.000 N 
ATOM     17  C   UNL     1      46.883   8.058  13.084  0.00  0.00    +0.000 C 
ATOM     18  O   UNL     1      45.802   8.576  13.349  0.00  0.00    +0.000 OA
ATOM     19  H   UNL     1      47.907   6.332  12.589  0.00  0.00    +0.000 HD
BRANCH  17  20
ATOM     20  C   UNL     1      48.111   8.858  12.978  0.00  0.00    +0.000 A 
ATOM     21  C   UNL     1      48.091  10.049  12.264  0.00  0.00    +0.000 A 
ATOM     22  S   UNL     1      49.580  10.882  12.283  0.00  0.00    +0.000 S 
ATOM     23  C   UNL     1      50.316   9.654  13.205  0.00  0.00    +0.000 A 
ATOM     24  N   UNL     1      51.624   9.743  13.566  0.00  0.00    +0.000 NA
ATOM     25  C   UNL     1      52.065   8.727  14.231  0.00  0.00    +0.000 A 
ATOM     26  N   UNL     1      51.312   7.634  14.573  0.00  0.00    +0.000 N 
ATOM     27  C   UNL     1      49.975   7.524  14.275  0.00  0.00    +0.000 A 
ATOM     28  O   UNL     1      49.315   6.573  14.674  0.00  0.00    +0.000 OA
ATOM     29  C   UNL     1      49.436   8.630  13.507  0.00  0.00    +0.000 A 
ATOM     30  H   UNL     1      51.713   6.877  15.109  0.00  0.00    +0.000 HD
ENDBRANCH  17  20
ENDBRANCH   2  16
TORSDOF 5
ENDMDL
MODEL 7
REMARK VINA RESULT:    -7.189      4.661      9.347
REMARK INTER + INTRA:         -10.338
REMARK INTER:                  -9.244
REMARK INTRA:                  -1.093
REMARK UNBOUND:                -1.047
REMARK  Name = 
REMARK  6 active torsions:
REMARK  status: ('A' for Active; 'I' for Inactive)
REMARK    1  A    between atoms: C_1  and  C_2
REMARK    2  A    between atoms: C_2  and  N_3
REMARK    3  A    between atoms: C_2  and  C_16
REMARK    4  A    between atoms: C_4  and  C_6
REMARK    5  A    between atoms: C_19  and  O_20
REMARK    6  A    between atoms: O_20  and  C_21
REMARK                            x       y       z     vdW  Elec       q    Type
REMARK                         _______ _______ _______ _____ _____    ______ ____
ROOT
ATOM      1  C   UNL     1      49.339   7.812  12.638  0.00  0.00    +0.000 C 
ATOM      2  C   UNL     1      48.162   7.269  13.450  0.00  0.00    +0.000 C 
ENDROOT
BRANCH   2   3
ATOM      3  C   UNL     1      48.623   6.621  14.744  0.00  0.00    +0.000 A 
ATOM      4  C   UNL     1      47.819   5.642  15.343  0.00  0.00    +0.000 A 
ATOM      5  C   UNL     1      48.227   5.000  16.512  0.00  0.00    +0.000 A 
ATOM      6  C   UNL     1      49.481   5.273  17.065  0.00  0.00    +0.000 A 
ATOM      7  C   UNL     1      50.274   6.274  16.501  0.00  0.00    +0.000 A 
ATOM      8  C   UNL     1      49.845   6.948  15.352  0.00  0.00    +0.000 A 
BRANCH   6   9
ATOM      9  O   UNL     1      49.990   4.644  18.178  0.00  0.00    +0.000 OA
BRANCH   9  10
ATOM     10  C   UNL     1      50.851   3.585  18.025  0.00  0.00    +0.000 A 
ATOM     11  C   UNL     1      52.180   3.571  18.447  0.00  0.00    +0.000 A 
ATOM     12  C   UNL     1      52.968   2.451  18.194  0.00  0.00    +0.000 A 
ATOM     13  C   UNL     1      52.379   1.357  17.581  0.00  0.00    +0.000 A 
ATOM     14  N   UNL     1      51.080   1.311  17.218  0.00  0.00    +0.000 NA
ATOM     15  C   UNL     1      50.345   2.427  17.452  0.00  0.00    +0.000 A 
ENDBRANCH   9  10
ENDBRANCH   6   9
ENDBRANCH   2   3
BRANCH   2  16
ATOM     16  N   UNL     1      47.375   6.330  12.676  0.00  0.00    +0.000 N 
ATOM     17  C   UNL     1      46.356   6.718  11.847  0.00  0.00    +0.000 C 
ATOM     18  O   UNL     1      46.042   7.896  11.702  0.00  0.00    +0.000 OA
ATOM     19  H   UNL     1      47.521   5.344  12.860  0.00  0.00    +0.000 HD
BRANCH  17  20
ATOM     20  C   UNL     1      45.692   5.648  11.089  0.00  0.00    +0.000 A 
ATOM     21  C   UNL     1      45.810   5.615   9.706  0.00  0.00    +0.000 A 
ATOM     22  S   UNL     1      45.027   4.281   8.985  0.00  0.00    +0.000 S 
ATOM     23  C   UNL     1      44.463   3.729  10.494  0.00  0.00    +0.000 A 
ATOM     24  N   UNL     1      43.699   2.608  10.584  0.00  0.00    +0.000 NA
ATOM     25  C   UNL     1      43.307   2.323  11.782  0.00  0.00    +0.000 A 
ATOM     26  N   UNL     1      43.618   3.056  12.897  0.00  0.00    +0.000 N 
ATOM     27  C   UNL     1      44.429   4.166  12.862  0.00  0.00    +0.000 A 
ATOM     28  O   UNL     1      44.756   4.742  13.891  0.00  0.00    +0.000 OA
ATOM     29  C   UNL     1      44.877   4.542  11.534  0.00  0.00    +0.000 A 
ATOM     30  H   UNL     1      43.293   2.771  13.810  0.00  0.00    +0.000 HD
ENDBRANCH  17  20
ENDBRANCH   2  16
TORSDOF 5
ENDMDL
MODEL 8
REMARK VINA RESULT:    -7.076      4.083      6.998
REMARK INTER + INTRA:         -10.192
REMARK INTER:                  -9.020
REMARK INTRA:                  -1.172
REMARK UNBOUND:                -1.047
REMARK  Name = 
REMARK  6 active torsions:
REMARK  status: ('A' for Active; 'I' for Inactive)
REMARK    1  A    between atoms: C_1  and  C_2
REMARK    2  A    between atoms: C_2  and  N_3
REMARK    3  A    between atoms: C_2  and  C_16
REMARK    4  A    between atoms: C_4  and  C_6
REMARK    5  A    between atoms: C_19  and  O_20
REMARK    6  A    between atoms: O_20  and  C_21
REMARK                            x       y       z     vdW  Elec       q    Type
REMARK                         _______ _______ _______ _____ _____    ______ ____
ROOT
ATOM      1  C   UNL     1      48.164   8.825  14.258  0.00  0.00    +0.000 C 
ATOM      2  C   UNL     1      48.243   7.299  14.323  0.00  0.00    +0.000 C 
ENDROOT
BRANCH   2   3
ATOM      3  C   UNL     1      47.189   6.644  13.448  0.00  0.00    +0.000 A 
ATOM      4  C   UNL     1      46.540   7.409  12.470  0.00  0.00    +0.000 A 
ATOM      5  C   UNL     1      45.591   6.833  11.625  0.00  0.00    +0.000 A 
ATOM      6  C   UNL     1      45.327   5.462  11.694  0.00  0.00    +0.000 A 
ATOM      7  C   UNL     1      45.936   4.697  12.690  0.00  0.00    +0.000 A 
ATOM      8  C   UNL     1      46.856   5.285  13.566  0.00  0.00    +0.000 A 
BRANCH   6   9
ATOM      9  O   UNL     1      44.454   4.799  10.861  0.00  0.00    +0.000 OA
BRANCH   9  10
ATOM     10  C   UNL     1      44.949   4.014   9.848  0.00  0.00    +0.000 A 
ATOM     11  C   UNL     1      44.868   2.622   9.807  0.00  0.00    +0.000 A 
ATOM     12  C   UNL     1      45.448   1.933   8.745  0.00  0.00    +0.000 A 
ATOM     13  C   UNL     1      46.036   2.666   7.727  0.00  0.00    +0.000 A 
ATOM     14  N   UNL     1      46.075   4.015   7.702  0.00  0.00    +0.000 NA
ATOM     15  C   UNL     1      45.526   4.658   8.763  0.00  0.00    +0.000 A 
ENDBRANCH   9  10
ENDBRANCH   6   9
ENDBRANCH   2   3
BRANCH   2  16
ATOM     16  N   UNL     1      48.122   6.823  15.687  0.00  0.00    +0.000 N 
ATOM     17  C   UNL     1      49.174   6.290  16.385  0.00  0.00    +0.000 C 
ATOM     18  O   UNL     1      50.295   6.182  15.899  0.00  0.00    +0.000 OA
ATOM     19  H   UNL     1      47.189   6.781  16.081  0.00  0.00    +0.000 HD
BRANCH  17  20
ATOM     20  C   UNL     1      48.900   5.905  17.777  0.00  0.00    +0.000 A 
ATOM     21  C   UNL     1      49.171   4.608  18.193  0.00  0.00    +0.000 A 
ATOM     22  S   UNL     1      48.850   4.340  19.847  0.00  0.00    +0.000 S 
ATOM     23  C   UNL     1      48.292   5.936  20.052  0.00  0.00    +0.000 A 
ATOM     24  N   UNL     1      47.845   6.368  21.261  0.00  0.00    +0.000 NA
ATOM     25  C   UNL     1      47.416   7.586  21.269  0.00  0.00    +0.000 A 
ATOM     26  N   UNL     1      47.401   8.413  20.175  0.00  0.00    +0.000 N 
ATOM     27  C   UNL     1      47.890   8.037  18.946  0.00  0.00    +0.000 A 
ATOM     28  O   UNL     1      47.941   8.832  18.017  0.00  0.00    +0.000 OA
ATOM     29  C   UNL     1      48.363   6.667  18.880  0.00  0.00    +0.000 A 
ATOM     30  H   UNL     1      47.066   9.363  20.251  0.00  0.00    +0.000 HD
ENDBRANCH  17  20
ENDBRANCH   2  16
TORSDOF 5
ENDMDL
MODEL 9
REMARK VINA RESULT:    -6.780      5.713      9.283
REMARK INTER + INTRA:          -9.809
REMARK INTER:                  -8.606
REMARK INTRA:                  -1.202
REMARK UNBOUND:                -1.047
REMARK  Name = 
REMARK  6 active torsions:
REMARK  status: ('A' for Active; 'I' for Inactive)
REMARK    1  A    between atoms: C_1  and  C_2
REMARK    2  A    between atoms: C_2  and  N_3
REMARK    3  A    between atoms: C_2  and  C_16
REMARK    4  A    between atoms: C_4  and  C_6
REMARK    5  A    between atoms: C_19  and  O_20
REMARK    6  A    between atoms: O_20  and  C_21
REMARK                            x       y       z     vdW  Elec       q    Type
REMARK                         _______ _______ _______ _____ _____    ______ ____
ROOT
ATOM      1  C   UNL     1      47.593   5.743  18.625  0.00  0.00    +0.000 C 
ATOM      2  C   UNL     1      48.673   5.794  17.543  0.00  0.00    +0.000 C 
ENDROOT
BRANCH   2   3
ATOM      3  C   UNL     1      48.132   5.374  16.188  0.00  0.00    +0.000 A 
ATOM      4  C   UNL     1      47.554   4.104  16.046  0.00  0.00    +0.000 A 
ATOM      5  C   UNL     1      47.016   3.697  14.826  0.00  0.00    +0.000 A 
ATOM      6  C   UNL     1      46.979   4.580  13.742  0.00  0.00    +0.000 A 
ATOM      7  C   UNL     1      47.587   5.831  13.858  0.00  0.00    +0.000 A 
ATOM      8  C   UNL     1      48.165   6.223  15.071  0.00  0.00    +0.000 A 
BRANCH   6   9
ATOM      9  O   UNL     1      46.414   4.285  12.523  0.00  0.00    +0.000 OA
BRANCH   9  10
ATOM     10  C   UNL     1      45.106   4.630  12.280  0.00  0.00    +0.000 A 
ATOM     11  C   UNL     1      44.156   4.894  13.266  0.00  0.00    +0.000 A 
ATOM     12  C   UNL     1      42.847   5.191  12.895  0.00  0.00    +0.000 A 
ATOM     13  C   UNL     1      42.548   5.273  11.544  0.00  0.00    +0.000 A 
ATOM     14  N   UNL     1      43.457   5.088  10.563  0.00  0.00    +0.000 NA
ATOM     15  C   UNL     1      44.717   4.773  10.956  0.00  0.00    +0.000 A 
ENDBRANCH   9  10
ENDBRANCH   6   9
ENDBRANCH   2   3
BRANCH   2  16
ATOM     16  N   UNL     1      49.814   4.975  17.899  0.00  0.00    +0.000 N 
ATOM     17  C   UNL     1      51.079   5.217  17.431  0.00  0.00    +0.000 C 
ATOM     18  O   UNL     1      51.331   6.151  16.677  0.00  0.00    +0.000 OA
ATOM     19  H   UNL     1      49.628   4.124  18.418  0.00  0.00    +0.000 HD
BRANCH  17  20
ATOM     20  C   UNL     1      52.137   4.326  17.930  0.00  0.00    +0.000 A 
ATOM     21  C   UNL     1      53.244   4.870  18.566  0.00  0.00    +0.000 A 
ATOM     22  S   UNL     1      54.350   3.700  19.132  0.00  0.00    +0.000 S 
ATOM     23  C   UNL     1      53.409   2.429  18.502  0.00  0.00    +0.000 A 
ATOM     24  N   UNL     1      53.807   1.135  18.634  0.00  0.00    +0.000 NA
ATOM     25  C   UNL     1      53.021   0.274  18.077  0.00  0.00    +0.000 A 
ATOM     26  N   UNL     1      51.870   0.592  17.406  0.00  0.00    +0.000 N 
ATOM     27  C   UNL     1      51.401   1.879  17.291  0.00  0.00    +0.000 A 
ATOM     28  O   UNL     1      50.323   2.114  16.762  0.00  0.00    +0.000 OA
ATOM     29  C   UNL     1      52.261   2.888  17.881  0.00  0.00    +0.000 A 
ATOM     30  H   UNL     1      51.289  -0.131  17.006  0.00  0.00    +0.000 HD
ENDBRANCH  17  20
ENDBRANCH   2  16
TORSDOF 5
ENDMDL
