MODEL 1
REMARK VINA RESULT:    -8.302      0.000      0.000
REMARK INTER + INTRA:         -12.684
REMARK INTER:                 -12.184
REMARK INTRA:                  -0.500
REMARK UNBOUND:                -0.500
REMARK  Name = 
REMARK  9 active torsions:
REMARK  status: ('A' for Active; 'I' for Inactive)
REMARK    1  A    between atoms: C_1  and  C_2
REMARK    2  A    between atoms: C_2  and  C_3
REMARK    3  A    between atoms: C_2  and  N_10
REMARK    4  A    between atoms: C_3  and  C_4
REMARK    5  A    between atoms: N_10  and  C_11
REMARK    6  A    between atoms: C_11  and  C_12
REMARK    7  A    between atoms: C_15  and  C_16
REMARK    8  A    between atoms: C_16  and  N_17
REMARK    9  A    between atoms: C_18  and  C_20
REMARK                            x       y       z     vdW  Elec       q    Type
REMARK                         _______ _______ _______ _____ _____    ______ ____
ROOT
ATOM      1  C   UNL     1      44.683   5.382  11.941  0.00  0.00    +0.000 A 
ATOM      2  C   UNL     1      45.128   4.635  13.039  0.00  0.00    +0.000 A 
ATOM      3  C   UNL     1      46.308   4.985  13.699  0.00  0.00    +0.000 A 
ATOM      4  C   UNL     1      47.065   6.083  13.273  0.00  0.00    +0.000 A 
ATOM      5  C   UNL     1      46.640   6.806  12.153  0.00  0.00    +0.000 A 
ATOM      6  C   UNL     1      45.454   6.465  11.500  0.00  0.00    +0.000 A 
ENDROOT
BRANCH   1   7
ATOM      7  C   UNL     1      43.400   5.025  11.224  0.00  0.00    +0.000 C 
BRANCH   7   8
ATOM      8  N   UNL     1      43.608   4.892   9.782  0.00  0.00    +0.000 NA
ATOM      9  H   UNL     1      42.712   4.689   9.340  0.00  0.00    +0.000 HD
BRANCH   8  11
ATOM     10  C   UNL     1      44.117   2.546  10.112  0.00  0.00    +0.000 C 
ATOM     11  C   UNL     1      44.574   3.838   9.420  0.00  0.00    +0.000 C 
BRANCH  11  12
ATOM     12  C   UNL     1      44.670   3.643   7.886  0.00  0.00    +0.000 C 
BRANCH  12  13
ATOM     13  C   UNL     1      45.870   2.864   7.408  0.00  0.00    +0.000 A 
ATOM     14  C   UNL     1      46.223   1.664   8.030  0.00  0.00    +0.000 A 
ATOM     15  C   UNL     1      47.306   0.954   7.537  0.00  0.00    +0.000 A 
ATOM     16  N   UNL     1      48.049   1.353   6.483  0.00  0.00    +0.000 NA
ATOM     17  C   UNL     1      47.688   2.511   5.892  0.00  0.00    +0.000 A 
ATOM     18  C   UNL     1      46.619   3.289   6.309  0.00  0.00    +0.000 A 
ENDBRANCH  12  13
ENDBRANCH  11  12
ENDBRANCH   8  11
ENDBRANCH   7   8
ENDBRANCH   1   7
BRANCH   4  19
ATOM     19  C   UNL     1      48.344   6.459  13.970  0.00  0.00    +0.000 C 
BRANCH  19  20
ATOM     20  N   UNL     1      48.117   6.676  15.374  0.00  0.00    +0.000 N 
ATOM     21  C   UNL     1      49.124   6.505  16.288  0.00  0.00    +0.000 C 
ATOM     22  O   UNL     1      50.264   6.198  15.948  0.00  0.00    +0.000 OA
ATOM     23  H   UNL     1      47.152   6.705  15.688  0.00  0.00    +0.000 HD
BRANCH  21  24
ATOM     24  C   UNL     1      48.787   6.772  17.691  0.00  0.00    +0.000 A 
ATOM     25  C   UNL     1      48.519   8.074  18.092  0.00  0.00    +0.000 A 
ATOM     26  S   UNL     1      48.089   8.209  19.736  0.00  0.00    +0.000 S 
ATOM     27  C   UNL     1      48.296   6.538  19.982  0.00  0.00    +0.000 A 
ATOM     28  N   UNL     1      48.103   5.984  21.209  0.00  0.00    +0.000 NA
ATOM     29  C   UNL     1      48.323   4.714  21.262  0.00  0.00    +0.000 A 
ATOM     30  N   UNL     1      48.711   3.943  20.196  0.00  0.00    +0.000 N 
ATOM     31  C   UNL     1      48.894   4.456  18.933  0.00  0.00    +0.000 A 
ATOM     32  O   UNL     1      49.207   3.731  17.993  0.00  0.00    +0.000 OA
ATOM     33  C   UNL     1      48.670   5.884  18.821  0.00  0.00    +0.000 A 
ATOM     34  H   UNL     1      48.860   2.952  20.299  0.00  0.00    +0.000 HD
ENDBRANCH  21  24
ENDBRANCH  19  20
ENDBRANCH   4  19
TORSDOF 8
ENDMDL
MODEL 2
REMARK VINA RESULT:    -7.977      3.340      9.087
REMARK INTER + INTRA:         -12.208
REMARK INTER:                 -10.074
REMARK INTRA:                  -2.134
REMARK UNBOUND:                -0.500
REMARK  Name = 
REMARK  9 active torsions:
REMARK  status: ('A' for Active; 'I' for Inactive)
REMARK    1  A    between atoms: C_1  and  C_2
REMARK    2  A    between atoms: C_2  and  C_3
REMARK    3  A    between atoms: C_2  and  N_10
REMARK    4  A    between atoms: C_3  and  C_4
REMARK    5  A    between atoms: N_10  and  C_11
REMARK    6  A    between atoms: C_11  and  C_12
REMARK    7  A    between atoms: C_15  and  C_16
REMARK    8  A    between atoms: C_16  and  N_17
REMARK    9  A    between atoms: C_18  and  C_20
REMARK                            x       y       z     vdW  Elec       q    Type
REMARK                         _______ _______ _______ _____ _____    ______ ____
ROOT
ATOM      1  C   UNL     1      48.951   8.019  16.307  0.00  0.00    +0.000 A 
ATOM      2  C   UNL     1      48.102   8.985  15.752  0.00  0.00    +0.000 A 
ATOM      3  C   UNL     1      47.716   8.900  14.411  0.00  0.00    +0.000 A 
ATOM      4  C   UNL     1      48.173   7.851  13.603  0.00  0.00    +0.000 A 
ATOM      5  C   UNL     1      49.050   6.907  14.149  0.00  0.00    +0.000 A 
ATOM      6  C   UNL     1      49.426   6.984  15.491  0.00  0.00    +0.000 A 
ENDROOT
BRANCH   1   7
ATOM      7  C   UNL     1      49.366   8.089  17.759  0.00  0.00    +0.000 C 
BRANCH   7   8
ATOM      8  N   UNL     1      48.229   7.885  18.656  0.00  0.00    +0.000 NA
ATOM      9  H   UNL     1      48.251   8.601  19.381  0.00  0.00    +0.000 HD
BRANCH   8  11
ATOM     10  C   UNL     1      47.879   6.767  20.777  0.00  0.00    +0.000 C 
ATOM     11  C   UNL     1      48.211   6.554  19.292  0.00  0.00    +0.000 C 
BRANCH  11  12
ATOM     12  C   UNL     1      47.184   5.607  18.624  0.00  0.00    +0.000 C 
BRANCH  12  13
ATOM     13  C   UNL     1      47.772   4.544  17.730  0.00  0.00    +0.000 A 
ATOM     14  C   UNL     1      48.857   3.781  18.165  0.00  0.00    +0.000 A 
ATOM     15  C   UNL     1      49.345   2.785  17.335  0.00  0.00    +0.000 A 
ATOM     16  N   UNL     1      48.831   2.503  16.118  0.00  0.00    +0.000 NA
ATOM     17  C   UNL     1      47.778   3.246  15.720  0.00  0.00    +0.000 A 
ATOM     18  C   UNL     1      47.218   4.260  16.480  0.00  0.00    +0.000 A 
ENDBRANCH  12  13
ENDBRANCH  11  12
ENDBRANCH   8  11
ENDBRANCH   7   8
ENDBRANCH   1   7
BRANCH   4  19
ATOM     19  C   UNL     1      47.773   7.759  12.157  0.00  0.00    +0.000 C 
BRANCH  19  20
ATOM     20  N   UNL     1      47.053   6.540  11.902  0.00  0.00    +0.000 N 
ATOM     21  C   UNL     1      45.688   6.484  12.023  0.00  0.00    +0.000 C 
ATOM     22  O   UNL     1      45.022   7.474  12.316  0.00  0.00    +0.000 OA
ATOM     23  H   UNL     1      47.591   5.679  11.883  0.00  0.00    +0.000 HD
BRANCH  21  24
ATOM     24  C   UNL     1      45.055   5.196  11.719  0.00  0.00    +0.000 A 
ATOM     25  C   UNL     1      44.369   4.520  12.719  0.00  0.00    +0.000 A 
ATOM     26  S   UNL     1      43.643   3.071  12.192  0.00  0.00    +0.000 S 
ATOM     27  C   UNL     1      44.263   3.269  10.620  0.00  0.00    +0.000 A 
ATOM     28  N   UNL     1      44.026   2.343   9.654  0.00  0.00    +0.000 NA
ATOM     29  C   UNL     1      44.580   2.602   8.518  0.00  0.00    +0.000 A 
ATOM     30  N   UNL     1      45.345   3.710   8.256  0.00  0.00    +0.000 N 
ATOM     31  C   UNL     1      45.591   4.684   9.195  0.00  0.00    +0.000 A 
ATOM     32  O   UNL     1      46.250   5.682   8.917  0.00  0.00    +0.000 OA
ATOM     33  C   UNL     1      44.999   4.435  10.496  0.00  0.00    +0.000 A 
ATOM     34  H   UNL     1      45.745   3.861   7.344  0.00  0.00    +0.000 HD
ENDBRANCH  21  24
ENDBRANCH  19  20
ENDBRANCH   4  19
TORSDOF 8
ENDMDL
MODEL 3
REMARK VINA RESULT:    -7.952      4.047     10.274
REMARK INTER + INTRA:         -12.171
REMARK INTER:                  -9.951
REMARK INTRA:                  -2.220
REMARK UNBOUND:                -0.500
REMARK  Name = 
REMARK  9 active torsions:
REMARK  status: ('A' for Active; 'I' for Inactive)
REMARK    1  A    between atoms: C_1  and  C_2
REMARK    2  A    between atoms: C_2  and  C_3
REMARK    3  A    between atoms: C_2  and  N_10
REMARK    4  A    between atoms: C_3  and  C_4
REMARK    5  A    between atoms: N_10  and  C_11
REMARK    6  A    between atoms: C_11  and  C_12
REMARK    7  A    between atoms: C_15  and  C_16
REMARK    8  A    between atoms: C_16  and  N_17
REMARK    9  A    between atoms: C_18  and  C_20
REMARK                            x       y       z     vdW  Elec       q    Type
REMARK                         _______ _______ _______ _____ _____    ______ ____
ROOT
ATOM      1  C   UNL     1      51.375   4.128  17.613  0.00  0.00    +0.000 A 
ATOM      2  C   UNL     1      50.839   2.835  17.563  0.00  0.00    +0.000 A 
ATOM      3  C   UNL     1      49.482   2.642  17.289  0.00  0.00    +0.000 A 
ATOM      4  C   UNL     1      48.639   3.737  17.062  0.00  0.00    +0.000 A 
ATOM      5  C   UNL     1      49.167   5.030  17.149  0.00  0.00    +0.000 A 
ATOM      6  C   UNL     1      50.524   5.223  17.410  0.00  0.00    +0.000 A 
ENDROOT
BRANCH   1   7
ATOM      7  C   UNL     1      52.843   4.353  17.895  0.00  0.00    +0.000 C 
BRANCH   7   8
ATOM      8  N   UNL     1      53.050   5.011  19.185  0.00  0.00    +0.000 NA
ATOM      9  H   UNL     1      54.027   5.293  19.255  0.00  0.00    +0.000 HD
BRANCH   8  11
ATOM     10  C   UNL     1      54.023   3.587  20.887  0.00  0.00    +0.000 C 
ATOM     11  C   UNL     1      52.707   4.162  20.341  0.00  0.00    +0.000 C 
BRANCH  11  12
ATOM     12  C   UNL     1      51.951   4.954  21.437  0.00  0.00    +0.000 C 
BRANCH  12  13
ATOM     13  C   UNL     1      50.615   5.517  21.020  0.00  0.00    +0.000 A 
ATOM     14  C   UNL     1      49.493   4.688  20.953  0.00  0.00    +0.000 A 
ATOM     15  C   UNL     1      48.273   5.248  20.608  0.00  0.00    +0.000 A 
ATOM     16  N   UNL     1      48.099   6.558  20.329  0.00  0.00    +0.000 NA
ATOM     17  C   UNL     1      49.194   7.342  20.407  0.00  0.00    +0.000 A 
ATOM     18  C   UNL     1      50.454   6.877  20.748  0.00  0.00    +0.000 A 
ENDBRANCH  12  13
ENDBRANCH  11  12
ENDBRANCH   8  11
ENDBRANCH   7   8
ENDBRANCH   1   7
BRANCH   4  19
ATOM     19  C   UNL     1      47.175   3.540  16.779  0.00  0.00    +0.000 C 
BRANCH  19  20
ATOM     20  N   UNL     1      46.708   4.494  15.809  0.00  0.00    +0.000 N 
ATOM     21  C   UNL     1      46.798   4.239  14.465  0.00  0.00    +0.000 C 
ATOM     22  O   UNL     1      47.243   3.178  14.033  0.00  0.00    +0.000 OA
ATOM     23  H   UNL     1      46.554   5.444  16.131  0.00  0.00    +0.000 HD
BRANCH  21  24
ATOM     24  C   UNL     1      46.273   5.273  13.566  0.00  0.00    +0.000 A 
ATOM     25  C   UNL     1      47.061   6.374  13.258  0.00  0.00    +0.000 A 
ATOM     26  S   UNL     1      46.331   7.451  12.157  0.00  0.00    +0.000 S 
ATOM     27  C   UNL     1      44.915   6.511  12.092  0.00  0.00    +0.000 A 
ATOM     28  N   UNL     1      43.856   6.894  11.330  0.00  0.00    +0.000 NA
ATOM     29  C   UNL     1      42.837   6.106  11.397  0.00  0.00    +0.000 A 
ATOM     30  N   UNL     1      42.782   4.961  12.151  0.00  0.00    +0.000 N 
ATOM     31  C   UNL     1      43.837   4.523  12.916  0.00  0.00    +0.000 A 
ATOM     32  O   UNL     1      43.767   3.474  13.551  0.00  0.00    +0.000 OA
ATOM     33  C   UNL     1      45.006   5.380  12.886  0.00  0.00    +0.000 A 
ATOM     34  H   UNL     1      41.959   4.381  12.155  0.00  0.00    +0.000 HD
ENDBRANCH  21  24
ENDBRANCH  19  20
ENDBRANCH   4  19
TORSDOF 8
ENDMDL
MODEL 4
REMARK VINA RESULT:    -7.944      1.880      2.157
REMARK INTER + INTRA:         -12.159
REMARK INTER:                 -11.182
REMARK INTRA:                  -0.978
REMARK UNBOUND:                -0.500
REMARK  Name = 
REMARK  9 active torsions:
REMARK  status: ('A' for Active; 'I' for Inactive)
REMARK    1  A    between atoms: C_1  and  C_2
REMARK    2  A    between atoms: C_2  and  C_3
REMARK    3  A    between atoms: C_2  and  N_10
REMARK    4  A    between atoms: C_3  and  C_4
REMARK    5  A    between atoms: N_10  and  C_11
REMARK    6  A    between atoms: C_11  and  C_12
REMARK    7  A    between atoms: C_15  and  C_16
REMARK    8  A    between atoms: C_16  and  N_17
REMARK    9  A    between atoms: C_18  and  C_20
REMARK                            x       y       z     vdW  Elec       q    Type
REMARK                         _______ _______ _______ _____ _____    ______ ____
ROOT
ATOM      1  C   UNL     1      44.737   5.831  10.901  0.00  0.00    +0.000 A 
ATOM      2  C   UNL     1      44.151   6.691  11.838  0.00  0.00    +0.000 A 
ATOM      3  C   UNL     1      44.949   7.486  12.665  0.00  0.00    +0.000 A 
ATOM      4  C   UNL     1      46.345   7.433  12.572  0.00  0.00    +0.000 A 
ATOM      5  C   UNL     1      46.931   6.546  11.662  0.00  0.00    +0.000 A 
ATOM      6  C   UNL     1      46.135   5.761  10.827  0.00  0.00    +0.000 A 
ENDROOT
BRANCH   1   7
ATOM      7  C   UNL     1      43.888   4.975   9.990  0.00  0.00    +0.000 C 
BRANCH   7   8
ATOM      8  N   UNL     1      43.946   3.563  10.367  0.00  0.00    +0.000 NA
ATOM      9  H   UNL     1      44.290   3.494  11.325  0.00  0.00    +0.000 HD
BRANCH   8  11
ATOM     10  C   UNL     1      44.092   1.409   9.266  0.00  0.00    +0.000 C 
ATOM     11  C   UNL     1      44.806   2.751   9.486  0.00  0.00    +0.000 C 
BRANCH  11  12
ATOM     12  C   UNL     1      45.085   3.459   8.137  0.00  0.00    +0.000 C 
BRANCH  12  13
ATOM     13  C   UNL     1      46.150   2.819   7.280  0.00  0.00    +0.000 A 
ATOM     14  C   UNL     1      46.798   1.661   7.712  0.00  0.00    +0.000 A 
ATOM     15  C   UNL     1      47.739   1.076   6.881  0.00  0.00    +0.000 A 
ATOM     16  N   UNL     1      48.073   1.562   5.666  0.00  0.00    +0.000 NA
ATOM     17  C   UNL     1      47.430   2.678   5.264  0.00  0.00    +0.000 A 
ATOM     18  C   UNL     1      46.471   3.331   6.022  0.00  0.00    +0.000 A 
ENDBRANCH  12  13
ENDBRANCH  11  12
ENDBRANCH   8  11
ENDBRANCH   7   8
ENDBRANCH   1   7
BRANCH   4  19
ATOM     19  C   UNL     1      47.212   8.275  13.466  0.00  0.00    +0.000 C 
BRANCH  19  20
ATOM     20  N   UNL     1      47.579   7.551  14.654  0.00  0.00    +0.000 N 
ATOM     21  C   UNL     1      48.796   6.926  14.754  0.00  0.00    +0.000 C 
ATOM     22  O   UNL     1      49.634   6.989  13.858  0.00  0.00    +0.000 OA
ATOM     23  H   UNL     1      46.832   7.302  15.294  0.00  0.00    +0.000 HD
BRANCH  21  24
ATOM     24  C   UNL     1      49.074   6.233  16.017  0.00  0.00    +0.000 A 
ATOM     25  C   UNL     1      50.101   6.687  16.833  0.00  0.00    +0.000 A 
ATOM     26  S   UNL     1      50.257   5.812  18.288  0.00  0.00    +0.000 S 
ATOM     27  C   UNL     1      48.991   4.763  17.855  0.00  0.00    +0.000 A 
ATOM     28  N   UNL     1      48.619   3.742  18.673  0.00  0.00    +0.000 NA
ATOM     29  C   UNL     1      47.666   3.006  18.210  0.00  0.00    +0.000 A 
ATOM     30  N   UNL     1      47.043   3.202  17.004  0.00  0.00    +0.000 N 
ATOM     31  C   UNL     1      47.369   4.235  16.157  0.00  0.00    +0.000 A 
ATOM     32  O   UNL     1      46.765   4.403  15.101  0.00  0.00    +0.000 OA
ATOM     33  C   UNL     1      48.443   5.088  16.626  0.00  0.00    +0.000 A 
ATOM     34  H   UNL     1      46.298   2.596  16.700  0.00  0.00    +0.000 HD
ENDBRANCH  21  24
ENDBRANCH  19  20
ENDBRANCH   4  19
TORSDOF 8
ENDMDL
MODEL 5
REMARK VINA RESULT:    -7.911      4.001      9.560
REMARK INTER + INTRA:         -12.111
REMARK INTER:                  -9.317
REMARK INTRA:                  -2.794
REMARK UNBOUND:                -0.500
REMARK  Name = 
REMARK  9 active torsions:
REMARK  status: ('A' for Active; 'I' for Inactive)
REMARK    1  A    between atoms: C_1  and  C_2
REMARK    2  A    between atoms: C_2  and  C_3
REMARK    3  A    between atoms: C_2  and  N_10
REMARK    4  A    between atoms: C_3  and  C_4
REMARK    5  A    between atoms: N_10  and  C_11
REMARK    6  A    between atoms: C_11  and  C_12
REMARK    7  A    between atoms: C_15  and  C_16
REMARK    8  A    between atoms: C_16  and  N_17
REMARK    9  A    between atoms: C_18  and  C_20
REMARK                            x       y       z     vdW  Elec       q    Type
REMARK                         _______ _______ _______ _____ _____    ______ ____
ROOT
ATOM      1  C   UNL     1      48.389   5.665  20.447  0.00  0.00    +0.000 A 
ATOM      2  C   UNL     1      47.281   6.084  19.701  0.00  0.00    +0.000 A 
ATOM      3  C   UNL     1      46.935   5.424  18.519  0.00  0.00    +0.000 A 
ATOM      4  C   UNL     1      47.691   4.338  18.061  0.00  0.00    +0.000 A 
ATOM      5  C   UNL     1      48.820   3.944  18.787  0.00  0.00    +0.000 A 
ATOM      6  C   UNL     1      49.160   4.594  19.975  0.00  0.00    +0.000 A 
ENDROOT
BRANCH   1   7
ATOM      7  C   UNL     1      48.769   6.359  21.736  0.00  0.00    +0.000 C 
BRANCH   7   8
ATOM      8  N   UNL     1      49.947   7.209  21.564  0.00  0.00    +0.000 NA
ATOM      9  H   UNL     1      50.235   7.558  22.477  0.00  0.00    +0.000 HD
BRANCH   8  11
ATOM     10  C   UNL     1      49.775   9.625  21.517  0.00  0.00    +0.000 C 
ATOM     11  C   UNL     1      49.723   8.352  20.659  0.00  0.00    +0.000 C 
BRANCH  11  12
ATOM     12  C   UNL     1      50.774   8.405  19.522  0.00  0.00    +0.000 C 
BRANCH  12  13
ATOM     13  C   UNL     1      50.398   7.668  18.260  0.00  0.00    +0.000 A 
ATOM     14  C   UNL     1      49.306   8.089  17.499  0.00  0.00    +0.000 A 
ATOM     15  C   UNL     1      49.016   7.415  16.324  0.00  0.00    +0.000 A 
ATOM     16  N   UNL     1      49.730   6.365  15.864  0.00  0.00    +0.000 NA
ATOM     17  C   UNL     1      50.785   5.979  16.611  0.00  0.00    +0.000 A 
ATOM     18  C   UNL     1      51.157   6.592  17.797  0.00  0.00    +0.000 A 
ENDBRANCH  12  13
ENDBRANCH  11  12
ENDBRANCH   8  11
ENDBRANCH   7   8
ENDBRANCH   1   7
BRANCH   4  19
ATOM     19  C   UNL     1      47.334   3.630  16.783  0.00  0.00    +0.000 C 
BRANCH  19  20
ATOM     20  N   UNL     1      46.866   4.564  15.794  0.00  0.00    +0.000 N 
ATOM     21  C   UNL     1      46.852   4.238  14.463  0.00  0.00    +0.000 C 
ATOM     22  O   UNL     1      47.200   3.130  14.062  0.00  0.00    +0.000 OA
ATOM     23  H   UNL     1      46.793   5.537  16.074  0.00  0.00    +0.000 HD
BRANCH  21  24
ATOM     24  C   UNL     1      46.336   5.258  13.544  0.00  0.00    +0.000 A 
ATOM     25  C   UNL     1      47.135   6.344  13.210  0.00  0.00    +0.000 A 
ATOM     26  S   UNL     1      46.414   7.406  12.089  0.00  0.00    +0.000 S 
ATOM     27  C   UNL     1      44.987   6.481  12.049  0.00  0.00    +0.000 A 
ATOM     28  N   UNL     1      43.930   6.860  11.283  0.00  0.00    +0.000 NA
ATOM     29  C   UNL     1      42.902   6.085  11.369  0.00  0.00    +0.000 A 
ATOM     30  N   UNL     1      42.836   4.958  12.147  0.00  0.00    +0.000 N 
ATOM     31  C   UNL     1      43.889   4.523  12.918  0.00  0.00    +0.000 A 
ATOM     32  O   UNL     1      43.809   3.489  13.575  0.00  0.00    +0.000 OA
ATOM     33  C   UNL     1      45.068   5.366  12.866  0.00  0.00    +0.000 A 
ATOM     34  H   UNL     1      42.006   4.387  12.166  0.00  0.00    +0.000 HD
ENDBRANCH  21  24
ENDBRANCH  19  20
ENDBRANCH   4  19
TORSDOF 8
ENDMDL
MODEL 6
REMARK VINA RESULT:    -7.607      1.523      2.308
REMARK INTER + INTRA:         -11.665
REMARK INTER:                 -10.638
REMARK INTRA:                  -1.027
REMARK UNBOUND:                -0.500
REMARK  Name = 
REMARK  9 active torsions:
REMARK  status: ('A' for Active; 'I' for Inactive)
REMARK    1  A    between atoms: C_1  and  C_2
REMARK    2  A    between atoms: C_2  and  C_3
REMARK    3  A    between atoms: C_2  and  N_10
REMARK    4  A    between atoms: C_3  and  C_4
REMARK    5  A    between atoms: N_10  and  C_11
REMARK    6  A    between atoms: C_11  and  C_12
REMARK    7  A    between atoms: C_15  and  C_16
REMARK    8  A    between atoms: C_16  and  N_17
REMARK    9  A    between atoms: C_18  and  C_20
REMARK                            x       y       z     vdW  Elec       q    Type
REMARK                         _______ _______ _______ _____ _____    ______ ____
ROOT
ATOM      1  C   UNL     1      44.841   4.711  11.548  0.00  0.00    +0.000 A 
ATOM      2  C   UNL     1      45.610   5.677  10.888  0.00  0.00    +0.000 A 
ATOM      3  C   UNL     1      46.580   6.404  11.583  0.00  0.00    +0.000 A 
ATOM      4  C   UNL     1      46.796   6.180  12.949  0.00  0.00    +0.000 A 
ATOM      5  C   UNL     1      46.001   5.241  13.616  0.00  0.00    +0.000 A 
ATOM      6  C   UNL     1      45.041   4.505  12.920  0.00  0.00    +0.000 A 
ENDROOT
BRANCH   1   7
ATOM      7  C   UNL     1      43.797   3.906  10.807  0.00  0.00    +0.000 C 
BRANCH   7   8
ATOM      8  N   UNL     1      44.327   2.619  10.358  0.00  0.00    +0.000 NA
ATOM      9  H   UNL     1      45.148   2.390  10.918  0.00  0.00    +0.000 HD
BRANCH   8  11
ATOM     10  C   UNL     1      44.108   3.866   8.292  0.00  0.00    +0.000 C 
ATOM     11  C   UNL     1      44.696   2.598   8.930  0.00  0.00    +0.000 C 
BRANCH  11  12
ATOM     12  C   UNL     1      46.231   2.537   8.729  0.00  0.00    +0.000 C 
BRANCH  12  13
ATOM     13  C   UNL     1      46.685   2.150   7.344  0.00  0.00    +0.000 A 
ATOM     14  C   UNL     1      46.996   0.820   7.051  0.00  0.00    +0.000 A 
ATOM     15  C   UNL     1      47.369   0.493   5.758  0.00  0.00    +0.000 A 
ATOM     16  N   UNL     1      47.453   1.390   4.751  0.00  0.00    +0.000 NA
ATOM     17  C   UNL     1      47.142   2.668   5.052  0.00  0.00    +0.000 A 
ATOM     18  C   UNL     1      46.754   3.090   6.314  0.00  0.00    +0.000 A 
ENDBRANCH  12  13
ENDBRANCH  11  12
ENDBRANCH   8  11
ENDBRANCH   7   8
ENDBRANCH   1   7
BRANCH   4  19
ATOM     19  C   UNL     1      47.828   6.966  13.708  0.00  0.00    +0.000 C 
BRANCH  19  20
ATOM     20  N   UNL     1      47.806   6.626  15.106  0.00  0.00    +0.000 N 
ATOM     21  C   UNL     1      48.968   6.418  15.802  0.00  0.00    +0.000 C 
ATOM     22  O   UNL     1      50.071   6.548  15.279  0.00  0.00    +0.000 OA
ATOM     23  H   UNL     1      46.924   6.298  15.488  0.00  0.00    +0.000 HD
BRANCH  21  24
ATOM     24  C   UNL     1      48.828   6.096  17.227  0.00  0.00    +0.000 A 
ATOM     25  C   UNL     1      49.162   4.825  17.676  0.00  0.00    +0.000 A 
ATOM     26  S   UNL     1      49.000   4.630  19.361  0.00  0.00    +0.000 S 
ATOM     27  C   UNL     1      48.429   6.221  19.545  0.00  0.00    +0.000 A 
ATOM     28  N   UNL     1      48.075   6.699  20.768  0.00  0.00    +0.000 NA
ATOM     29  C   UNL     1      47.630   7.911  20.759  0.00  0.00    +0.000 A 
ATOM     30  N   UNL     1      47.515   8.693  19.639  0.00  0.00    +0.000 N 
ATOM     31  C   UNL     1      47.884   8.260  18.387  0.00  0.00    +0.000 A 
ATOM     32  O   UNL     1      47.801   8.999  17.410  0.00  0.00    +0.000 OA
ATOM     33  C   UNL     1      48.380   6.898  18.339  0.00  0.00    +0.000 A 
ATOM     34  H   UNL     1      47.167   9.637  19.698  0.00  0.00    +0.000 HD
ENDBRANCH  21  24
ENDBRANCH  19  20
ENDBRANCH   4  19
TORSDOF 8
ENDMDL
MODEL 7
REMARK VINA RESULT:    -7.497      2.476      3.060
REMARK INTER + INTRA:         -11.503
REMARK INTER:                 -10.686
REMARK INTRA:                  -0.817
REMARK UNBOUND:                -0.500
REMARK  Name = 
REMARK  9 active torsions:
REMARK  status: ('A' for Active; 'I' for Inactive)
REMARK    1  A    between atoms: C_1  and  C_2
REMARK    2  A    between atoms: C_2  and  C_3
REMARK    3  A    between atoms: C_2  and  N_10
REMARK    4  A    between atoms: C_3  and  C_4
REMARK    5  A    between atoms: N_10  and  C_11
REMARK    6  A    between atoms: C_11  and  C_12
REMARK    7  A    between atoms: C_15  and  C_16
REMARK    8  A    between atoms: C_16  and  N_17
REMARK    9  A    between atoms: C_18  and  C_20
REMARK                            x       y       z     vdW  Elec       q    Type
REMARK                         _______ _______ _______ _____ _____    ______ ____
ROOT
ATOM      1  C   UNL     1      46.023   4.810  12.660  0.00  0.00    +0.000 A 
ATOM      2  C   UNL     1      46.434   4.318  13.905  0.00  0.00    +0.000 A 
ATOM      3  C   UNL     1      47.288   5.069  14.715  0.00  0.00    +0.000 A 
ATOM      4  C   UNL     1      47.748   6.324  14.295  0.00  0.00    +0.000 A 
ATOM      5  C   UNL     1      47.367   6.799  13.036  0.00  0.00    +0.000 A 
ATOM      6  C   UNL     1      46.504   6.054  12.230  0.00  0.00    +0.000 A 
ENDROOT
BRANCH   1   7
ATOM      7  C   UNL     1      45.087   4.016  11.777  0.00  0.00    +0.000 C 
BRANCH   7   8
ATOM      8  N   UNL     1      45.149   4.463  10.386  0.00  0.00    +0.000 NA
ATOM      9  H   UNL     1      44.243   4.855  10.128  0.00  0.00    +0.000 HD
BRANCH   8  11
ATOM     10  C   UNL     1      44.245   2.526   9.245  0.00  0.00    +0.000 C 
ATOM     11  C   UNL     1      45.499   3.391   9.436  0.00  0.00    +0.000 C 
BRANCH  11  12
ATOM     12  C   UNL     1      45.995   3.957   8.082  0.00  0.00    +0.000 C 
BRANCH  12  13
ATOM     13  C   UNL     1      46.531   2.933   7.111  0.00  0.00    +0.000 A 
ATOM     14  C   UNL     1      46.652   3.246   5.756  0.00  0.00    +0.000 A 
ATOM     15  C   UNL     1      47.188   2.297   4.900  0.00  0.00    +0.000 A 
ATOM     16  N   UNL     1      47.604   1.076   5.300  0.00  0.00    +0.000 NA
ATOM     17  C   UNL     1      47.485   0.796   6.614  0.00  0.00    +0.000 A 
ATOM     18  C   UNL     1      46.966   1.681   7.547  0.00  0.00    +0.000 A 
ENDBRANCH  12  13
ENDBRANCH  11  12
ENDBRANCH   8  11
ENDBRANCH   7   8
ENDBRANCH   1   7
BRANCH   4  19
ATOM     19  C   UNL     1      48.678   7.134  15.155  0.00  0.00    +0.000 C 
BRANCH  19  20
ATOM     20  N   UNL     1      49.749   6.318  15.662  0.00  0.00    +0.000 N 
ATOM     21  C   UNL     1      49.770   5.908  16.970  0.00  0.00    +0.000 C 
ATOM     22  O   UNL     1      48.864   6.186  17.751  0.00  0.00    +0.000 OA
ATOM     23  H   UNL     1      50.598   6.272  15.107  0.00  0.00    +0.000 HD
BRANCH  21  24
ATOM     24  C   UNL     1      50.899   5.063  17.373  0.00  0.00    +0.000 A 
ATOM     25  C   UNL     1      52.078   5.658  17.804  0.00  0.00    +0.000 A 
ATOM     26  S   UNL     1      53.269   4.541  18.292  0.00  0.00    +0.000 S 
ATOM     27  C   UNL     1      52.271   3.221  17.897  0.00  0.00    +0.000 A 
ATOM     28  N   UNL     1      52.707   1.944  18.056  0.00  0.00    +0.000 NA
ATOM     29  C   UNL     1      51.861   1.041  17.689  0.00  0.00    +0.000 A 
ATOM     30  N   UNL     1      50.613   1.299  17.184  0.00  0.00    +0.000 N 
ATOM     31  C   UNL     1      50.121   2.574  17.029  0.00  0.00    +0.000 A 
ATOM     32  O   UNL     1      48.985   2.768  16.607  0.00  0.00    +0.000 OA
ATOM     33  C   UNL     1      51.038   3.628  17.417  0.00  0.00    +0.000 A 
ATOM     34  H   UNL     1      49.993   0.549  16.923  0.00  0.00    +0.000 HD
ENDBRANCH  21  24
ENDBRANCH  19  20
ENDBRANCH   4  19
TORSDOF 8
ENDMDL
MODEL 8
REMARK VINA RESULT:    -7.273      5.212      6.022
REMARK INTER + INTRA:         -11.174
REMARK INTER:                  -9.884
REMARK INTRA:                  -1.290
REMARK UNBOUND:                -0.500
REMARK  Name = 
REMARK  9 active torsions:
REMARK  status: ('A' for Active; 'I' for Inactive)
REMARK    1  A    between atoms: C_1  and  C_2
REMARK    2  A    between atoms: C_2  and  C_3
REMARK    3  A    between atoms: C_2  and  N_10
REMARK    4  A    between atoms: C_3  and  C_4
REMARK    5  A    between atoms: N_10  and  C_11
REMARK    6  A    between atoms: C_11  and  C_12
REMARK    7  A    between atoms: C_15  and  C_16
REMARK    8  A    between atoms: C_16  and  N_17
REMARK    9  A    between atoms: C_18  and  C_20
REMARK                            x       y       z     vdW  Elec       q    Type
REMARK                         _______ _______ _______ _____ _____    ______ ____
ROOT
ATOM      1  C   UNL     1      44.083   6.742  11.535  0.00  0.00    +0.000 A 
ATOM      2  C   UNL     1      43.560   7.929  11.007  0.00  0.00    +0.000 A 
ATOM      3  C   UNL     1      44.234   9.140  11.186  0.00  0.00    +0.000 A 
ATOM      4  C   UNL     1      45.440   9.186  11.897  0.00  0.00    +0.000 A 
ATOM      5  C   UNL     1      45.942   8.006  12.457  0.00  0.00    +0.000 A 
ATOM      6  C   UNL     1      45.276   6.794  12.268  0.00  0.00    +0.000 A 
ENDROOT
BRANCH   1   7
ATOM      7  C   UNL     1      43.373   5.422  11.339  0.00  0.00    +0.000 C 
BRANCH   7   8
ATOM      8  N   UNL     1      43.600   4.882   9.998  0.00  0.00    +0.000 NA
ATOM      9  H   UNL     1      42.742   4.434   9.676  0.00  0.00    +0.000 HD
BRANCH   8  11
ATOM     10  C   UNL     1      44.747   3.178  11.284  0.00  0.00    +0.000 C 
ATOM     11  C   UNL     1      44.706   3.909   9.933  0.00  0.00    +0.000 C 
BRANCH  11  12
ATOM     12  C   UNL     1      44.528   2.907   8.765  0.00  0.00    +0.000 C 
BRANCH  12  13
ATOM     13  C   UNL     1      45.802   2.490   8.073  0.00  0.00    +0.000 A 
ATOM     14  C   UNL     1      46.203   1.152   8.085  0.00  0.00    +0.000 A 
ATOM     15  C   UNL     1      47.355   0.797   7.403  0.00  0.00    +0.000 A 
ATOM     16  N   UNL     1      48.124   1.673   6.720  0.00  0.00    +0.000 NA
ATOM     17  C   UNL     1      47.715   2.959   6.714  0.00  0.00    +0.000 A 
ATOM     18  C   UNL     1      46.576   3.409   7.362  0.00  0.00    +0.000 A 
ENDBRANCH  12  13
ENDBRANCH  11  12
ENDBRANCH   8  11
ENDBRANCH   7   8
ENDBRANCH   1   7
BRANCH   4  19
ATOM     19  C   UNL     1      46.165  10.486  12.105  0.00  0.00    +0.000 C 
BRANCH  19  20
ATOM     20  N   UNL     1      47.479  10.439  11.520  0.00  0.00    +0.000 N 
ATOM     21  C   UNL     1      48.604  10.555  12.294  0.00  0.00    +0.000 C 
ATOM     22  O   UNL     1      48.542  10.666  13.517  0.00  0.00    +0.000 OA
ATOM     23  H   UNL     1      47.543  10.574  10.516  0.00  0.00    +0.000 HD
BRANCH  21  24
ATOM     24  C   UNL     1      49.891  10.474  11.596  0.00  0.00    +0.000 A 
ATOM     25  C   UNL     1      50.511  11.640  11.167  0.00  0.00    +0.000 A 
ATOM     26  S   UNL     1      52.024  11.379  10.427  0.00  0.00    +0.000 S 
ATOM     27  C   UNL     1      51.881   9.693  10.606  0.00  0.00    +0.000 A 
ATOM     28  N   UNL     1      52.851   8.858  10.149  0.00  0.00    +0.000 NA
ATOM     29  C   UNL     1      52.602   7.604  10.322  0.00  0.00    +0.000 A 
ATOM     30  N   UNL     1      51.472   7.107  10.920  0.00  0.00    +0.000 N 
ATOM     31  C   UNL     1      50.477   7.915  11.419  0.00  0.00    +0.000 A 
ATOM     32  O   UNL     1      49.495   7.438  11.981  0.00  0.00    +0.000 OA
ATOM     33  C   UNL     1      50.703   9.336  11.240  0.00  0.00    +0.000 A 
ATOM     34  H   UNL     1      51.338   6.115  11.034  0.00  0.00    +0.000 HD
ENDBRANCH  21  24
ENDBRANCH  19  20
ENDBRANCH   4  19
TORSDOF 8
ENDMDL
MODEL 9
REMARK VINA RESULT:    -7.234      2.358      3.415
REMARK INTER + INTRA:         -11.118
REMARK INTER:                 -10.376
REMARK INTRA:                  -0.741
REMARK UNBOUND:                -0.500
REMARK  Name = 
REMARK  9 active torsions:
REMARK  status: ('A' for Active; 'I' for Inactive)
REMARK    1  A    between atoms: C_1  and  C_2
REMARK    2  A    between atoms: C_2  and  C_3
REMARK    3  A    between atoms: C_2  and  N_10
REMARK    4  A    between atoms: C_3  and  C_4
REMARK    5  A    between atoms: N_10  and  C_11
REMARK    6  A    between atoms: C_11  and  C_12
REMARK    7  A    between atoms: C_15  and  C_16
REMARK    8  A    between atoms: C_16  and  N_17
REMARK    9  A    between atoms: C_18  and  C_20
REMARK                            x       y       z     vdW  Elec       q    Type
REMARK                         _______ _______ _______ _____ _____    ______ ____
ROOT
ATOM      1  C   UNL     1      45.089   3.974   9.693  0.00  0.00    +0.000 A 
ATOM      2  C   UNL     1      44.644   3.859  11.016  0.00  0.00    +0.000 A 
ATOM      3  C   UNL     1      44.858   4.897  11.927  0.00  0.00    +0.000 A 
ATOM      4  C   UNL     1      45.521   6.066  11.533  0.00  0.00    +0.000 A 
ATOM      5  C   UNL     1      45.998   6.165  10.221  0.00  0.00    +0.000 A 
ATOM      6  C   UNL     1      45.774   5.134   9.307  0.00  0.00    +0.000 A 
ENDROOT
BRANCH   1   7
ATOM      7  C   UNL     1      44.853   2.866   8.692  0.00  0.00    +0.000 C 
BRANCH   7   8
ATOM      8  N   UNL     1      45.752   2.977   7.544  0.00  0.00    +0.000 NA
ATOM      9  H   UNL     1      45.229   2.759   6.696  0.00  0.00    +0.000 HD
BRANCH   8  11
ATOM     10  C   UNL     1      46.411   0.680   7.944  0.00  0.00    +0.000 C 
ATOM     11  C   UNL     1      46.928   2.091   7.627  0.00  0.00    +0.000 C 
BRANCH  11  12
ATOM     12  C   UNL     1      47.753   2.099   6.316  0.00  0.00    +0.000 C 
BRANCH  12  13
ATOM     13  C   UNL     1      47.174   1.285   5.184  0.00  0.00    +0.000 A 
ATOM     14  C   UNL     1      46.486   1.916   4.146  0.00  0.00    +0.000 A 
ATOM     15  C   UNL     1      46.005   1.142   3.102  0.00  0.00    +0.000 A 
ATOM     16  N   UNL     1      46.161  -0.197   3.025  0.00  0.00    +0.000 NA
ATOM     17  C   UNL     1      46.835  -0.785   4.034  0.00  0.00    +0.000 A 
ATOM     18  C   UNL     1      47.357  -0.097   5.118  0.00  0.00    +0.000 A 
ENDBRANCH  12  13
ENDBRANCH  11  12
ENDBRANCH   8  11
ENDBRANCH   7   8
ENDBRANCH   1   7
BRANCH   4  19
ATOM     19  C   UNL     1      45.766   7.182  12.509  0.00  0.00    +0.000 C 
BRANCH  19  20
ATOM     20  N   UNL     1      46.478   6.705  13.665  0.00  0.00    +0.000 N 
ATOM     21  C   UNL     1      47.839   6.836  13.762  0.00  0.00    +0.000 C 
ATOM     22  O   UNL     1      48.502   7.395  12.891  0.00  0.00    +0.000 OA
ATOM     23  H   UNL     1      45.991   6.054  14.272  0.00  0.00    +0.000 HD
BRANCH  21  24
ATOM     24  C   UNL     1      48.459   6.332  14.992  0.00  0.00    +0.000 A 
ATOM     25  C   UNL     1      49.542   7.009  15.538  0.00  0.00    +0.000 A 
ATOM     26  S   UNL     1      50.110   6.331  16.995  0.00  0.00    +0.000 S 
ATOM     27  C   UNL     1      48.961   5.079  16.923  0.00  0.00    +0.000 A 
ATOM     28  N   UNL     1      48.917   4.115  17.881  0.00  0.00    +0.000 NA
ATOM     29  C   UNL     1      48.018   3.210  17.687  0.00  0.00    +0.000 A 
ATOM     30  N   UNL     1      47.151   3.184  16.625  0.00  0.00    +0.000 N 
ATOM     31  C   UNL     1      47.143   4.150  15.647  0.00  0.00    +0.000 A 
ATOM     32  O   UNL     1      46.329   4.116  14.728  0.00  0.00    +0.000 OA
ATOM     33  C   UNL     1      48.143   5.187  15.811  0.00  0.00    +0.000 A 
ATOM     34  H   UNL     1      46.464   2.453  16.533  0.00  0.00    +0.000 HD
ENDBRANCH  21  24
ENDBRANCH  19  20
ENDBRANCH   4  19
TORSDOF 8
ENDMDL
