MODEL 1
REMARK VINA RESULT:    -7.103      0.000      0.000
REMARK INTER + INTRA:         -10.285
REMARK INTER:                  -9.387
REMARK INTRA:                  -0.898
REMARK UNBOUND:                -0.898
REMARK  Name = 
REMARK  6 active torsions:
REMARK  status: ('A' for Active; 'I' for Inactive)
REMARK    1  A    between atoms: C_6  and  C_7
REMARK    2  A    between atoms: C_7  and  C_8
REMARK    3  A    between atoms: C_8  and  C_9
REMARK    4  A    between atoms: C_9  and  C_10
REMARK    5  A    between atoms: C_14  and  C_15
REMARK    6  A    between atoms: C_15  and  O_16
REMARK                            x       y       z     vdW  Elec       q    Type
REMARK                         _______ _______ _______ _____ _____    ______ ____
ROOT
ATOM      1  C   UNL     1      43.336   4.269  10.718  0.00  0.00    +0.000 C 
ENDROOT
BRANCH   1   2
ATOM      2  C   UNL     1      43.351   4.695  12.187  0.00  0.00    +0.000 C 
BRANCH   2   8
ATOM      3  N   UNL     1      47.102   3.766  14.986  0.00  0.00    +0.000 N 
ATOM      4  C   UNL     1      46.564   4.564  13.977  0.00  0.00    +0.000 A 
ATOM      5  C   UNL     1      47.344   5.527  13.356  0.00  0.00    +0.000 A 
ATOM      6  C   UNL     1      46.783   6.284  12.335  0.00  0.00    +0.000 A 
ATOM      7  C   UNL     1      45.467   6.045  11.956  0.00  0.00    +0.000 A 
ATOM      8  C   UNL     1      44.753   5.050  12.619  0.00  0.00    +0.000 A 
ATOM      9  N   UNL     1      45.292   4.314  13.624  0.00  0.00    +0.000 NA
ATOM     10  H   UNL     1      47.519   4.323  15.722  0.00  0.00    +0.000 HD
ATOM     11  H   UNL     1      46.347   3.179  15.329  0.00  0.00    +0.000 HD
ENDBRANCH   2   8
ENDBRANCH   1   2
BRANCH   1  12
ATOM     12  C   UNL     1      44.066   2.944  10.481  0.00  0.00    +0.000 C 
BRANCH  12  13
ATOM     13  C   UNL     1      44.978   3.052   9.281  0.00  0.00    +0.000 A 
ATOM     14  C   UNL     1      45.319   4.305   8.755  0.00  0.00    +0.000 A 
ATOM     15  C   UNL     1      46.239   4.403   7.710  0.00  0.00    +0.000 A 
ATOM     16  C   UNL     1      46.830   3.253   7.183  0.00  0.00    +0.000 A 
ATOM     17  C   UNL     1      46.488   1.987   7.675  0.00  0.00    +0.000 A 
ATOM     18  C   UNL     1      45.562   1.902   8.729  0.00  0.00    +0.000 A 
BRANCH  17  19
ATOM     19  C   UNL     1      47.170   0.736   7.182  0.00  0.00    +0.000 C 
BRANCH  19  20
ATOM     20  O   UNL     1      46.713  -0.429   7.861  0.00  0.00    +0.000 OA
ATOM     21  H   UNL     1      46.788  -0.244   8.812  0.00  0.00    +0.000 HD
ENDBRANCH  19  20
ENDBRANCH  17  19
ENDBRANCH  12  13
ENDBRANCH   1  12
TORSDOF 6
ENDMDL
MODEL 2
REMARK VINA RESULT:    -6.957      3.316      6.146
REMARK INTER + INTRA:         -10.092
REMARK INTER:                  -9.492
REMARK INTRA:                  -0.600
REMARK UNBOUND:                -0.898
REMARK  Name = 
REMARK  6 active torsions:
REMARK  status: ('A' for Active; 'I' for Inactive)
REMARK    1  A    between atoms: C_6  and  C_7
REMARK    2  A    between atoms: C_7  and  C_8
REMARK    3  A    between atoms: C_8  and  C_9
REMARK    4  A    between atoms: C_9  and  C_10
REMARK    5  A    between atoms: C_14  and  C_15
REMARK    6  A    between atoms: C_15  and  O_16
REMARK                            x       y       z     vdW  Elec       q    Type
REMARK                         _______ _______ _______ _____ _____    ______ ____
ROOT
ATOM      1  C   UNL     1      44.216   3.589   9.773  0.00  0.00    +0.000 C 
ENDROOT
BRANCH   1   2
ATOM      2  C   UNL     1      44.867   4.084   8.480  0.00  0.00    +0.000 C 
BRANCH   2   8
ATOM      3  N   UNL     1      48.142   2.826   5.245  0.00  0.00    +0.000 N 
ATOM      4  C   UNL     1      47.335   2.426   6.309  0.00  0.00    +0.000 A 
ATOM      5  C   UNL     1      47.442   1.145   6.826  0.00  0.00    +0.000 A 
ATOM      6  C   UNL     1      46.642   0.791   7.905  0.00  0.00    +0.000 A 
ATOM      7  C   UNL     1      45.771   1.732   8.443  0.00  0.00    +0.000 A 
ATOM      8  C   UNL     1      45.732   3.003   7.877  0.00  0.00    +0.000 A 
ATOM      9  N   UNL     1      46.503   3.353   6.817  0.00  0.00    +0.000 NA
ATOM     10  H   UNL     1      48.071   2.188   4.461  0.00  0.00    +0.000 HD
ATOM     11  H   UNL     1      47.856   3.770   4.999  0.00  0.00    +0.000 HD
ENDBRANCH   2   8
ENDBRANCH   1   2
BRANCH   1  12
ATOM     12  C   UNL     1      43.818   4.734  10.708  0.00  0.00    +0.000 C 
BRANCH  12  13
ATOM     13  C   UNL     1      45.022   5.234  11.471  0.00  0.00    +0.000 A 
ATOM     14  C   UNL     1      45.675   6.411  11.082  0.00  0.00    +0.000 A 
ATOM     15  C   UNL     1      46.725   6.920  11.848  0.00  0.00    +0.000 A 
ATOM     16  C   UNL     1      47.129   6.263  13.012  0.00  0.00    +0.000 A 
ATOM     17  C   UNL     1      46.508   5.072  13.409  0.00  0.00    +0.000 A 
ATOM     18  C   UNL     1      45.452   4.571  12.630  0.00  0.00    +0.000 A 
BRANCH  17  19
ATOM     19  C   UNL     1      46.868   4.386  14.703  0.00  0.00    +0.000 C 
BRANCH  19  20
ATOM     20  O   UNL     1      47.475   3.116  14.488  0.00  0.00    +0.000 OA
ATOM     21  H   UNL     1      47.628   3.040  13.531  0.00  0.00    +0.000 HD
ENDBRANCH  19  20
ENDBRANCH  17  19
ENDBRANCH  12  13
ENDBRANCH   1  12
TORSDOF 6
ENDMDL
MODEL 3
REMARK VINA RESULT:    -6.570      1.692      2.342
REMARK INTER + INTRA:          -9.580
REMARK INTER:                  -8.868
REMARK INTRA:                  -0.712
REMARK UNBOUND:                -0.898
REMARK  Name = 
REMARK  6 active torsions:
REMARK  status: ('A' for Active; 'I' for Inactive)
REMARK    1  A    between atoms: C_6  and  C_7
REMARK    2  A    between atoms: C_7  and  C_8
REMARK    3  A    between atoms: C_8  and  C_9
REMARK    4  A    between atoms: C_9  and  C_10
REMARK    5  A    between atoms: C_14  and  C_15
REMARK    6  A    between atoms: C_15  and  O_16
REMARK                            x       y       z     vdW  Elec       q    Type
REMARK                         _______ _______ _______ _____ _____    ______ ____
ROOT
ATOM      1  C   UNL     1      44.805   3.154  11.828  0.00  0.00    +0.000 C 
ENDROOT
BRANCH   1   2
ATOM      2  C   UNL     1      44.144   4.224  12.699  0.00  0.00    +0.000 C 
BRANCH   2   8
ATOM      3  N   UNL     1      43.835   8.644  10.925  0.00  0.00    +0.000 N 
ATOM      4  C   UNL     1      44.609   7.711  11.614  0.00  0.00    +0.000 A 
ATOM      5  C   UNL     1      45.838   8.075  12.141  0.00  0.00    +0.000 A 
ATOM      6  C   UNL     1      46.569   7.127  12.847  0.00  0.00    +0.000 A 
ATOM      7  C   UNL     1      46.043   5.851  13.017  0.00  0.00    +0.000 A 
ATOM      8  C   UNL     1      44.795   5.567  12.469  0.00  0.00    +0.000 A 
ATOM      9  N   UNL     1      44.080   6.485  11.770  0.00  0.00    +0.000 NA
ATOM     10  H   UNL     1      44.356   9.081  10.175  0.00  0.00    +0.000 HD
ATOM     11  H   UNL     1      43.015   8.149  10.585  0.00  0.00    +0.000 HD
ENDBRANCH   2   8
ENDBRANCH   1   2
BRANCH   1  12
ATOM     12  C   UNL     1      44.035   2.892  10.530  0.00  0.00    +0.000 C 
BRANCH  12  13
ATOM     13  C   UNL     1      44.953   3.027   9.337  0.00  0.00    +0.000 A 
ATOM     14  C   UNL     1      45.300   4.292   8.844  0.00  0.00    +0.000 A 
ATOM     15  C   UNL     1      46.224   4.413   7.806  0.00  0.00    +0.000 A 
ATOM     16  C   UNL     1      46.814   3.275   7.253  0.00  0.00    +0.000 A 
ATOM     17  C   UNL     1      46.465   1.998   7.711  0.00  0.00    +0.000 A 
ATOM     18  C   UNL     1      45.535   1.889   8.759  0.00  0.00    +0.000 A 
BRANCH  17  19
ATOM     19  C   UNL     1      47.145   0.757   7.190  0.00  0.00    +0.000 C 
BRANCH  19  20
ATOM     20  O   UNL     1      46.702  -0.420   7.857  0.00  0.00    +0.000 OA
ATOM     21  H   UNL     1      46.796  -1.150   7.223  0.00  0.00    +0.000 HD
ENDBRANCH  19  20
ENDBRANCH  17  19
ENDBRANCH  12  13
ENDBRANCH   1  12
TORSDOF 6
ENDMDL
MODEL 4
REMARK VINA RESULT:    -6.535      1.431      2.074
REMARK INTER + INTRA:          -9.533
REMARK INTER:                  -8.972
REMARK INTRA:                  -0.561
REMARK UNBOUND:                -0.898
REMARK  Name = 
REMARK  6 active torsions:
REMARK  status: ('A' for Active; 'I' for Inactive)
REMARK    1  A    between atoms: C_6  and  C_7
REMARK    2  A    between atoms: C_7  and  C_8
REMARK    3  A    between atoms: C_8  and  C_9
REMARK    4  A    between atoms: C_9  and  C_10
REMARK    5  A    between atoms: C_14  and  C_15
REMARK    6  A    between atoms: C_15  and  O_16
REMARK                            x       y       z     vdW  Elec       q    Type
REMARK                         _______ _______ _______ _____ _____    ______ ____
ROOT
ATOM      1  C   UNL     1      44.059   3.663   9.761  0.00  0.00    +0.000 C 
ENDROOT
BRANCH   1   2
ATOM      2  C   UNL     1      43.693   4.749  10.774  0.00  0.00    +0.000 C 
BRANCH   2   8
ATOM      3  N   UNL     1      46.792   3.456  14.164  0.00  0.00    +0.000 N 
ATOM      4  C   UNL     1      46.389   4.438  13.261  0.00  0.00    +0.000 A 
ATOM      5  C   UNL     1      47.139   5.592  13.102  0.00  0.00    +0.000 A 
ATOM      6  C   UNL     1      46.723   6.537  12.171  0.00  0.00    +0.000 A 
ATOM      7  C   UNL     1      45.580   6.291  11.418  0.00  0.00    +0.000 A 
ATOM      8  C   UNL     1      44.889   5.101  11.626  0.00  0.00    +0.000 A 
ATOM      9  N   UNL     1      45.284   4.179  12.540  0.00  0.00    +0.000 NA
ATOM     10  H   UNL     1      46.939   3.837  15.090  0.00  0.00    +0.000 HD
ATOM     11  H   UNL     1      46.074   2.737  14.155  0.00  0.00    +0.000 HD
ENDBRANCH   2   8
ENDBRANCH   1   2
BRANCH   1  12
ATOM     12  C   UNL     1      44.963   4.183   8.639  0.00  0.00    +0.000 C 
BRANCH  12  13
ATOM     13  C   UNL     1      45.756   3.049   8.033  0.00  0.00    +0.000 A 
ATOM     14  C   UNL     1      45.766   1.784   8.635  0.00  0.00    +0.000 A 
ATOM     15  C   UNL     1      46.420   0.716   8.019  0.00  0.00    +0.000 A 
ATOM     16  C   UNL     1      47.064   0.898   6.794  0.00  0.00    +0.000 A 
ATOM     17  C   UNL     1      47.089   2.159   6.183  0.00  0.00    +0.000 A 
ATOM     18  C   UNL     1      46.426   3.225   6.813  0.00  0.00    +0.000 A 
BRANCH  17  19
ATOM     19  C   UNL     1      47.705   2.366   4.823  0.00  0.00    +0.000 C 
BRANCH  19  20
ATOM     20  O   UNL     1      47.712   1.173   4.047  0.00  0.00    +0.000 OA
ATOM     21  H   UNL     1      47.022   0.598   4.416  0.00  0.00    +0.000 HD
ENDBRANCH  19  20
ENDBRANCH  17  19
ENDBRANCH  12  13
ENDBRANCH   1  12
TORSDOF 6
ENDMDL
MODEL 5
REMARK VINA RESULT:    -6.486      3.825      6.632
REMARK INTER + INTRA:          -9.469
REMARK INTER:                  -8.879
REMARK INTRA:                  -0.590
REMARK UNBOUND:                -0.898
REMARK  Name = 
REMARK  6 active torsions:
REMARK  status: ('A' for Active; 'I' for Inactive)
REMARK    1  A    between atoms: C_6  and  C_7
REMARK    2  A    between atoms: C_7  and  C_8
REMARK    3  A    between atoms: C_8  and  C_9
REMARK    4  A    between atoms: C_9  and  C_10
REMARK    5  A    between atoms: C_14  and  C_15
REMARK    6  A    between atoms: C_15  and  O_16
REMARK                            x       y       z     vdW  Elec       q    Type
REMARK                         _______ _______ _______ _____ _____    ______ ____
ROOT
ATOM      1  C   UNL     1      44.313   3.636   9.834  0.00  0.00    +0.000 C 
ENDROOT
BRANCH   1   2
ATOM      2  C   UNL     1      44.729   4.023   8.413  0.00  0.00    +0.000 C 
BRANCH   2   8
ATOM      3  N   UNL     1      48.123   2.905   5.250  0.00  0.00    +0.000 N 
ATOM      4  C   UNL     1      47.312   2.473   6.298  0.00  0.00    +0.000 A 
ATOM      5  C   UNL     1      47.466   1.198   6.821  0.00  0.00    +0.000 A 
ATOM      6  C   UNL     1      46.660   0.811   7.885  0.00  0.00    +0.000 A 
ATOM      7  C   UNL     1      45.738   1.713   8.402  0.00  0.00    +0.000 A 
ATOM      8  C   UNL     1      45.654   2.980   7.832  0.00  0.00    +0.000 A 
ATOM      9  N   UNL     1      46.430   3.362   6.787  0.00  0.00    +0.000 NA
ATOM     10  H   UNL     1      48.096   2.264   4.467  0.00  0.00    +0.000 HD
ATOM     11  H   UNL     1      47.801   3.835   4.996  0.00  0.00    +0.000 HD
ENDBRANCH   2   8
ENDBRANCH   1   2
BRANCH   1  12
ATOM     12  C   UNL     1      43.954   4.850  10.695  0.00  0.00    +0.000 C 
BRANCH  12  13
ATOM     13  C   UNL     1      44.977   5.041  11.790  0.00  0.00    +0.000 A 
ATOM     14  C   UNL     1      45.432   3.949  12.540  0.00  0.00    +0.000 A 
ATOM     15  C   UNL     1      46.448   4.115  13.482  0.00  0.00    +0.000 A 
ATOM     16  C   UNL     1      47.023   5.372  13.681  0.00  0.00    +0.000 A 
ATOM     17  C   UNL     1      46.570   6.484  12.961  0.00  0.00    +0.000 A 
ATOM     18  C   UNL     1      45.547   6.303  12.014  0.00  0.00    +0.000 A 
BRANCH  17  19
ATOM     19  C   UNL     1      47.227   7.835  13.095  0.00  0.00    +0.000 C 
BRANCH  19  20
ATOM     20  O   UNL     1      46.487   8.712  13.938  0.00  0.00    +0.000 OA
ATOM     21  H   UNL     1      45.877   9.202  13.362  0.00  0.00    +0.000 HD
ENDBRANCH  19  20
ENDBRANCH  17  19
ENDBRANCH  12  13
ENDBRANCH   1  12
TORSDOF 6
ENDMDL
MODEL 6
REMARK VINA RESULT:    -6.279      3.417      6.013
REMARK INTER + INTRA:          -9.196
REMARK INTER:                  -8.385
REMARK INTRA:                  -0.811
REMARK UNBOUND:                -0.898
REMARK  Name = 
REMARK  6 active torsions:
REMARK  status: ('A' for Active; 'I' for Inactive)
REMARK    1  A    between atoms: C_6  and  C_7
REMARK    2  A    between atoms: C_7  and  C_8
REMARK    3  A    between atoms: C_8  and  C_9
REMARK    4  A    between atoms: C_9  and  C_10
REMARK    5  A    between atoms: C_14  and  C_15
REMARK    6  A    between atoms: C_15  and  O_16
REMARK                            x       y       z     vdW  Elec       q    Type
REMARK                         _______ _______ _______ _____ _____    ______ ____
ROOT
ATOM      1  C   UNL     1      43.886   3.246  10.720  0.00  0.00    +0.000 C 
ENDROOT
BRANCH   1   2
ATOM      2  C   UNL     1      44.283   2.122   9.761  0.00  0.00    +0.000 C 
BRANCH   2   8
ATOM      3  N   UNL     1      47.822   1.039   6.750  0.00  0.00    +0.000 N 
ATOM      4  C   UNL     1      47.048   2.040   7.333  0.00  0.00    +0.000 A 
ATOM      5  C   UNL     1      47.197   3.360   6.937  0.00  0.00    +0.000 A 
ATOM      6  C   UNL     1      46.388   4.328   7.519  0.00  0.00    +0.000 A 
ATOM      7  C   UNL     1      45.446   3.946   8.468  0.00  0.00    +0.000 A 
ATOM      8  C   UNL     1      45.347   2.598   8.802  0.00  0.00    +0.000 A 
ATOM      9  N   UNL     1      46.140   1.649   8.244  0.00  0.00    +0.000 NA
ATOM     10  H   UNL     1      48.811   1.250   6.805  0.00  0.00    +0.000 HD
ATOM     11  H   UNL     1      47.587   0.172   7.226  0.00  0.00    +0.000 HD
ENDBRANCH   2   8
ENDBRANCH   1   2
BRANCH   1  12
ATOM     12  C   UNL     1      44.647   3.185  12.047  0.00  0.00    +0.000 C 
BRANCH  12  13
ATOM     13  C   UNL     1      45.213   4.543  12.393  0.00  0.00    +0.000 A 
ATOM     14  C   UNL     1      46.369   4.656  13.176  0.00  0.00    +0.000 A 
ATOM     15  C   UNL     1      46.942   5.907  13.409  0.00  0.00    +0.000 A 
ATOM     16  C   UNL     1      46.370   7.056  12.860  0.00  0.00    +0.000 A 
ATOM     17  C   UNL     1      45.200   6.972  12.094  0.00  0.00    +0.000 A 
ATOM     18  C   UNL     1      44.634   5.707  11.865  0.00  0.00    +0.000 A 
BRANCH  17  19
ATOM     19  C   UNL     1      44.607   8.185  11.422  0.00  0.00    +0.000 C 
BRANCH  19  20
ATOM     20  O   UNL     1      43.239   7.992  11.074  0.00  0.00    +0.000 OA
ATOM     21  H   UNL     1      42.714   8.471  11.737  0.00  0.00    +0.000 HD
ENDBRANCH  19  20
ENDBRANCH  17  19
ENDBRANCH  12  13
ENDBRANCH   1  12
TORSDOF 6
ENDMDL
MODEL 7
REMARK VINA RESULT:    -6.159      3.162      5.865
REMARK INTER + INTRA:          -9.037
REMARK INTER:                  -8.307
REMARK INTRA:                  -0.730
REMARK UNBOUND:                -0.898
REMARK  Name = 
REMARK  6 active torsions:
REMARK  status: ('A' for Active; 'I' for Inactive)
REMARK    1  A    between atoms: C_6  and  C_7
REMARK    2  A    between atoms: C_7  and  C_8
REMARK    3  A    between atoms: C_8  and  C_9
REMARK    4  A    between atoms: C_9  and  C_10
REMARK    5  A    between atoms: C_14  and  C_15
REMARK    6  A    between atoms: C_15  and  O_16
REMARK                            x       y       z     vdW  Elec       q    Type
REMARK                         _______ _______ _______ _____ _____    ______ ____
ROOT
ATOM      1  C   UNL     1      44.687   3.134  11.705  0.00  0.00    +0.000 C 
ENDROOT
BRANCH   1   2
ATOM      2  C   UNL     1      44.020   3.038  10.332  0.00  0.00    +0.000 C 
BRANCH   2   8
ATOM      3  N   UNL     1      46.821   0.285   7.622  0.00  0.00    +0.000 N 
ATOM      4  C   UNL     1      46.398   1.576   7.932  0.00  0.00    +0.000 A 
ATOM      5  C   UNL     1      46.839   2.656   7.183  0.00  0.00    +0.000 A 
ATOM      6  C   UNL     1      46.373   3.925   7.503  0.00  0.00    +0.000 A 
ATOM      7  C   UNL     1      45.470   4.075   8.550  0.00  0.00    +0.000 A 
ATOM      8  C   UNL     1      45.063   2.939   9.245  0.00  0.00    +0.000 A 
ATOM      9  N   UNL     1      45.522   1.698   8.945  0.00  0.00    +0.000 NA
ATOM     10  H   UNL     1      47.831   0.221   7.585  0.00  0.00    +0.000 HD
ATOM     11  H   UNL     1      46.423  -0.331   8.325  0.00  0.00    +0.000 HD
ENDBRANCH   2   8
ENDBRANCH   1   2
BRANCH   1  12
ATOM     12  C   UNL     1      44.109   4.262  12.565  0.00  0.00    +0.000 C 
BRANCH  12  13
ATOM     13  C   UNL     1      44.943   5.514  12.424  0.00  0.00    +0.000 A 
ATOM     14  C   UNL     1      44.436   6.637  11.758  0.00  0.00    +0.000 A 
ATOM     15  C   UNL     1      45.172   7.822  11.717  0.00  0.00    +0.000 A 
ATOM     16  C   UNL     1      46.417   7.899  12.343  0.00  0.00    +0.000 A 
ATOM     17  C   UNL     1      46.957   6.782  12.994  0.00  0.00    +0.000 A 
ATOM     18  C   UNL     1      46.205   5.595  13.030  0.00  0.00    +0.000 A 
BRANCH  17  19
ATOM     19  C   UNL     1      48.260   6.859  13.748  0.00  0.00    +0.000 C 
BRANCH  19  20
ATOM     20  O   UNL     1      49.366   6.436  12.957  0.00  0.00    +0.000 OA
ATOM     21  H   UNL     1      49.959   7.201  12.878  0.00  0.00    +0.000 HD
ENDBRANCH  19  20
ENDBRANCH  17  19
ENDBRANCH  12  13
ENDBRANCH   1  12
TORSDOF 6
ENDMDL
MODEL 8
REMARK VINA RESULT:    -5.998      3.554      6.794
REMARK INTER + INTRA:          -8.824
REMARK INTER:                  -8.365
REMARK INTRA:                  -0.458
REMARK UNBOUND:                -0.898
REMARK  Name = 
REMARK  6 active torsions:
REMARK  status: ('A' for Active; 'I' for Inactive)
REMARK    1  A    between atoms: C_6  and  C_7
REMARK    2  A    between atoms: C_7  and  C_8
REMARK    3  A    between atoms: C_8  and  C_9
REMARK    4  A    between atoms: C_9  and  C_10
REMARK    5  A    between atoms: C_14  and  C_15
REMARK    6  A    between atoms: C_15  and  O_16
REMARK                            x       y       z     vdW  Elec       q    Type
REMARK                         _______ _______ _______ _____ _____    ______ ____
ROOT
ATOM      1  C   UNL     1      46.150   5.766  11.799  0.00  0.00    +0.000 C 
ENDROOT
BRANCH   1   2
ATOM      2  C   UNL     1      44.959   5.764  10.839  0.00  0.00    +0.000 C 
BRANCH   2   8
ATOM      3  N   UNL     1      46.985   4.149   6.831  0.00  0.00    +0.000 N 
ATOM      4  C   UNL     1      46.114   3.890   7.888  0.00  0.00    +0.000 A 
ATOM      5  C   UNL     1      45.536   2.638   8.027  0.00  0.00    +0.000 A 
ATOM      6  C   UNL     1      44.695   2.407   9.109  0.00  0.00    +0.000 A 
ATOM      7  C   UNL     1      44.472   3.428  10.026  0.00  0.00    +0.000 A 
ATOM      8  C   UNL     1      45.102   4.653   9.826  0.00  0.00    +0.000 A 
ATOM      9  N   UNL     1      45.916   4.889   8.766  0.00  0.00    +0.000 NA
ATOM     10  H   UNL     1      46.567   3.920   5.938  0.00  0.00    +0.000 HD
ATOM     11  H   UNL     1      47.240   5.130   6.896  0.00  0.00    +0.000 HD
ENDBRANCH   2   8
ENDBRANCH   1   2
BRANCH   1  12
ATOM     12  C   UNL     1      45.994   4.752  12.935  0.00  0.00    +0.000 C 
BRANCH  12  13
ATOM     13  C   UNL     1      46.940   5.078  14.067  0.00  0.00    +0.000 A 
ATOM     14  C   UNL     1      47.777   6.199  13.996  0.00  0.00    +0.000 A 
ATOM     15  C   UNL     1      48.577   6.551  15.085  0.00  0.00    +0.000 A 
ATOM     16  C   UNL     1      48.546   5.789  16.255  0.00  0.00    +0.000 A 
ATOM     17  C   UNL     1      47.736   4.650  16.342  0.00  0.00    +0.000 A 
ATOM     18  C   UNL     1      46.934   4.308  15.240  0.00  0.00    +0.000 A 
BRANCH  17  19
ATOM     19  C   UNL     1      47.620   3.857  17.619  0.00  0.00    +0.000 C 
BRANCH  19  20
ATOM     20  O   UNL     1      46.532   2.939  17.587  0.00  0.00    +0.000 OA
ATOM     21  H   UNL     1      45.748   3.428  17.887  0.00  0.00    +0.000 HD
ENDBRANCH  19  20
ENDBRANCH  17  19
ENDBRANCH  12  13
ENDBRANCH   1  12
TORSDOF 6
ENDMDL
MODEL 9
REMARK VINA RESULT:    -5.657      4.395      6.180
REMARK INTER + INTRA:          -8.374
REMARK INTER:                  -7.939
REMARK INTRA:                  -0.435
REMARK UNBOUND:                -0.898
REMARK  Name = 
REMARK  6 active torsions:
REMARK  status: ('A' for Active; 'I' for Inactive)
REMARK    1  A    between atoms: C_6  and  C_7
REMARK    2  A    between atoms: C_7  and  C_8
REMARK    3  A    between atoms: C_8  and  C_9
REMARK    4  A    between atoms: C_9  and  C_10
REMARK    5  A    between atoms: C_14  and  C_15
REMARK    6  A    between atoms: C_15  and  O_16
REMARK                            x       y       z     vdW  Elec       q    Type
REMARK                         _______ _______ _______ _____ _____    ______ ____
ROOT
ATOM      1  C   UNL     1      47.317   4.558  15.466  0.00  0.00    +0.000 C 
ENDROOT
BRANCH   1   2
ATOM      2  C   UNL     1      47.454   3.522  16.584  0.00  0.00    +0.000 C 
BRANCH   2   8
ATOM      3  N   UNL     1      51.430   0.935  17.102  0.00  0.00    +0.000 N 
ATOM      4  C   UNL     1      50.806   2.169  17.279  0.00  0.00    +0.000 A 
ATOM      5  C   UNL     1      51.526   3.256  17.748  0.00  0.00    +0.000 A 
ATOM      6  C   UNL     1      50.878   4.478  17.885  0.00  0.00    +0.000 A 
ATOM      7  C   UNL     1      49.536   4.578  17.535  0.00  0.00    +0.000 A 
ATOM      8  C   UNL     1      48.886   3.444  17.058  0.00  0.00    +0.000 A 
ATOM      9  N   UNL     1      49.510   2.245  16.931  0.00  0.00    +0.000 NA
ATOM     10  H   UNL     1      51.903   0.631  17.944  0.00  0.00    +0.000 HD
ATOM     11  H   UNL     1      50.710   0.282  16.808  0.00  0.00    +0.000 HD
ENDBRANCH   2   8
ENDBRANCH   1   2
BRANCH   1  12
ATOM     12  C   UNL     1      46.986   3.924  14.112  0.00  0.00    +0.000 C 
BRANCH  12  13
ATOM     13  C   UNL     1      46.229   4.902  13.244  0.00  0.00    +0.000 A 
ATOM     14  C   UNL     1      46.898   5.951  12.600  0.00  0.00    +0.000 A 
ATOM     15  C   UNL     1      46.211   6.790  11.722  0.00  0.00    +0.000 A 
ATOM     16  C   UNL     1      44.851   6.588  11.475  0.00  0.00    +0.000 A 
ATOM     17  C   UNL     1      44.154   5.562  12.125  0.00  0.00    +0.000 A 
ATOM     18  C   UNL     1      44.858   4.723  13.005  0.00  0.00    +0.000 A 
BRANCH  17  19
ATOM     19  C   UNL     1      42.708   5.270  11.817  0.00  0.00    +0.000 C 
BRANCH  19  20
ATOM     20  O   UNL     1      41.923   6.456  11.740  0.00  0.00    +0.000 OA
ATOM     21  H   UNL     1      42.496   7.143  11.361  0.00  0.00    +0.000 HD
ENDBRANCH  19  20
ENDBRANCH  17  19
ENDBRANCH  12  13
ENDBRANCH   1  12
TORSDOF 6
ENDMDL
