MODEL 1
REMARK VINA RESULT:    -7.804      0.000      0.000
REMARK INTER + INTRA:         -11.701
REMARK INTER:                 -10.997
REMARK INTRA:                  -0.704
REMARK UNBOUND:                -0.704
REMARK  Name = 
REMARK  10 active torsions:
REMARK  status: ('A' for Active; 'I' for Inactive)
REMARK    1  A    between atoms: C_1  and  O_2
REMARK    2  A    between atoms: O_2  and  C_3
REMARK    3  A    between atoms: C_5  and  C_6
REMARK    4  A    between atoms: C_13  and  C_14
REMARK    5  A    between atoms: C_14  and  C_15
REMARK    6  A    between atoms: C_14  and  C_16
REMARK    7  A    between atoms: C_14  and  C_17
REMARK    8  A    between atoms: C_17  and  O_18
REMARK    9  A    between atoms: O_18  and  C_19
REMARK   10  A    between atoms: C_22  and  C_23
REMARK                            x       y       z     vdW  Elec       q    Type
REMARK                         _______ _______ _______ _____ _____    ______ ____
ROOT
ATOM      1  C   UNL     1      44.033   5.298  12.050  0.00  0.00    +0.000 C 
ATOM      2  C   UNL     1      43.087   5.032  13.239  0.00  0.00    +0.000 C 
ATOM      3  C   UNL     1      43.437   6.486  11.254  0.00  0.00    +0.000 C 
ENDROOT
BRANCH   1   8
ATOM      4  C   UNL     1      47.620   6.723  12.323  0.00  0.00    +0.000 A 
ATOM      5  C   UNL     1      48.044   6.194  13.542  0.00  0.00    +0.000 A 
ATOM      6  C   UNL     1      47.213   5.356  14.301  0.00  0.00    +0.000 A 
ATOM      7  C   UNL     1      45.938   5.051  13.782  0.00  0.00    +0.000 A 
ATOM      8  C   UNL     1      45.470   5.563  12.557  0.00  0.00    +0.000 A 
ATOM      9  C   UNL     1      46.350   6.393  11.835  0.00  0.00    +0.000 A 
BRANCH   6  10
ATOM     10  C   UNL     1      47.642   4.842  15.619  0.00  0.00    +0.000 A 
ATOM     11  C   UNL     1      47.186   3.620  16.134  0.00  0.00    +0.000 A 
ATOM     12  C   UNL     1      47.589   3.185  17.396  0.00  0.00    +0.000 A 
ATOM     13  C   UNL     1      48.461   3.981  18.118  0.00  0.00    +0.000 A 
ATOM     14  N   UNL     1      48.937   5.159  17.671  0.00  0.00    +0.000 NA
ATOM     15  C   UNL     1      48.513   5.558  16.447  0.00  0.00    +0.000 A 
ENDBRANCH   6  10
BRANCH   4  17
ATOM     16  C   UNL     1      49.746   7.651  11.802  0.00  0.00    +0.000 C 
ATOM     17  O   UNL     1      48.348   7.574  11.536  0.00  0.00    +0.000 OA
ENDBRANCH   4  17
ENDBRANCH   1   8
BRANCH   1  18
ATOM     18  C   UNL     1      44.065   4.058  11.114  0.00  0.00    +0.000 C 
BRANCH  18  19
ATOM     19  O   UNL     1      43.937   4.420   9.729  0.00  0.00    +0.000 OA
BRANCH  19  20
ATOM     20  C   UNL     1      44.898   3.813   8.941  0.00  0.00    +0.000 A 
ATOM     21  N   UNL     1      45.735   4.609   8.234  0.00  0.00    +0.000 NA
ATOM     22  C   UNL     1      46.651   4.009   7.443  0.00  0.00    +0.000 A 
ATOM     23  C   UNL     1      46.782   2.637   7.315  0.00  0.00    +0.000 A 
ATOM     24  C   UNL     1      45.921   1.829   8.072  0.00  0.00    +0.000 A 
ATOM     25  C   UNL     1      44.964   2.422   8.898  0.00  0.00    +0.000 A 
ATOM     26 CL   UNL     1      43.904   1.416   9.812  0.00  0.00    +0.000 Cl
BRANCH  23  27
ATOM     27  C   UNL     1      47.775   2.003   6.416  0.00  0.00    +0.000 C 
ATOM     28  N   UNL     1      48.934   2.671   6.129  0.00  0.00    +0.000 N 
ATOM     29  O   UNL     1      47.563   0.902   5.924  0.00  0.00    +0.000 OA
ATOM     30  H   UNL     1      49.188   3.596   6.442  0.00  0.00    +0.000 HD
ATOM     31  H   UNL     1      49.568   2.214   5.486  0.00  0.00    +0.000 HD
ENDBRANCH  23  27
ENDBRANCH  19  20
ENDBRANCH  18  19
ENDBRANCH   1  18
TORSDOF 7
ENDMDL
MODEL 2
REMARK VINA RESULT:    -7.779      1.890      3.669
REMARK INTER + INTRA:         -11.666
REMARK INTER:                 -11.221
REMARK INTRA:                  -0.446
REMARK UNBOUND:                -0.704
REMARK  Name = 
REMARK  10 active torsions:
REMARK  status: ('A' for Active; 'I' for Inactive)
REMARK    1  A    between atoms: C_1  and  O_2
REMARK    2  A    between atoms: O_2  and  C_3
REMARK    3  A    between atoms: C_5  and  C_6
REMARK    4  A    between atoms: C_13  and  C_14
REMARK    5  A    between atoms: C_14  and  C_15
REMARK    6  A    between atoms: C_14  and  C_16
REMARK    7  A    between atoms: C_14  and  C_17
REMARK    8  A    between atoms: C_17  and  O_18
REMARK    9  A    between atoms: O_18  and  C_19
REMARK   10  A    between atoms: C_22  and  C_23
REMARK                            x       y       z     vdW  Elec       q    Type
REMARK                         _______ _______ _______ _____ _____    ______ ____
ROOT
ATOM      1  C   UNL     1      43.891   5.403  11.974  0.00  0.00    +0.000 C 
ATOM      2  C   UNL     1      42.811   5.195  13.057  0.00  0.00    +0.000 C 
ATOM      3  C   UNL     1      43.469   6.643  11.146  0.00  0.00    +0.000 C 
ENDROOT
BRANCH   1   8
ATOM      4  C   UNL     1      47.032   4.679  14.114  0.00  0.00    +0.000 A 
ATOM      5  C   UNL     1      47.887   5.709  13.721  0.00  0.00    +0.000 A 
ATOM      6  C   UNL     1      47.485   6.672  12.784  0.00  0.00    +0.000 A 
ATOM      7  C   UNL     1      46.179   6.575  12.262  0.00  0.00    +0.000 A 
ATOM      8  C   UNL     1      45.284   5.552  12.629  0.00  0.00    +0.000 A 
ATOM      9  C   UNL     1      45.740   4.618  13.580  0.00  0.00    +0.000 A 
BRANCH   6  10
ATOM     10  C   UNL     1      48.411   7.730  12.326  0.00  0.00    +0.000 A 
ATOM     11  C   UNL     1      49.805   7.586  12.387  0.00  0.00    +0.000 A 
ATOM     12  C   UNL     1      50.645   8.620  11.976  0.00  0.00    +0.000 A 
ATOM     13  C   UNL     1      50.069   9.782  11.494  0.00  0.00    +0.000 A 
ATOM     14  N   UNL     1      48.739   9.973  11.405  0.00  0.00    +0.000 NA
ATOM     15  C   UNL     1      47.952   8.953  11.827  0.00  0.00    +0.000 A 
ENDBRANCH   6  10
BRANCH   4  17
ATOM     16  C   UNL     1      47.663   4.077  16.326  0.00  0.00    +0.000 C 
ATOM     17  O   UNL     1      47.352   3.679  14.993  0.00  0.00    +0.000 OA
ENDBRANCH   4  17
ENDBRANCH   1   8
BRANCH   1  18
ATOM     18  C   UNL     1      43.925   4.176  11.021  0.00  0.00    +0.000 C 
BRANCH  18  19
ATOM     19  O   UNL     1      43.922   4.562   9.637  0.00  0.00    +0.000 OA
BRANCH  19  20
ATOM     20  C   UNL     1      44.869   3.872   8.902  0.00  0.00    +0.000 A 
ATOM     21  N   UNL     1      45.686   4.586   8.091  0.00  0.00    +0.000 NA
ATOM     22  C   UNL     1      46.588   3.902   7.352  0.00  0.00    +0.000 A 
ATOM     23  C   UNL     1      46.723   2.525   7.377  0.00  0.00    +0.000 A 
ATOM     24  C   UNL     1      45.883   1.806   8.241  0.00  0.00    +0.000 A 
ATOM     25  C   UNL     1      44.941   2.486   9.015  0.00  0.00    +0.000 A 
ATOM     26 CL   UNL     1      43.907   1.588  10.061  0.00  0.00    +0.000 Cl
BRANCH  23  27
ATOM     27  C   UNL     1      47.699   1.796   6.534  0.00  0.00    +0.000 C 
ATOM     28  N   UNL     1      48.903   2.382   6.253  0.00  0.00    +0.000 N 
ATOM     29  O   UNL     1      47.433   0.689   6.082  0.00  0.00    +0.000 OA
ATOM     30  H   UNL     1      49.204   3.302   6.535  0.00  0.00    +0.000 HD
ATOM     31  H   UNL     1      49.525   1.861   5.648  0.00  0.00    +0.000 HD
ENDBRANCH  23  27
ENDBRANCH  19  20
ENDBRANCH  18  19
ENDBRANCH   1  18
TORSDOF 7
ENDMDL
MODEL 3
REMARK VINA RESULT:    -7.490      3.986      7.908
REMARK INTER + INTRA:         -11.259
REMARK INTER:                 -10.070
REMARK INTRA:                  -1.189
REMARK UNBOUND:                -0.704
REMARK  Name = 
REMARK  10 active torsions:
REMARK  status: ('A' for Active; 'I' for Inactive)
REMARK    1  A    between atoms: C_1  and  O_2
REMARK    2  A    between atoms: O_2  and  C_3
REMARK    3  A    between atoms: C_5  and  C_6
REMARK    4  A    between atoms: C_13  and  C_14
REMARK    5  A    between atoms: C_14  and  C_15
REMARK    6  A    between atoms: C_14  and  C_16
REMARK    7  A    between atoms: C_14  and  C_17
REMARK    8  A    between atoms: C_17  and  O_18
REMARK    9  A    between atoms: O_18  and  C_19
REMARK   10  A    between atoms: C_22  and  C_23
REMARK                            x       y       z     vdW  Elec       q    Type
REMARK                         _______ _______ _______ _____ _____    ______ ____
ROOT
ATOM      1  C   UNL     1      49.350   8.282  12.368  0.00  0.00    +0.000 C 
ATOM      2  C   UNL     1      50.125   7.687  11.174  0.00  0.00    +0.000 C 
ATOM      3  C   UNL     1      49.751   9.774  12.470  0.00  0.00    +0.000 C 
ENDROOT
BRANCH   1   8
ATOM      4  C   UNL     1      45.548   8.975  12.174  0.00  0.00    +0.000 A 
ATOM      5  C   UNL     1      45.063   7.764  11.685  0.00  0.00    +0.000 A 
ATOM      6  C   UNL     1      45.923   6.687  11.421  0.00  0.00    +0.000 A 
ATOM      7  C   UNL     1      47.296   6.865  11.684  0.00  0.00    +0.000 A 
ATOM      8  C   UNL     1      47.829   8.071  12.177  0.00  0.00    +0.000 A 
ATOM      9  C   UNL     1      46.917   9.114  12.430  0.00  0.00    +0.000 A 
BRANCH   6  10
ATOM     10  C   UNL     1      45.414   5.422  10.849  0.00  0.00    +0.000 A 
ATOM     11  C   UNL     1      45.442   5.155   9.473  0.00  0.00    +0.000 A 
ATOM     12  C   UNL     1      44.923   3.963   8.968  0.00  0.00    +0.000 A 
ATOM     13  C   UNL     1      44.395   3.047   9.861  0.00  0.00    +0.000 A 
ATOM     14  N   UNL     1      44.349   3.246  11.192  0.00  0.00    +0.000 NA
ATOM     15  C   UNL     1      44.848   4.421  11.646  0.00  0.00    +0.000 A 
ENDBRANCH   6  10
BRANCH   4  17
ATOM     16  C   UNL     1      43.929  10.523  11.376  0.00  0.00    +0.000 C 
ATOM     17  O   UNL     1      44.788  10.087  12.426  0.00  0.00    +0.000 OA
ENDBRANCH   4  17
ENDBRANCH   1   8
BRANCH   1  18
ATOM     18  C   UNL     1      49.782   7.574  13.683  0.00  0.00    +0.000 C 
BRANCH  18  19
ATOM     19  O   UNL     1      48.911   7.891  14.781  0.00  0.00    +0.000 OA
BRANCH  19  20
ATOM     20  C   UNL     1      48.606   6.778  15.542  0.00  0.00    +0.000 A 
ATOM     21  N   UNL     1      48.047   5.715  14.916  0.00  0.00    +0.000 NA
ATOM     22  C   UNL     1      47.724   4.642  15.671  0.00  0.00    +0.000 A 
ATOM     23  C   UNL     1      47.930   4.568  17.038  0.00  0.00    +0.000 A 
ATOM     24  C   UNL     1      48.532   5.669  17.664  0.00  0.00    +0.000 A 
ATOM     25  C   UNL     1      48.875   6.793  16.909  0.00  0.00    +0.000 A 
ATOM     26 CL   UNL     1      49.601   8.143  17.694  0.00  0.00    +0.000 Cl
BRANCH  23  27
ATOM     27  C   UNL     1      47.538   3.391  17.849  0.00  0.00    +0.000 C 
ATOM     28  N   UNL     1      48.301   3.047  18.931  0.00  0.00    +0.000 N 
ATOM     29  O   UNL     1      46.553   2.727  17.555  0.00  0.00    +0.000 OA
ATOM     30  H   UNL     1      49.152   3.496  19.235  0.00  0.00    +0.000 HD
ATOM     31  H   UNL     1      48.013   2.219  19.437  0.00  0.00    +0.000 HD
ENDBRANCH  23  27
ENDBRANCH  19  20
ENDBRANCH  18  19
ENDBRANCH   1  18
TORSDOF 7
ENDMDL
MODEL 4
REMARK VINA RESULT:    -7.088      3.419      8.269
REMARK INTER + INTRA:         -10.692
REMARK INTER:                  -9.398
REMARK INTRA:                  -1.294
REMARK UNBOUND:                -0.704
REMARK  Name = 
REMARK  10 active torsions:
REMARK  status: ('A' for Active; 'I' for Inactive)
REMARK    1  A    between atoms: C_1  and  O_2
REMARK    2  A    between atoms: O_2  and  C_3
REMARK    3  A    between atoms: C_5  and  C_6
REMARK    4  A    between atoms: C_13  and  C_14
REMARK    5  A    between atoms: C_14  and  C_15
REMARK    6  A    between atoms: C_14  and  C_16
REMARK    7  A    between atoms: C_14  and  C_17
REMARK    8  A    between atoms: C_17  and  O_18
REMARK    9  A    between atoms: O_18  and  C_19
REMARK   10  A    between atoms: C_22  and  C_23
REMARK                            x       y       z     vdW  Elec       q    Type
REMARK                         _______ _______ _______ _____ _____    ______ ____
ROOT
ATOM      1  C   UNL     1      48.850   8.263  12.770  0.00  0.00    +0.000 C 
ATOM      2  C   UNL     1      49.777   7.359  11.931  0.00  0.00    +0.000 C 
ATOM      3  C   UNL     1      49.317   9.723  12.548  0.00  0.00    +0.000 C 
ENDROOT
BRANCH   1   8
ATOM      4  C   UNL     1      45.103   8.900  12.044  0.00  0.00    +0.000 A 
ATOM      5  C   UNL     1      44.705   7.676  11.510  0.00  0.00    +0.000 A 
ATOM      6  C   UNL     1      45.606   6.608  11.383  0.00  0.00    +0.000 A 
ATOM      7  C   UNL     1      46.928   6.809  11.831  0.00  0.00    +0.000 A 
ATOM      8  C   UNL     1      47.372   8.028  12.375  0.00  0.00    +0.000 A 
ATOM      9  C   UNL     1      46.422   9.062  12.484  0.00  0.00    +0.000 A 
BRANCH   6  10
ATOM     10  C   UNL     1      45.197   5.328  10.765  0.00  0.00    +0.000 A 
ATOM     11  C   UNL     1      45.433   5.037   9.414  0.00  0.00    +0.000 A 
ATOM     12  C   UNL     1      45.002   3.832   8.860  0.00  0.00    +0.000 A 
ATOM     13  C   UNL     1      44.352   2.928   9.680  0.00  0.00    +0.000 A 
ATOM     14  N   UNL     1      44.105   3.150  10.986  0.00  0.00    +0.000 NA
ATOM     15  C   UNL     1      44.524   4.337  11.487  0.00  0.00    +0.000 A 
ENDBRANCH   6  10
BRANCH   4  17
ATOM     16  C   UNL     1      44.703  11.169  11.455  0.00  0.00    +0.000 C 
ATOM     17  O   UNL     1      44.303  10.004  12.171  0.00  0.00    +0.000 OA
ENDBRANCH   4  17
ENDBRANCH   1   8
BRANCH   1  18
ATOM     18  C   UNL     1      49.012   7.928  14.279  0.00  0.00    +0.000 C 
BRANCH  18  19
ATOM     19  O   UNL     1      49.331   6.544  14.497  0.00  0.00    +0.000 OA
BRANCH  19  20
ATOM     20  C   UNL     1      49.063   6.146  15.795  0.00  0.00    +0.000 A 
ATOM     21  N   UNL     1      49.824   6.665  16.788  0.00  0.00    +0.000 NA
ATOM     22  C   UNL     1      49.576   6.249  18.049  0.00  0.00    +0.000 A 
ATOM     23  C   UNL     1      48.596   5.330  18.382  0.00  0.00    +0.000 A 
ATOM     24  C   UNL     1      47.803   4.821  17.342  0.00  0.00    +0.000 A 
ATOM     25  C   UNL     1      48.037   5.233  16.028  0.00  0.00    +0.000 A 
ATOM     26 CL   UNL     1      47.064   4.590  14.760  0.00  0.00    +0.000 Cl
BRANCH  23  27
ATOM     27  C   UNL     1      48.365   4.865  19.770  0.00  0.00    +0.000 C 
ATOM     28  N   UNL     1      48.402   3.523  20.035  0.00  0.00    +0.000 N 
ATOM     29  O   UNL     1      48.131   5.663  20.668  0.00  0.00    +0.000 OA
ATOM     30  H   UNL     1      48.540   2.781  19.366  0.00  0.00    +0.000 HD
ATOM     31  H   UNL     1      48.207   3.249  20.990  0.00  0.00    +0.000 HD
ENDBRANCH  23  27
ENDBRANCH  19  20
ENDBRANCH  18  19
ENDBRANCH   1  18
TORSDOF 7
ENDMDL
MODEL 5
REMARK VINA RESULT:    -7.003      3.674      6.218
REMARK INTER + INTRA:         -10.572
REMARK INTER:                  -9.020
REMARK INTRA:                  -1.552
REMARK UNBOUND:                -0.704
REMARK  Name = 
REMARK  10 active torsions:
REMARK  status: ('A' for Active; 'I' for Inactive)
REMARK    1  A    between atoms: C_1  and  O_2
REMARK    2  A    between atoms: O_2  and  C_3
REMARK    3  A    between atoms: C_5  and  C_6
REMARK    4  A    between atoms: C_13  and  C_14
REMARK    5  A    between atoms: C_14  and  C_15
REMARK    6  A    between atoms: C_14  and  C_16
REMARK    7  A    between atoms: C_14  and  C_17
REMARK    8  A    between atoms: C_17  and  O_18
REMARK    9  A    between atoms: O_18  and  C_19
REMARK   10  A    between atoms: C_22  and  C_23
REMARK                            x       y       z     vdW  Elec       q    Type
REMARK                         _______ _______ _______ _____ _____    ______ ____
ROOT
ATOM      1  C   UNL     1      49.578   7.881  15.556  0.00  0.00    +0.000 C 
ATOM      2  C   UNL     1      49.378   9.299  16.132  0.00  0.00    +0.000 C 
ATOM      3  C   UNL     1      50.968   7.861  14.873  0.00  0.00    +0.000 C 
ENDROOT
BRANCH   1   8
ATOM      4  C   UNL     1      48.183   5.909  18.579  0.00  0.00    +0.000 A 
ATOM      5  C   UNL     1      49.050   4.819  18.631  0.00  0.00    +0.000 A 
ATOM      6  C   UNL     1      50.112   4.688  17.724  0.00  0.00    +0.000 A 
ATOM      7  C   UNL     1      50.285   5.706  16.765  0.00  0.00    +0.000 A 
ATOM      8  C   UNL     1      49.433   6.823  16.676  0.00  0.00    +0.000 A 
ATOM      9  C   UNL     1      48.389   6.905  17.618  0.00  0.00    +0.000 A 
BRANCH   6  10
ATOM     10  C   UNL     1      50.996   3.502  17.744  0.00  0.00    +0.000 A 
ATOM     11  C   UNL     1      50.578   2.245  17.286  0.00  0.00    +0.000 A 
ATOM     12  C   UNL     1      51.431   1.144  17.353  0.00  0.00    +0.000 A 
ATOM     13  C   UNL     1      52.702   1.328  17.866  0.00  0.00    +0.000 A 
ATOM     14  N   UNL     1      53.160   2.513  18.313  0.00  0.00    +0.000 NA
ATOM     15  C   UNL     1      52.300   3.558  18.248  0.00  0.00    +0.000 A 
ENDBRANCH   6  10
BRANCH   4  17
ATOM     16  C   UNL     1      47.371   6.193  20.796  0.00  0.00    +0.000 C 
ATOM     17  O   UNL     1      47.103   6.100  19.400  0.00  0.00    +0.000 OA
ENDBRANCH   4  17
ENDBRANCH   1   8
BRANCH   1  18
ATOM     18  C   UNL     1      48.502   7.596  14.471  0.00  0.00    +0.000 C 
BRANCH  18  19
ATOM     19  O   UNL     1      48.694   6.321  13.838  0.00  0.00    +0.000 OA
BRANCH  19  20
ATOM     20  C   UNL     1      47.537   5.856  13.240  0.00  0.00    +0.000 A 
ATOM     21  N   UNL     1      47.181   6.390  12.047  0.00  0.00    +0.000 NA
ATOM     22  C   UNL     1      46.033   5.953  11.483  0.00  0.00    +0.000 A 
ATOM     23  C   UNL     1      45.207   4.999  12.051  0.00  0.00    +0.000 A 
ATOM     24  C   UNL     1      45.605   4.441  13.275  0.00  0.00    +0.000 A 
ATOM     25  C   UNL     1      46.786   4.874  13.881  0.00  0.00    +0.000 A 
ATOM     26 CL   UNL     1      47.255   4.189  15.391  0.00  0.00    +0.000 Cl
BRANCH  23  27
ATOM     27  C   UNL     1      43.936   4.559  11.427  0.00  0.00    +0.000 C 
ATOM     28  N   UNL     1      43.572   5.087  10.219  0.00  0.00    +0.000 N 
ATOM     29  O   UNL     1      43.213   3.744  11.986  0.00  0.00    +0.000 OA
ATOM     30  H   UNL     1      44.068   5.794   9.697  0.00  0.00    +0.000 HD
ATOM     31  H   UNL     1      42.681   4.782   9.847  0.00  0.00    +0.000 HD
ENDBRANCH  23  27
ENDBRANCH  19  20
ENDBRANCH  18  19
ENDBRANCH   1  18
TORSDOF 7
ENDMDL
MODEL 6
REMARK VINA RESULT:    -6.718      3.786      6.306
REMARK INTER + INTRA:         -10.170
REMARK INTER:                  -9.306
REMARK INTRA:                  -0.865
REMARK UNBOUND:                -0.704
REMARK  Name = 
REMARK  10 active torsions:
REMARK  status: ('A' for Active; 'I' for Inactive)
REMARK    1  A    between atoms: C_1  and  O_2
REMARK    2  A    between atoms: O_2  and  C_3
REMARK    3  A    between atoms: C_5  and  C_6
REMARK    4  A    between atoms: C_13  and  C_14
REMARK    5  A    between atoms: C_14  and  C_15
REMARK    6  A    between atoms: C_14  and  C_16
REMARK    7  A    between atoms: C_14  and  C_17
REMARK    8  A    between atoms: C_17  and  O_18
REMARK    9  A    between atoms: O_18  and  C_19
REMARK   10  A    between atoms: C_22  and  C_23
REMARK                            x       y       z     vdW  Elec       q    Type
REMARK                         _______ _______ _______ _____ _____    ______ ____
ROOT
ATOM      1  C   UNL     1      48.007   3.468  16.987  0.00  0.00    +0.000 C 
ATOM      2  C   UNL     1      48.991   2.452  16.372  0.00  0.00    +0.000 C 
ATOM      3  C   UNL     1      46.972   2.658  17.807  0.00  0.00    +0.000 C 
ENDROOT
BRANCH   1   8
ATOM      4  C   UNL     1      50.898   5.510  18.552  0.00  0.00    +0.000 A 
ATOM      5  C   UNL     1      50.203   6.502  19.244  0.00  0.00    +0.000 A 
ATOM      6  C   UNL     1      48.800   6.539  19.250  0.00  0.00    +0.000 A 
ATOM      7  C   UNL     1      48.114   5.529  18.546  0.00  0.00    +0.000 A 
ATOM      8  C   UNL     1      48.775   4.511  17.834  0.00  0.00    +0.000 A 
ATOM      9  C   UNL     1      50.183   4.519  17.869  0.00  0.00    +0.000 A 
BRANCH   6  10
ATOM     10  C   UNL     1      48.066   7.624  19.937  0.00  0.00    +0.000 A 
ATOM     11  C   UNL     1      47.836   7.617  21.320  0.00  0.00    +0.000 A 
ATOM     12  C   UNL     1      47.111   8.642  21.926  0.00  0.00    +0.000 A 
ATOM     13  C   UNL     1      46.639   9.672  21.131  0.00  0.00    +0.000 A 
ATOM     14  N   UNL     1      46.837   9.735  19.800  0.00  0.00    +0.000 NA
ATOM     15  C   UNL     1      47.532   8.714  19.242  0.00  0.00    +0.000 A 
ENDBRANCH   6  10
BRANCH   4  17
ATOM     16  C   UNL     1      52.820   5.477  17.153  0.00  0.00    +0.000 C 
ATOM     17  O   UNL     1      52.261   5.417  18.463  0.00  0.00    +0.000 OA
ENDBRANCH   4  17
ENDBRANCH   1   8
BRANCH   1  18
ATOM     18  C   UNL     1      47.248   4.218  15.857  0.00  0.00    +0.000 C 
BRANCH  18  19
ATOM     19  O   UNL     1      47.718   3.848  14.550  0.00  0.00    +0.000 OA
BRANCH  19  20
ATOM     20  C   UNL     1      46.783   4.115  13.566  0.00  0.00    +0.000 A 
ATOM     21  N   UNL     1      45.978   3.102  13.164  0.00  0.00    +0.000 NA
ATOM     22  C   UNL     1      45.088   3.362  12.181  0.00  0.00    +0.000 A 
ATOM     23  C   UNL     1      44.952   4.595  11.567  0.00  0.00    +0.000 A 
ATOM     24  C   UNL     1      45.779   5.637  12.014  0.00  0.00    +0.000 A 
ATOM     25  C   UNL     1      46.709   5.397  13.027  0.00  0.00    +0.000 A 
ATOM     26 CL   UNL     1      47.726   6.683  13.556  0.00  0.00    +0.000 Cl
BRANCH  23  27
ATOM     27  C   UNL     1      43.990   4.847  10.469  0.00  0.00    +0.000 C 
ATOM     28  N   UNL     1      44.373   4.596   9.180  0.00  0.00    +0.000 N 
ATOM     29  O   UNL     1      42.870   5.284  10.704  0.00  0.00    +0.000 OA
ATOM     30  H   UNL     1      45.280   4.280   8.872  0.00  0.00    +0.000 HD
ATOM     31  H   UNL     1      43.694   4.813   8.460  0.00  0.00    +0.000 HD
ENDBRANCH  23  27
ENDBRANCH  19  20
ENDBRANCH  18  19
ENDBRANCH   1  18
TORSDOF 7
ENDMDL
MODEL 7
REMARK VINA RESULT:    -6.300      4.279      7.972
REMARK INTER + INTRA:          -9.581
REMARK INTER:                  -8.292
REMARK INTRA:                  -1.289
REMARK UNBOUND:                -0.704
REMARK  Name = 
REMARK  10 active torsions:
REMARK  status: ('A' for Active; 'I' for Inactive)
REMARK    1  A    between atoms: C_1  and  O_2
REMARK    2  A    between atoms: O_2  and  C_3
REMARK    3  A    between atoms: C_5  and  C_6
REMARK    4  A    between atoms: C_13  and  C_14
REMARK    5  A    between atoms: C_14  and  C_15
REMARK    6  A    between atoms: C_14  and  C_16
REMARK    7  A    between atoms: C_14  and  C_17
REMARK    8  A    between atoms: C_17  and  O_18
REMARK    9  A    between atoms: O_18  and  C_19
REMARK   10  A    between atoms: C_22  and  C_23
REMARK                            x       y       z     vdW  Elec       q    Type
REMARK                         _______ _______ _______ _____ _____    ______ ____
ROOT
ATOM      1  C   UNL     1      49.422   8.962  16.246  0.00  0.00    +0.000 C 
ATOM      2  C   UNL     1      50.281  10.244  16.238  0.00  0.00    +0.000 C 
ATOM      3  C   UNL     1      48.052   9.339  16.863  0.00  0.00    +0.000 C 
ENDROOT
BRANCH   1   8
ATOM      4  C   UNL     1      50.241   8.102  12.564  0.00  0.00    +0.000 A 
ATOM      5  C   UNL     1      49.213   7.216  12.244  0.00  0.00    +0.000 A 
ATOM      6  C   UNL     1      48.221   6.882  13.178  0.00  0.00    +0.000 A 
ATOM      7  C   UNL     1      48.288   7.486  14.450  0.00  0.00    +0.000 A 
ATOM      8  C   UNL     1      49.308   8.384  14.815  0.00  0.00    +0.000 A 
ATOM      9  C   UNL     1      50.272   8.688  13.834  0.00  0.00    +0.000 A 
BRANCH   6  10
ATOM     10  C   UNL     1      47.164   5.899  12.856  0.00  0.00    +0.000 A 
ATOM     11  C   UNL     1      46.343   6.022  11.726  0.00  0.00    +0.000 A 
ATOM     12  C   UNL     1      45.336   5.091  11.474  0.00  0.00    +0.000 A 
ATOM     13  C   UNL     1      45.179   4.037  12.357  0.00  0.00    +0.000 A 
ATOM     14  N   UNL     1      45.943   3.864  13.453  0.00  0.00    +0.000 NA
ATOM     15  C   UNL     1      46.902   4.796  13.675  0.00  0.00    +0.000 A 
ENDBRANCH   6  10
BRANCH   4  17
ATOM     16  C   UNL     1      51.564   7.556  10.664  0.00  0.00    +0.000 C 
ATOM     17  O   UNL     1      51.266   8.457  11.728  0.00  0.00    +0.000 OA
ENDBRANCH   4  17
ENDBRANCH   1   8
BRANCH   1  18
ATOM     18  C   UNL     1      50.083   7.890  17.157  0.00  0.00    +0.000 C 
BRANCH  18  19
ATOM     19  O   UNL     1      49.157   6.860  17.542  0.00  0.00    +0.000 OA
BRANCH  19  20
ATOM     20  C   UNL     1      49.756   5.614  17.592  0.00  0.00    +0.000 A 
ATOM     21  N   UNL     1      51.099   5.562  17.757  0.00  0.00    +0.000 NA
ATOM     22  C   UNL     1      51.681   4.342  17.775  0.00  0.00    +0.000 A 
ATOM     23  C   UNL     1      50.987   3.153  17.636  0.00  0.00    +0.000 A 
ATOM     24  C   UNL     1      49.594   3.227  17.489  0.00  0.00    +0.000 A 
ATOM     25  C   UNL     1      48.966   4.474  17.466  0.00  0.00    +0.000 A 
ATOM     26 CL   UNL     1      47.255   4.550  17.273  0.00  0.00    +0.000 Cl
BRANCH  23  27
ATOM     27  C   UNL     1      51.652   1.828  17.626  0.00  0.00    +0.000 C 
ATOM     28  N   UNL     1      52.750   1.631  18.418  0.00  0.00    +0.000 N 
ATOM     29  O   UNL     1      51.236   0.923  16.915  0.00  0.00    +0.000 OA
ATOM     30  H   UNL     1      53.200   2.317  19.005  0.00  0.00    +0.000 HD
ATOM     31  H   UNL     1      53.190   0.722  18.356  0.00  0.00    +0.000 HD
ENDBRANCH  23  27
ENDBRANCH  19  20
ENDBRANCH  18  19
ENDBRANCH   1  18
TORSDOF 7
ENDMDL
MODEL 8
REMARK VINA RESULT:    -6.083      4.501      8.209
REMARK INTER + INTRA:          -9.276
REMARK INTER:                  -7.122
REMARK INTRA:                  -2.154
REMARK UNBOUND:                -0.704
REMARK  Name = 
REMARK  10 active torsions:
REMARK  status: ('A' for Active; 'I' for Inactive)
REMARK    1  A    between atoms: C_1  and  O_2
REMARK    2  A    between atoms: O_2  and  C_3
REMARK    3  A    between atoms: C_5  and  C_6
REMARK    4  A    between atoms: C_13  and  C_14
REMARK    5  A    between atoms: C_14  and  C_15
REMARK    6  A    between atoms: C_14  and  C_16
REMARK    7  A    between atoms: C_14  and  C_17
REMARK    8  A    between atoms: C_17  and  O_18
REMARK    9  A    between atoms: O_18  and  C_19
REMARK   10  A    between atoms: C_22  and  C_23
REMARK                            x       y       z     vdW  Elec       q    Type
REMARK                         _______ _______ _______ _____ _____    ______ ____
ROOT
ATOM      1  C   UNL     1      50.013  10.148  15.369  0.00  0.00    +0.000 C 
ATOM      2  C   UNL     1      51.501  10.149  15.775  0.00  0.00    +0.000 C 
ATOM      3  C   UNL     1      49.609  11.623  15.124  0.00  0.00    +0.000 C 
ENDROOT
BRANCH   1   8
ATOM      4  C   UNL     1      50.560   8.403  11.960  0.00  0.00    +0.000 A 
ATOM      5  C   UNL     1      49.510   7.486  11.938  0.00  0.00    +0.000 A 
ATOM      6  C   UNL     1      48.588   7.409  12.992  0.00  0.00    +0.000 A 
ATOM      7  C   UNL     1      48.749   8.302  14.071  0.00  0.00    +0.000 A 
ATOM      8  C   UNL     1      49.794   9.242  14.134  0.00  0.00    +0.000 A 
ATOM      9  C   UNL     1      50.685   9.279  13.044  0.00  0.00    +0.000 A 
BRANCH   6  10
ATOM     10  C   UNL     1      47.508   6.398  12.994  0.00  0.00    +0.000 A 
ATOM     11  C   UNL     1      47.330   5.491  14.048  0.00  0.00    +0.000 A 
ATOM     12  C   UNL     1      46.319   4.531  13.997  0.00  0.00    +0.000 A 
ATOM     13  C   UNL     1      45.491   4.508  12.890  0.00  0.00    +0.000 A 
ATOM     14  N   UNL     1      45.610   5.358  11.852  0.00  0.00    +0.000 NA
ATOM     15  C   UNL     1      46.612   6.268  11.928  0.00  0.00    +0.000 A 
ENDBRANCH   6  10
BRANCH   4  17
ATOM     16  C   UNL     1      51.893   7.330  10.308  0.00  0.00    +0.000 C 
ATOM     17  O   UNL     1      51.524   8.523  10.994  0.00  0.00    +0.000 OA
ENDBRANCH   4  17
ENDBRANCH   1   8
BRANCH   1  18
ATOM     18  C   UNL     1      49.148   9.599  16.539  0.00  0.00    +0.000 C 
BRANCH  18  19
ATOM     19  O   UNL     1      49.904   8.755  17.423  0.00  0.00    +0.000 OA
BRANCH  19  20
ATOM     20  C   UNL     1      49.350   7.493  17.538  0.00  0.00    +0.000 A 
ATOM     21  N   UNL     1      48.188   7.370  18.222  0.00  0.00    +0.000 NA
ATOM     22  C   UNL     1      47.668   6.129  18.356  0.00  0.00    +0.000 A 
ATOM     23  C   UNL     1      48.253   4.987  17.837  0.00  0.00    +0.000 A 
ATOM     24  C   UNL     1      49.444   5.138  17.113  0.00  0.00    +0.000 A 
ATOM     25  C   UNL     1      50.004   6.408  16.959  0.00  0.00    +0.000 A 
ATOM     26 CL   UNL     1      51.475   6.576  16.077  0.00  0.00    +0.000 Cl
BRANCH  23  27
ATOM     27  C   UNL     1      47.680   3.633  18.025  0.00  0.00    +0.000 C 
ATOM     28  N   UNL     1      48.260   2.786  18.929  0.00  0.00    +0.000 N 
ATOM     29  O   UNL     1      46.709   3.267  17.376  0.00  0.00    +0.000 OA
ATOM     30  H   UNL     1      49.085   2.968  19.481  0.00  0.00    +0.000 HD
ATOM     31  H   UNL     1      47.855   1.861  19.001  0.00  0.00    +0.000 HD
ENDBRANCH  23  27
ENDBRANCH  19  20
ENDBRANCH  18  19
ENDBRANCH   1  18
TORSDOF 7
ENDMDL
MODEL 9
REMARK VINA RESULT:    -6.004      4.183      7.506
REMARK INTER + INTRA:          -9.164
REMARK INTER:                  -7.854
REMARK INTRA:                  -1.311
REMARK UNBOUND:                -0.704
REMARK  Name = 
REMARK  10 active torsions:
REMARK  status: ('A' for Active; 'I' for Inactive)
REMARK    1  A    between atoms: C_1  and  O_2
REMARK    2  A    between atoms: O_2  and  C_3
REMARK    3  A    between atoms: C_5  and  C_6
REMARK    4  A    between atoms: C_13  and  C_14
REMARK    5  A    between atoms: C_14  and  C_15
REMARK    6  A    between atoms: C_14  and  C_16
REMARK    7  A    between atoms: C_14  and  C_17
REMARK    8  A    between atoms: C_17  and  O_18
REMARK    9  A    between atoms: O_18  and  C_19
REMARK   10  A    between atoms: C_22  and  C_23
REMARK                            x       y       z     vdW  Elec       q    Type
REMARK                         _______ _______ _______ _____ _____    ______ ____
ROOT
ATOM      1  C   UNL     1      49.915   8.774  13.295  0.00  0.00    +0.000 C 
ATOM      2  C   UNL     1      51.422   8.445  13.292  0.00  0.00    +0.000 C 
ATOM      3  C   UNL     1      49.556   9.243  14.728  0.00  0.00    +0.000 C 
ENDROOT
BRANCH   1   8
ATOM      4  C   UNL     1      50.299  11.152  10.268  0.00  0.00    +0.000 A 
ATOM      5  C   UNL     1      48.999  11.633  10.117  0.00  0.00    +0.000 A 
ATOM      6  C   UNL     1      47.969  11.233  10.983  0.00  0.00    +0.000 A 
ATOM      7  C   UNL     1      48.296  10.339  12.023  0.00  0.00    +0.000 A 
ATOM      8  C   UNL     1      49.594   9.829  12.210  0.00  0.00    +0.000 A 
ATOM      9  C   UNL     1      50.589  10.271  11.316  0.00  0.00    +0.000 A 
BRANCH   6  10
ATOM     10  C   UNL     1      46.579  11.700  10.788  0.00  0.00    +0.000 A 
ATOM     11  C   UNL     1      46.114  12.179   9.555  0.00  0.00    +0.000 A 
ATOM     12  C   UNL     1      44.805  12.641   9.420  0.00  0.00    +0.000 A 
ATOM     13  C   UNL     1      43.976  12.599  10.527  0.00  0.00    +0.000 A 
ATOM     14  N   UNL     1      44.366  12.143  11.732  0.00  0.00    +0.000 NA
ATOM     15  C   UNL     1      45.649  11.716  11.832  0.00  0.00    +0.000 A 
ENDBRANCH   6  10
BRANCH   4  17
ATOM     16  C   UNL     1      52.607  10.862   9.774  0.00  0.00    +0.000 C 
ATOM     17  O   UNL     1      51.354  11.461   9.451  0.00  0.00    +0.000 OA
ENDBRANCH   4  17
ENDBRANCH   1   8
BRANCH   1  18
ATOM     18  C   UNL     1      49.094   7.490  12.989  0.00  0.00    +0.000 C 
BRANCH  18  19
ATOM     19  O   UNL     1      48.028   7.289  13.932  0.00  0.00    +0.000 OA
BRANCH  19  20
ATOM     20  C   UNL     1      47.157   6.293  13.529  0.00  0.00    +0.000 A 
ATOM     21  N   UNL     1      47.521   5.006  13.744  0.00  0.00    +0.000 NA
ATOM     22  C   UNL     1      46.679   4.038  13.320  0.00  0.00    +0.000 A 
ATOM     23  C   UNL     1      45.475   4.284  12.685  0.00  0.00    +0.000 A 
ATOM     24  C   UNL     1      45.104   5.624  12.492  0.00  0.00    +0.000 A 
ATOM     25  C   UNL     1      45.955   6.645  12.918  0.00  0.00    +0.000 A 
ATOM     26 CL   UNL     1      45.493   8.285  12.663  0.00  0.00    +0.000 Cl
BRANCH  23  27
ATOM     27  C   UNL     1      44.583   3.204  12.201  0.00  0.00    +0.000 C 
ATOM     28  N   UNL     1      44.769   2.704  10.941  0.00  0.00    +0.000 N 
ATOM     29  O   UNL     1      43.684   2.769  12.909  0.00  0.00    +0.000 OA
ATOM     30  H   UNL     1      45.446   3.019  10.263  0.00  0.00    +0.000 HD
ATOM     31  H   UNL     1      44.117   1.990  10.642  0.00  0.00    +0.000 HD
ENDBRANCH  23  27
ENDBRANCH  19  20
ENDBRANCH  18  19
ENDBRANCH   1  18
TORSDOF 7
ENDMDL
