MODEL 1
REMARK VINA RESULT:    -7.874      0.000      0.000
REMARK INTER + INTRA:         -12.248
REMARK INTER:                 -10.635
REMARK INTRA:                  -1.613
REMARK UNBOUND:                -1.613
REMARK  Name = 
REMARK  7 active torsions:
REMARK  status: ('A' for Active; 'I' for Inactive)
REMARK    1  A    between atoms: C_1  and  N_2
REMARK    2  A    between atoms: N_2  and  C_3
REMARK    3  A    between atoms: C_3  and  C_4
REMARK    4  A    between atoms: C_8  and  C_9
REMARK    5  A    between atoms: C_9  and  N_10
REMARK    6  A    between atoms: C_11  and  C_13
REMARK    7  A    between atoms: C_24  and  C_26
REMARK                            x       y       z     vdW  Elec       q    Type
REMARK                         _______ _______ _______ _____ _____    ______ ____
ROOT
ATOM      1  C   UNL     1      46.526   4.466  13.483  0.00  0.00    +0.000 A 
ATOM      2  C   UNL     1      46.892   3.915  14.712  0.00  0.00    +0.000 A 
ATOM      3  C   UNL     1      47.728   4.647  15.537  0.00  0.00    +0.000 A 
ATOM      4  N   UNL     1      48.213   5.869  15.227  0.00  0.00    +0.000 NA
ATOM      5  C   UNL     1      47.857   6.395  14.027  0.00  0.00    +0.000 A 
ATOM      6  C   UNL     1      47.036   5.720  13.132  0.00  0.00    +0.000 A 
ENDROOT
BRANCH   1   7
ATOM      7  C   UNL     1      45.584   3.755  12.550  0.00  0.00    +0.000 C 
BRANCH   7   9
ATOM      8  C   UNL     1      43.402   4.913  13.145  0.00  0.00    +0.000 C 
ATOM      9  N   UNL     1      44.361   4.454  12.147  0.00  0.00    +0.000 N 
ATOM     10  C   UNL     1      43.927   4.489  10.806  0.00  0.00    +0.000 C 
ATOM     11  O   UNL     1      42.875   5.044  10.478  0.00  0.00    +0.000 OA
BRANCH  10  12
ATOM     12  C   UNL     1      44.748   3.884   9.710  0.00  0.00    +0.000 A 
ATOM     13  C   UNL     1      45.472   4.724   8.877  0.00  0.00    +0.000 A 
ATOM     14  N   UNL     1      46.264   4.258   7.875  0.00  0.00    +0.000 NA
ATOM     15  C   UNL     1      46.277   2.914   7.725  0.00  0.00    +0.000 A 
ATOM     16  C   UNL     1      45.534   2.073   8.534  0.00  0.00    +0.000 A 
ATOM     17  N   UNL     1      44.759   2.534   9.541  0.00  0.00    +0.000 NA
ENDBRANCH  10  12
ENDBRANCH   7   9
ENDBRANCH   1   7
BRANCH   5  18
ATOM     18  C   UNL     1      48.415   7.749  13.664  0.00  0.00    +0.000 C 
BRANCH  18  19
ATOM     19  N   UNL     1      47.377   8.665  13.253  0.00  0.00    +0.000 N 
ATOM     20  C   UNL     1      47.525   9.521  12.195  0.00  0.00    +0.000 C 
ATOM     21  O   UNL     1      48.551   9.552  11.520  0.00  0.00    +0.000 OA
ATOM     22  H   UNL     1      46.643   8.828  13.935  0.00  0.00    +0.000 HD
BRANCH  20  23
ATOM     23  C   UNL     1      46.363  10.354  11.859  0.00  0.00    +0.000 A 
ATOM     24  C   UNL     1      46.468  11.737  11.928  0.00  0.00    +0.000 A 
ATOM     25  S   UNL     1      45.047  12.557  11.467  0.00  0.00    +0.000 S 
ATOM     26  C   UNL     1      44.222  11.091  11.206  0.00  0.00    +0.000 A 
ATOM     27  N   UNL     1      42.917  11.085  10.819  0.00  0.00    +0.000 NA
ATOM     28  C   UNL     1      42.407   9.906  10.689  0.00  0.00    +0.000 A 
ATOM     29  N   UNL     1      43.087   8.736  10.900  0.00  0.00    +0.000 N 
ATOM     30  C   UNL     1      44.415   8.691  11.241  0.00  0.00    +0.000 A 
ATOM     31  O   UNL     1      45.019   7.624  11.328  0.00  0.00    +0.000 OA
ATOM     32  C   UNL     1      45.031   9.994  11.440  0.00  0.00    +0.000 A 
ATOM     33  H   UNL     1      42.634   7.841  10.752  0.00  0.00    +0.000 HD
ENDBRANCH  20  23
ENDBRANCH  18  19
ENDBRANCH   5  18
TORSDOF 6
ENDMDL
MODEL 2
REMARK VINA RESULT:    -7.480      4.088      7.205
REMARK INTER + INTRA:         -11.716
REMARK INTER:                 -10.651
REMARK INTRA:                  -1.066
REMARK UNBOUND:                -1.613
REMARK  Name = 
REMARK  7 active torsions:
REMARK  status: ('A' for Active; 'I' for Inactive)
REMARK    1  A    between atoms: C_1  and  N_2
REMARK    2  A    between atoms: N_2  and  C_3
REMARK    3  A    between atoms: C_3  and  C_4
REMARK    4  A    between atoms: C_8  and  C_9
REMARK    5  A    between atoms: C_9  and  N_10
REMARK    6  A    between atoms: C_11  and  C_13
REMARK    7  A    between atoms: C_24  and  C_26
REMARK                            x       y       z     vdW  Elec       q    Type
REMARK                         _______ _______ _______ _____ _____    ______ ____
ROOT
ATOM      1  C   UNL     1      48.842   5.574  18.590  0.00  0.00    +0.000 A 
ATOM      2  C   UNL     1      48.583   6.420  19.669  0.00  0.00    +0.000 A 
ATOM      3  C   UNL     1      48.439   7.775  19.422  0.00  0.00    +0.000 A 
ATOM      4  N   UNL     1      48.532   8.331  18.195  0.00  0.00    +0.000 NA
ATOM      5  C   UNL     1      48.790   7.502  17.152  0.00  0.00    +0.000 A 
ATOM      6  C   UNL     1      48.965   6.133  17.314  0.00  0.00    +0.000 A 
ENDROOT
BRANCH   1   7
ATOM      7  C   UNL     1      48.965   4.085  18.768  0.00  0.00    +0.000 C 
BRANCH   7   9
ATOM      8  C   UNL     1      47.232   3.012  17.252  0.00  0.00    +0.000 C 
ATOM      9  N   UNL     1      48.623   3.229  17.630  0.00  0.00    +0.000 N 
ATOM     10  C   UNL     1      49.572   2.384  17.018  0.00  0.00    +0.000 C 
ATOM     11  O   UNL     1      49.269   1.634  16.086  0.00  0.00    +0.000 OA
BRANCH  10  12
ATOM     12  C   UNL     1      51.005   2.388  17.450  0.00  0.00    +0.000 A 
ATOM     13  C   UNL     1      51.604   1.183  17.788  0.00  0.00    +0.000 A 
ATOM     14  N   UNL     1      52.908   1.092  18.164  0.00  0.00    +0.000 NA
ATOM     15  C   UNL     1      53.578   2.266  18.215  0.00  0.00    +0.000 A 
ATOM     16  C   UNL     1      52.978   3.474  17.908  0.00  0.00    +0.000 A 
ATOM     17  N   UNL     1      51.687   3.563  17.518  0.00  0.00    +0.000 NA
ENDBRANCH  10  12
ENDBRANCH   7   9
ENDBRANCH   1   7
BRANCH   5  18
ATOM     18  C   UNL     1      48.919   8.121  15.782  0.00  0.00    +0.000 C 
BRANCH  18  19
ATOM     19  N   UNL     1      47.842   7.718  14.907  0.00  0.00    +0.000 N 
ATOM     20  C   UNL     1      48.044   6.942  13.798  0.00  0.00    +0.000 C 
ATOM     21  O   UNL     1      49.158   6.529  13.486  0.00  0.00    +0.000 OA
ATOM     22  H   UNL     1      46.980   8.246  15.004  0.00  0.00    +0.000 HD
BRANCH  20  23
ATOM     23  C   UNL     1      46.846   6.566  13.035  0.00  0.00    +0.000 A 
ATOM     24  C   UNL     1      46.104   7.549  12.395  0.00  0.00    +0.000 A 
ATOM     25  S   UNL     1      44.773   6.943  11.521  0.00  0.00    +0.000 S 
ATOM     26  C   UNL     1      45.111   5.347  12.007  0.00  0.00    +0.000 A 
ATOM     27  N   UNL     1      44.310   4.317  11.622  0.00  0.00    +0.000 NA
ATOM     28  C   UNL     1      44.664   3.165  12.089  0.00  0.00    +0.000 A 
ATOM     29  N   UNL     1      45.751   2.953  12.895  0.00  0.00    +0.000 N 
ATOM     30  C   UNL     1      46.615   3.951  13.268  0.00  0.00    +0.000 A 
ATOM     31  O   UNL     1      47.633   3.710  13.912  0.00  0.00    +0.000 OA
ATOM     32  C   UNL     1      46.241   5.278  12.802  0.00  0.00    +0.000 A 
ATOM     33  H   UNL     1      45.989   2.017  13.205  0.00  0.00    +0.000 HD
ENDBRANCH  20  23
ENDBRANCH  18  19
ENDBRANCH   5  18
TORSDOF 6
ENDMDL
MODEL 3
REMARK VINA RESULT:    -7.462      3.002      5.758
REMARK INTER + INTRA:         -11.693
REMARK INTER:                 -10.891
REMARK INTRA:                  -0.802
REMARK UNBOUND:                -1.613
REMARK  Name = 
REMARK  7 active torsions:
REMARK  status: ('A' for Active; 'I' for Inactive)
REMARK    1  A    between atoms: C_1  and  N_2
REMARK    2  A    between atoms: N_2  and  C_3
REMARK    3  A    between atoms: C_3  and  C_4
REMARK    4  A    between atoms: C_8  and  C_9
REMARK    5  A    between atoms: C_9  and  N_10
REMARK    6  A    between atoms: C_11  and  C_13
REMARK    7  A    between atoms: C_24  and  C_26
REMARK                            x       y       z     vdW  Elec       q    Type
REMARK                         _______ _______ _______ _____ _____    ______ ____
ROOT
ATOM      1  C   UNL     1      45.837   6.702  11.871  0.00  0.00    +0.000 A 
ATOM      2  C   UNL     1      44.927   7.646  11.394  0.00  0.00    +0.000 A 
ATOM      3  C   UNL     1      45.030   8.948  11.852  0.00  0.00    +0.000 A 
ATOM      4  N   UNL     1      45.963   9.365  12.735  0.00  0.00    +0.000 NA
ATOM      5  C   UNL     1      46.841   8.438  13.199  0.00  0.00    +0.000 A 
ATOM      6  C   UNL     1      46.797   7.107  12.804  0.00  0.00    +0.000 A 
ENDROOT
BRANCH   1   7
ATOM      7  C   UNL     1      45.821   5.277  11.387  0.00  0.00    +0.000 C 
BRANCH   7   9
ATOM      8  C   UNL     1      43.885   4.570  12.872  0.00  0.00    +0.000 C 
ATOM      9  N   UNL     1      44.603   4.493  11.606  0.00  0.00    +0.000 N 
ATOM     10  C   UNL     1      44.215   3.456  10.733  0.00  0.00    +0.000 C 
ATOM     11  O   UNL     1      43.210   2.772  10.944  0.00  0.00    +0.000 OA
BRANCH  10  12
ATOM     12  C   UNL     1      44.988   3.163   9.486  0.00  0.00    +0.000 A 
ATOM     13  C   UNL     1      45.160   4.177   8.553  0.00  0.00    +0.000 A 
ATOM     14  N   UNL     1      45.870   4.005   7.407  0.00  0.00    +0.000 NA
ATOM     15  C   UNL     1      46.378   2.765   7.220  0.00  0.00    +0.000 A 
ATOM     16  C   UNL     1      46.185   1.743   8.132  0.00  0.00    +0.000 A 
ATOM     17  N   UNL     1      45.492   1.917   9.280  0.00  0.00    +0.000 NA
ENDBRANCH  10  12
ENDBRANCH   7   9
ENDBRANCH   1   7
BRANCH   5  18
ATOM     18  C   UNL     1      47.870   8.893  14.204  0.00  0.00    +0.000 C 
BRANCH  18  19
ATOM     19  N   UNL     1      48.075   7.911  15.244  0.00  0.00    +0.000 N 
ATOM     20  C   UNL     1      49.232   7.190  15.359  0.00  0.00    +0.000 C 
ATOM     21  O   UNL     1      50.177   7.344  14.588  0.00  0.00    +0.000 OA
ATOM     22  H   UNL     1      47.235   7.598  15.721  0.00  0.00    +0.000 HD
BRANCH  20  23
ATOM     23  C   UNL     1      49.318   6.268  16.500  0.00  0.00    +0.000 A 
ATOM     24  C   UNL     1      50.262   6.494  17.493  0.00  0.00    +0.000 A 
ATOM     25  S   UNL     1      50.203   5.361  18.765  0.00  0.00    +0.000 S 
ATOM     26  C   UNL     1      48.946   4.497  18.010  0.00  0.00    +0.000 A 
ATOM     27  N   UNL     1      48.440   3.368  18.575  0.00  0.00    +0.000 NA
ATOM     28  C   UNL     1      47.513   2.796  17.880  0.00  0.00    +0.000 A 
ATOM     29  N   UNL     1      47.042   3.259  16.680  0.00  0.00    +0.000 N 
ATOM     30  C   UNL     1      47.485   4.419  16.097  0.00  0.00    +0.000 A 
ATOM     31  O   UNL     1      46.973   4.857  15.069  0.00  0.00    +0.000 OA
ATOM     32  C   UNL     1      48.559   5.085  16.819  0.00  0.00    +0.000 A 
ATOM     33  H   UNL     1      46.291   2.777  16.198  0.00  0.00    +0.000 HD
ENDBRANCH  20  23
ENDBRANCH  18  19
ENDBRANCH   5  18
TORSDOF 6
ENDMDL
MODEL 4
REMARK VINA RESULT:    -7.436      4.330      7.491
REMARK INTER + INTRA:         -11.657
REMARK INTER:                 -11.730
REMARK INTRA:                   0.073
REMARK UNBOUND:                -1.613
REMARK  Name = 
REMARK  7 active torsions:
REMARK  status: ('A' for Active; 'I' for Inactive)
REMARK    1  A    between atoms: C_1  and  N_2
REMARK    2  A    between atoms: N_2  and  C_3
REMARK    3  A    between atoms: C_3  and  C_4
REMARK    4  A    between atoms: C_8  and  C_9
REMARK    5  A    between atoms: C_9  and  N_10
REMARK    6  A    between atoms: C_11  and  C_13
REMARK    7  A    between atoms: C_24  and  C_26
REMARK                            x       y       z     vdW  Elec       q    Type
REMARK                         _______ _______ _______ _____ _____    ______ ____
ROOT
ATOM      1  C   UNL     1      46.181   5.902  12.239  0.00  0.00    +0.000 A 
ATOM      2  C   UNL     1      47.279   6.737  12.029  0.00  0.00    +0.000 A 
ATOM      3  C   UNL     1      48.286   6.750  12.978  0.00  0.00    +0.000 A 
ATOM      4  N   UNL     1      48.275   5.998  14.100  0.00  0.00    +0.000 NA
ATOM      5  C   UNL     1      47.201   5.193  14.300  0.00  0.00    +0.000 A 
ATOM      6  C   UNL     1      46.138   5.132  13.407  0.00  0.00    +0.000 A 
ENDROOT
BRANCH   1   7
ATOM      7  C   UNL     1      45.067   5.796  11.234  0.00  0.00    +0.000 C 
BRANCH   7   9
ATOM      8  C   UNL     1      43.179   4.993  12.733  0.00  0.00    +0.000 C 
ATOM      9  N   UNL     1      43.975   4.862  11.519  0.00  0.00    +0.000 N 
ATOM     10  C   UNL     1      43.806   3.665  10.791  0.00  0.00    +0.000 C 
ATOM     11  O   UNL     1      42.908   2.862  11.061  0.00  0.00    +0.000 OA
BRANCH  10  12
ATOM     12  C   UNL     1      44.687   3.335   9.629  0.00  0.00    +0.000 A 
ATOM     13  C   UNL     1      45.026   4.344   8.739  0.00  0.00    +0.000 A 
ATOM     14  N   UNL     1      45.843   4.137   7.672  0.00  0.00    +0.000 NA
ATOM     15  C   UNL     1      46.284   2.868   7.518  0.00  0.00    +0.000 A 
ATOM     16  C   UNL     1      45.927   1.851   8.385  0.00  0.00    +0.000 A 
ATOM     17  N   UNL     1      45.128   2.059   9.456  0.00  0.00    +0.000 NA
ENDBRANCH  10  12
ENDBRANCH   7   9
ENDBRANCH   1   7
BRANCH   5  18
ATOM     18  C   UNL     1      47.171   4.368  15.564  0.00  0.00    +0.000 C 
BRANCH  18  19
ATOM     19  N   UNL     1      48.490   4.206  16.130  0.00  0.00    +0.000 N 
ATOM     20  C   UNL     1      48.781   4.534  17.427  0.00  0.00    +0.000 C 
ATOM     21  O   UNL     1      47.929   4.976  18.195  0.00  0.00    +0.000 OA
ATOM     22  H   UNL     1      49.242   4.086  15.459  0.00  0.00    +0.000 HD
BRANCH  20  23
ATOM     23  C   UNL     1      50.151   4.261  17.879  0.00  0.00    +0.000 A 
ATOM     24  C   UNL     1      50.856   5.243  18.561  0.00  0.00    +0.000 A 
ATOM     25  S   UNL     1      52.413   4.754  19.053  0.00  0.00    +0.000 S 
ATOM     26  C   UNL     1      52.221   3.227  18.327  0.00  0.00    +0.000 A 
ATOM     27  N   UNL     1      53.227   2.311  18.356  0.00  0.00    +0.000 NA
ATOM     28  C   UNL     1      52.958   1.207  17.740  0.00  0.00    +0.000 A 
ATOM     29  N   UNL     1      51.772   0.937  17.110  0.00  0.00    +0.000 N 
ATOM     30  C   UNL     1      50.713   1.808  17.098  0.00  0.00    +0.000 A 
ATOM     31  O   UNL     1      49.631   1.495  16.607  0.00  0.00    +0.000 OA
ATOM     32  C   UNL     1      50.975   3.085  17.744  0.00  0.00    +0.000 A 
ATOM     33  H   UNL     1      51.615   0.037  16.668  0.00  0.00    +0.000 HD
ENDBRANCH  20  23
ENDBRANCH  18  19
ENDBRANCH   5  18
TORSDOF 6
ENDMDL
MODEL 5
REMARK VINA RESULT:    -7.208      3.985      7.013
REMARK INTER + INTRA:         -11.349
REMARK INTER:                 -11.238
REMARK INTRA:                  -0.111
REMARK UNBOUND:                -1.613
REMARK  Name = 
REMARK  7 active torsions:
REMARK  status: ('A' for Active; 'I' for Inactive)
REMARK    1  A    between atoms: C_1  and  N_2
REMARK    2  A    between atoms: N_2  and  C_3
REMARK    3  A    between atoms: C_3  and  C_4
REMARK    4  A    between atoms: C_8  and  C_9
REMARK    5  A    between atoms: C_9  and  N_10
REMARK    6  A    between atoms: C_11  and  C_13
REMARK    7  A    between atoms: C_24  and  C_26
REMARK                            x       y       z     vdW  Elec       q    Type
REMARK                         _______ _______ _______ _____ _____    ______ ____
ROOT
ATOM      1  C   UNL     1      46.047   5.973  11.969  0.00  0.00    +0.000 A 
ATOM      2  C   UNL     1      47.031   6.952  11.822  0.00  0.00    +0.000 A 
ATOM      3  C   UNL     1      48.126   6.917  12.667  0.00  0.00    +0.000 A 
ATOM      4  N   UNL     1      48.305   5.987  13.630  0.00  0.00    +0.000 NA
ATOM      5  C   UNL     1      47.340   5.042  13.771  0.00  0.00    +0.000 A 
ATOM      6  C   UNL     1      46.201   5.015  12.977  0.00  0.00    +0.000 A 
ENDROOT
BRANCH   1   7
ATOM      7  C   UNL     1      44.850   5.915  11.061  0.00  0.00    +0.000 C 
BRANCH   7   9
ATOM      8  C   UNL     1      42.959   5.119  12.559  0.00  0.00    +0.000 C 
ATOM      9  N   UNL     1      43.796   4.949  11.378  0.00  0.00    +0.000 N 
ATOM     10  C   UNL     1      43.707   3.700  10.728  0.00  0.00    +0.000 C 
ATOM     11  O   UNL     1      42.842   2.872  11.028  0.00  0.00    +0.000 OA
BRANCH  10  12
ATOM     12  C   UNL     1      44.638   3.338   9.615  0.00  0.00    +0.000 A 
ATOM     13  C   UNL     1      45.006   4.319   8.706  0.00  0.00    +0.000 A 
ATOM     14  N   UNL     1      45.868   4.083   7.681  0.00  0.00    +0.000 NA
ATOM     15  C   UNL     1      46.325   2.813   7.589  0.00  0.00    +0.000 A 
ATOM     16  C   UNL     1      45.939   1.824   8.475  0.00  0.00    +0.000 A 
ATOM     17  N   UNL     1      45.095   2.061   9.504  0.00  0.00    +0.000 NA
ENDBRANCH  10  12
ENDBRANCH   7   9
ENDBRANCH   1   7
BRANCH   5  18
ATOM     18  C   UNL     1      47.523   4.014  14.862  0.00  0.00    +0.000 C 
BRANCH  18  19
ATOM     19  N   UNL     1      47.893   4.624  16.118  0.00  0.00    +0.000 N 
ATOM     20  C   UNL     1      47.343   4.245  17.312  0.00  0.00    +0.000 C 
ATOM     21  O   UNL     1      46.506   3.350  17.390  0.00  0.00    +0.000 OA
ATOM     22  H   UNL     1      48.381   5.512  16.045  0.00  0.00    +0.000 HD
BRANCH  20  23
ATOM     23  C   UNL     1      47.859   4.916  18.513  0.00  0.00    +0.000 A 
ATOM     24  C   UNL     1      47.038   5.785  19.219  0.00  0.00    +0.000 A 
ATOM     25  S   UNL     1      47.772   6.447  20.608  0.00  0.00    +0.000 S 
ATOM     26  C   UNL     1      49.233   5.634  20.288  0.00  0.00    +0.000 A 
ATOM     27  N   UNL     1      50.313   5.798  21.099  0.00  0.00    +0.000 NA
ATOM     28  C   UNL     1      51.364   5.149  20.722  0.00  0.00    +0.000 A 
ATOM     29  N   UNL     1      51.427   4.344  19.615  0.00  0.00    +0.000 N 
ATOM     30  C   UNL     1      50.351   4.109  18.797  0.00  0.00    +0.000 A 
ATOM     31  O   UNL     1      50.415   3.306  17.869  0.00  0.00    +0.000 OA
ATOM     32  C   UNL     1      49.149   4.847  19.153  0.00  0.00    +0.000 A 
ATOM     33  H   UNL     1      52.277   3.839  19.390  0.00  0.00    +0.000 HD
ENDBRANCH  20  23
ENDBRANCH  18  19
ENDBRANCH   5  18
TORSDOF 6
ENDMDL
MODEL 6
REMARK VINA RESULT:    -7.002      4.816      7.906
REMARK INTER + INTRA:         -11.071
REMARK INTER:                 -10.097
REMARK INTRA:                  -0.974
REMARK UNBOUND:                -1.613
REMARK  Name = 
REMARK  7 active torsions:
REMARK  status: ('A' for Active; 'I' for Inactive)
REMARK    1  A    between atoms: C_1  and  N_2
REMARK    2  A    between atoms: N_2  and  C_3
REMARK    3  A    between atoms: C_3  and  C_4
REMARK    4  A    between atoms: C_8  and  C_9
REMARK    5  A    between atoms: C_9  and  N_10
REMARK    6  A    between atoms: C_11  and  C_13
REMARK    7  A    between atoms: C_24  and  C_26
REMARK                            x       y       z     vdW  Elec       q    Type
REMARK                         _______ _______ _______ _____ _____    ______ ____
ROOT
ATOM      1  C   UNL     1      47.192   5.782  13.299  0.00  0.00    +0.000 A 
ATOM      2  C   UNL     1      46.642   4.591  13.773  0.00  0.00    +0.000 A 
ATOM      3  C   UNL     1      47.002   4.157  15.037  0.00  0.00    +0.000 A 
ATOM      4  N   UNL     1      47.856   4.820  15.847  0.00  0.00    +0.000 NA
ATOM      5  C   UNL     1      48.392   5.975  15.376  0.00  0.00    +0.000 A 
ATOM      6  C   UNL     1      48.098   6.473  14.112  0.00  0.00    +0.000 A 
ENDROOT
BRANCH   1   7
ATOM      7  C   UNL     1      46.817   6.345  11.956  0.00  0.00    +0.000 C 
BRANCH   7   9
ATOM      8  C   UNL     1      45.352   8.335  12.546  0.00  0.00    +0.000 C 
ATOM      9  N   UNL     1      45.549   7.071  11.847  0.00  0.00    +0.000 N 
ATOM     10  C   UNL     1      44.394   6.480  11.295  0.00  0.00    +0.000 C 
ATOM     11  O   UNL     1      43.318   7.081  11.243  0.00  0.00    +0.000 OA
BRANCH  10  12
ATOM     12  C   UNL     1      44.433   5.104  10.708  0.00  0.00    +0.000 A 
ATOM     13  C   UNL     1      43.706   4.094  11.323  0.00  0.00    +0.000 A 
ATOM     14  N   UNL     1      43.665   2.823  10.842  0.00  0.00    +0.000 NA
ATOM     15  C   UNL     1      44.406   2.600   9.733  0.00  0.00    +0.000 A 
ATOM     16  C   UNL     1      45.155   3.595   9.132  0.00  0.00    +0.000 A 
ATOM     17  N   UNL     1      45.185   4.863   9.600  0.00  0.00    +0.000 NA
ENDBRANCH  10  12
ENDBRANCH   7   9
ENDBRANCH   1   7
BRANCH   5  18
ATOM     18  C   UNL     1      49.365   6.708  16.266  0.00  0.00    +0.000 C 
BRANCH  18  19
ATOM     19  N   UNL     1      50.404   5.834  16.759  0.00  0.00    +0.000 N 
ATOM     20  C   UNL     1      50.542   5.528  18.086  0.00  0.00    +0.000 C 
ATOM     21  O   UNL     1      49.777   5.970  18.940  0.00  0.00    +0.000 OA
ATOM     22  H   UNL     1      51.176   5.669  16.120  0.00  0.00    +0.000 HD
BRANCH  20  23
ATOM     23  C   UNL     1      51.610   4.581  18.432  0.00  0.00    +0.000 A 
ATOM     24  C   UNL     1      52.679   5.008  19.208  0.00  0.00    +0.000 A 
ATOM     25  S   UNL     1      53.809   3.779  19.555  0.00  0.00    +0.000 S 
ATOM     26  C   UNL     1      52.936   2.643  18.637  0.00  0.00    +0.000 A 
ATOM     27  N   UNL     1      53.389   1.368  18.492  0.00  0.00    +0.000 NA
ATOM     28  C   UNL     1      52.646   0.621  17.744  0.00  0.00    +0.000 A 
ATOM     29  N   UNL     1      51.488   1.034  17.140  0.00  0.00    +0.000 N 
ATOM     30  C   UNL     1      50.966   2.292  17.297  0.00  0.00    +0.000 A 
ATOM     31  O   UNL     1      49.876   2.598  16.819  0.00  0.00    +0.000 OA
ATOM     32  C   UNL     1      51.784   3.189  18.099  0.00  0.00    +0.000 A 
ATOM     33  H   UNL     1      50.935   0.387  16.587  0.00  0.00    +0.000 HD
ENDBRANCH  20  23
ENDBRANCH  18  19
ENDBRANCH   5  18
TORSDOF 6
ENDMDL
MODEL 7
REMARK VINA RESULT:    -6.936      3.745      5.875
REMARK INTER + INTRA:         -10.981
REMARK INTER:                 -10.845
REMARK INTRA:                  -0.136
REMARK UNBOUND:                -1.613
REMARK  Name = 
REMARK  7 active torsions:
REMARK  status: ('A' for Active; 'I' for Inactive)
REMARK    1  A    between atoms: C_1  and  N_2
REMARK    2  A    between atoms: N_2  and  C_3
REMARK    3  A    between atoms: C_3  and  C_4
REMARK    4  A    between atoms: C_8  and  C_9
REMARK    5  A    between atoms: C_9  and  N_10
REMARK    6  A    between atoms: C_11  and  C_13
REMARK    7  A    between atoms: C_24  and  C_26
REMARK                            x       y       z     vdW  Elec       q    Type
REMARK                         _______ _______ _______ _____ _____    ______ ____
ROOT
ATOM      1  C   UNL     1      45.966   6.004  12.090  0.00  0.00    +0.000 A 
ATOM      2  C   UNL     1      47.033   6.849  11.783  0.00  0.00    +0.000 A 
ATOM      3  C   UNL     1      48.156   6.810  12.592  0.00  0.00    +0.000 A 
ATOM      4  N   UNL     1      48.285   5.999  13.665  0.00  0.00    +0.000 NA
ATOM      5  C   UNL     1      47.239   5.185  13.960  0.00  0.00    +0.000 A 
ATOM      6  C   UNL     1      46.069   5.173  13.211  0.00  0.00    +0.000 A 
ENDROOT
BRANCH   1   7
ATOM      7  C   UNL     1      44.730   5.952  11.235  0.00  0.00    +0.000 C 
BRANCH   7   9
ATOM      8  C   UNL     1      42.912   5.030  12.751  0.00  0.00    +0.000 C 
ATOM      9  N   UNL     1      43.724   4.933  11.545  0.00  0.00    +0.000 N 
ATOM     10  C   UNL     1      43.670   3.703  10.856  0.00  0.00    +0.000 C 
ATOM     11  O   UNL     1      42.847   2.831  11.148  0.00  0.00    +0.000 OA
BRANCH  10  12
ATOM     12  C   UNL     1      44.586   3.417   9.708  0.00  0.00    +0.000 A 
ATOM     13  C   UNL     1      44.914   4.449   8.842  0.00  0.00    +0.000 A 
ATOM     14  N   UNL     1      45.761   4.283   7.790  0.00  0.00    +0.000 NA
ATOM     15  C   UNL     1      46.242   3.030   7.627  0.00  0.00    +0.000 A 
ATOM     16  C   UNL     1      45.895   1.990   8.470  0.00  0.00    +0.000 A 
ATOM     17  N   UNL     1      45.067   2.157   9.526  0.00  0.00    +0.000 NA
ENDBRANCH  10  12
ENDBRANCH   7   9
ENDBRANCH   1   7
BRANCH   5  18
ATOM     18  C   UNL     1      47.368   4.295  15.172  0.00  0.00    +0.000 C 
BRANCH  18  19
ATOM     19  N   UNL     1      47.364   5.055  16.400  0.00  0.00    +0.000 N 
ATOM     20  C   UNL     1      48.433   5.081  17.254  0.00  0.00    +0.000 C 
ATOM     21  O   UNL     1      49.471   4.466  17.019  0.00  0.00    +0.000 OA
ATOM     22  H   UNL     1      46.450   5.355  16.726  0.00  0.00    +0.000 HD
BRANCH  20  23
ATOM     23  C   UNL     1      48.306   5.944  18.436  0.00  0.00    +0.000 A 
ATOM     24  C   UNL     1      48.223   5.370  19.698  0.00  0.00    +0.000 A 
ATOM     25  S   UNL     1      48.122   6.507  20.964  0.00  0.00    +0.000 S 
ATOM     26  C   UNL     1      48.135   7.809  19.867  0.00  0.00    +0.000 A 
ATOM     27  N   UNL     1      48.040   9.092  20.309  0.00  0.00    +0.000 NA
ATOM     28  C   UNL     1      48.030   9.979  19.369  0.00  0.00    +0.000 A 
ATOM     29  N   UNL     1      48.118   9.695  18.031  0.00  0.00    +0.000 N 
ATOM     30  C   UNL     1      48.267   8.422  17.542  0.00  0.00    +0.000 A 
ATOM     31  O   UNL     1      48.441   8.212  16.344  0.00  0.00    +0.000 OA
ATOM     32  C   UNL     1      48.245   7.380  18.557  0.00  0.00    +0.000 A 
ATOM     33  H   UNL     1      48.133  10.442  17.345  0.00  0.00    +0.000 HD
ENDBRANCH  20  23
ENDBRANCH  18  19
ENDBRANCH   5  18
TORSDOF 6
ENDMDL
MODEL 8
REMARK VINA RESULT:    -6.776      3.008      6.743
REMARK INTER + INTRA:         -10.766
REMARK INTER:                  -9.523
REMARK INTRA:                  -1.243
REMARK UNBOUND:                -1.613
REMARK  Name = 
REMARK  7 active torsions:
REMARK  status: ('A' for Active; 'I' for Inactive)
REMARK    1  A    between atoms: C_1  and  N_2
REMARK    2  A    between atoms: N_2  and  C_3
REMARK    3  A    between atoms: C_3  and  C_4
REMARK    4  A    between atoms: C_8  and  C_9
REMARK    5  A    between atoms: C_9  and  N_10
REMARK    6  A    between atoms: C_11  and  C_13
REMARK    7  A    between atoms: C_24  and  C_26
REMARK                            x       y       z     vdW  Elec       q    Type
REMARK                         _______ _______ _______ _____ _____    ______ ____
ROOT
ATOM      1  C   UNL     1      50.052   7.622  14.622  0.00  0.00    +0.000 A 
ATOM      2  C   UNL     1      51.157   8.191  13.988  0.00  0.00    +0.000 A 
ATOM      3  C   UNL     1      50.963   8.828  12.774  0.00  0.00    +0.000 A 
ATOM      4  N   UNL     1      49.764   8.936  12.163  0.00  0.00    +0.000 NA
ATOM      5  C   UNL     1      48.695   8.374  12.783  0.00  0.00    +0.000 A 
ATOM      6  C   UNL     1      48.804   7.702  13.994  0.00  0.00    +0.000 A 
ENDROOT
BRANCH   1   7
ATOM      7  C   UNL     1      50.171   6.953  15.964  0.00  0.00    +0.000 C 
BRANCH   7   9
ATOM      8  C   UNL     1      49.180   8.644  17.581  0.00  0.00    +0.000 C 
ATOM      9  N   UNL     1      49.193   7.309  16.995  0.00  0.00    +0.000 N 
ATOM     10  C   UNL     1      48.408   6.336  17.648  0.00  0.00    +0.000 C 
ATOM     11  O   UNL     1      47.615   6.636  18.545  0.00  0.00    +0.000 OA
BRANCH  10  12
ATOM     12  C   UNL     1      48.474   4.895  17.253  0.00  0.00    +0.000 A 
ATOM     13  C   UNL     1      47.654   4.445  16.228  0.00  0.00    +0.000 A 
ATOM     14  N   UNL     1      47.670   3.159  15.787  0.00  0.00    +0.000 NA
ATOM     15  C   UNL     1      48.522   2.334  16.437  0.00  0.00    +0.000 A 
ATOM     16  C   UNL     1      49.321   2.770  17.479  0.00  0.00    +0.000 A 
ATOM     17  N   UNL     1      49.319   4.052  17.908  0.00  0.00    +0.000 NA
ENDBRANCH  10  12
ENDBRANCH   7   9
ENDBRANCH   1   7
BRANCH   5  18
ATOM     18  C   UNL     1      47.356   8.470  12.093  0.00  0.00    +0.000 C 
BRANCH  18  19
ATOM     19  N   UNL     1      46.664   7.202  12.085  0.00  0.00    +0.000 N 
ATOM     20  C   UNL     1      45.367   7.073  11.668  0.00  0.00    +0.000 C 
ATOM     21  O   UNL     1      44.714   8.031  11.261  0.00  0.00    +0.000 OA
ATOM     22  H   UNL     1      47.091   6.468  12.641  0.00  0.00    +0.000 HD
BRANCH  20  23
ATOM     23  C   UNL     1      44.813   5.712  11.663  0.00  0.00    +0.000 A 
ATOM     24  C   UNL     1      44.139   5.242  12.782  0.00  0.00    +0.000 A 
ATOM     25  S   UNL     1      43.523   3.664  12.599  0.00  0.00    +0.000 S 
ATOM     26  C   UNL     1      44.179   3.532  11.034  0.00  0.00    +0.000 A 
ATOM     27  N   UNL     1      44.037   2.386  10.314  0.00  0.00    +0.000 NA
ATOM     28  C   UNL     1      44.611   2.411   9.156  0.00  0.00    +0.000 A 
ATOM     29  N   UNL     1      45.301   3.482   8.653  0.00  0.00    +0.000 N 
ATOM     30  C   UNL     1      45.427   4.674   9.320  0.00  0.00    +0.000 A 
ATOM     31  O   UNL     1      45.970   5.646   8.800  0.00  0.00    +0.000 OA
ATOM     32  C   UNL     1      44.833   4.688  10.648  0.00  0.00    +0.000 A 
ATOM     33  H   UNL     1      45.705   3.447   7.723  0.00  0.00    +0.000 HD
ENDBRANCH  20  23
ENDBRANCH  18  19
ENDBRANCH   5  18
TORSDOF 6
ENDMDL
MODEL 9
REMARK VINA RESULT:    -6.765      3.793      7.485
REMARK INTER + INTRA:         -10.750
REMARK INTER:                  -9.373
REMARK INTRA:                  -1.377
REMARK UNBOUND:                -1.613
REMARK  Name = 
REMARK  7 active torsions:
REMARK  status: ('A' for Active; 'I' for Inactive)
REMARK    1  A    between atoms: C_1  and  N_2
REMARK    2  A    between atoms: N_2  and  C_3
REMARK    3  A    between atoms: C_3  and  C_4
REMARK    4  A    between atoms: C_8  and  C_9
REMARK    5  A    between atoms: C_9  and  N_10
REMARK    6  A    between atoms: C_11  and  C_13
REMARK    7  A    between atoms: C_24  and  C_26
REMARK                            x       y       z     vdW  Elec       q    Type
REMARK                         _______ _______ _______ _____ _____    ______ ____
ROOT
ATOM      1  C   UNL     1      50.636   4.999  17.733  0.00  0.00    +0.000 A 
ATOM      2  C   UNL     1      51.439   3.858  17.703  0.00  0.00    +0.000 A 
ATOM      3  C   UNL     1      50.855   2.651  17.363  0.00  0.00    +0.000 A 
ATOM      4  N   UNL     1      49.548   2.506  17.054  0.00  0.00    +0.000 NA
ATOM      5  C   UNL     1      48.772   3.619  17.092  0.00  0.00    +0.000 A 
ATOM      6  C   UNL     1      49.274   4.867  17.440  0.00  0.00    +0.000 A 
ENDROOT
BRANCH   1   7
ATOM      7  C   UNL     1      51.204   6.356  18.047  0.00  0.00    +0.000 C 
BRANCH   7   9
ATOM      8  C   UNL     1      50.652   6.481  20.524  0.00  0.00    +0.000 C 
ATOM      9  N   UNL     1      50.652   7.080  19.195  0.00  0.00    +0.000 N 
ATOM     10  C   UNL     1      49.876   8.247  19.040  0.00  0.00    +0.000 C 
ATOM     11  O   UNL     1      49.379   8.830  20.007  0.00  0.00    +0.000 OA
BRANCH  10  12
ATOM     12  C   UNL     1      49.653   8.855  17.691  0.00  0.00    +0.000 A 
ATOM     13  C   UNL     1      48.508   8.515  16.985  0.00  0.00    +0.000 A 
ATOM     14  N   UNL     1      48.214   9.040  15.766  0.00  0.00    +0.000 NA
ATOM     15  C   UNL     1      49.132   9.901  15.271  0.00  0.00    +0.000 A 
ATOM     16  C   UNL     1      50.289  10.222  15.956  0.00  0.00    +0.000 A 
ATOM     17  N   UNL     1      50.575   9.713  17.175  0.00  0.00    +0.000 NA
ENDBRANCH  10  12
ENDBRANCH   7   9
ENDBRANCH   1   7
BRANCH   5  18
ATOM     18  C   UNL     1      47.306   3.460  16.771  0.00  0.00    +0.000 C 
BRANCH  18  19
ATOM     19  N   UNL     1      46.858   4.435  15.803  0.00  0.00    +0.000 N 
ATOM     20  C   UNL     1      46.870   4.195  14.456  0.00  0.00    +0.000 C 
ATOM     21  O   UNL     1      47.251   3.125  13.987  0.00  0.00    +0.000 OA
ATOM     22  H   UNL     1      46.783   5.387  16.146  0.00  0.00    +0.000 HD
BRANCH  20  23
ATOM     23  C   UNL     1      46.332   5.259  13.597  0.00  0.00    +0.000 A 
ATOM     24  C   UNL     1      47.077   6.411  13.386  0.00  0.00    +0.000 A 
ATOM     25  S   UNL     1      46.332   7.526  12.334  0.00  0.00    +0.000 S 
ATOM     26  C   UNL     1      44.963   6.530  12.161  0.00  0.00    +0.000 A 
ATOM     27  N   UNL     1      43.908   6.923  11.397  0.00  0.00    +0.000 NA
ATOM     28  C   UNL     1      42.924   6.086  11.379  0.00  0.00    +0.000 A 
ATOM     29  N   UNL     1      42.907   4.891  12.047  0.00  0.00    +0.000 N 
ATOM     30  C   UNL     1      43.966   4.430  12.787  0.00  0.00    +0.000 A 
ATOM     31  O   UNL     1      43.955   3.310  13.294  0.00  0.00    +0.000 OA
ATOM     32  C   UNL     1      45.088   5.351  12.874  0.00  0.00    +0.000 A 
ATOM     33  H   UNL     1      42.112   4.266  11.969  0.00  0.00    +0.000 HD
ENDBRANCH  20  23
ENDBRANCH  18  19
ENDBRANCH   5  18
TORSDOF 6
ENDMDL
