MODEL 1
REMARK VINA RESULT:    -8.892      0.000      0.000
REMARK INTER + INTRA:         -14.996
REMARK INTER:                 -13.831
REMARK INTRA:                  -1.166
REMARK UNBOUND:                -1.166
REMARK  Name = 
REMARK  10 active torsions:
REMARK  status: ('A' for Active; 'I' for Inactive)
REMARK    1  A    between atoms: C_2  and  C_3
REMARK    2  A    between atoms: C_2  and  C_22
REMARK    3  A    between atoms: C_3  and  O_4
REMARK    4  A    between atoms: O_4  and  C_5
REMARK    5  A    between atoms: C_9  and  C_10
REMARK    6  A    between atoms: C_10  and  O_11
REMARK    7  A    between atoms: O_11  and  C_12
REMARK    8  A    between atoms: C_12  and  C_13
REMARK    9  A    between atoms: C_16  and  C_17
REMARK   10  A    between atoms: C_17  and  O_18
REMARK                            x       y       z     vdW  Elec       q    Type
REMARK                         _______ _______ _______ _____ _____    ______ ____
ROOT
ATOM      1  C   UNL     1      47.044   5.457  13.666  0.00  0.00    +0.000 A 
ATOM      2  C   UNL     1      47.747   6.325  12.840  0.00  0.00    +0.000 A 
ATOM      3  N   UNL     1      47.242   6.868  11.711  0.00  0.00    +0.000 NA
ATOM      4  C   UNL     1      45.969   6.536  11.399  0.00  0.00    +0.000 A 
ATOM      5  C   UNL     1      45.169   5.689  12.162  0.00  0.00    +0.000 A 
ATOM      6  C   UNL     1      45.731   5.144  13.323  0.00  0.00    +0.000 A 
ENDROOT
BRANCH   1   7
ATOM      7  O   UNL     1      47.684   5.019  14.786  0.00  0.00    +0.000 OA
BRANCH   7   8
ATOM      8  C   UNL     1      47.352   3.699  15.207  0.00  0.00    +0.000 C 
BRANCH   8  10
ATOM      9  O   UNL     1      46.492   3.147  17.388  0.00  0.00    +0.000 OA
ATOM     10  C   UNL     1      47.419   3.612  16.732  0.00  0.00    +0.000 C 
BRANCH  10  11
ATOM     11  C   UNL     1      48.617   4.145  17.395  0.00  0.00    +0.000 A 
ATOM     12  C   UNL     1      48.651   5.367  18.049  0.00  0.00    +0.000 A 
ATOM     13  S   UNL     1      50.157   5.692  18.787  0.00  0.00    +0.000 S 
ATOM     14  C   UNL     1      50.809   4.215  18.243  0.00  0.00    +0.000 A 
ATOM     15  N   UNL     1      52.092   3.866  18.527  0.00  0.00    +0.000 NA
ATOM     16  C   UNL     1      52.441   2.714  18.064  0.00  0.00    +0.000 A 
ATOM     17  N   UNL     1      51.630   1.882  17.342  0.00  0.00    +0.000 N 
ATOM     18  C   UNL     1      50.349   2.217  16.961  0.00  0.00    +0.000 A 
ATOM     19  O   UNL     1      49.730   1.508  16.184  0.00  0.00    +0.000 OA
ATOM     20  C   UNL     1      49.893   3.485  17.509  0.00  0.00    +0.000 A 
ATOM     21  H   UNL     1      51.970   1.008  16.967  0.00  0.00    +0.000 HD
ENDBRANCH  10  11
ENDBRANCH   8  10
ENDBRANCH   7   8
ENDBRANCH   1   7
BRANCH   5  22
ATOM     22  C   UNL     1      43.749   5.427  11.751  0.00  0.00    +0.000 C 
BRANCH  22  23
ATOM     23  O   UNL     1      43.745   4.921  10.422  0.00  0.00    +0.000 OA
BRANCH  23  24
ATOM     24  C   UNL     1      43.918   3.506  10.380  0.00  0.00    +0.000 C 
BRANCH  24  25
ATOM     25  C   UNL     1      44.885   3.182   9.271  0.00  0.00    +0.000 A 
ATOM     26  C   UNL     1      45.339   1.869   9.091  0.00  0.00    +0.000 A 
ATOM     27  C   UNL     1      46.216   1.549   8.049  0.00  0.00    +0.000 A 
ATOM     28  C   UNL     1      46.663   2.542   7.168  0.00  0.00    +0.000 A 
ATOM     29  C   UNL     1      46.222   3.858   7.358  0.00  0.00    +0.000 A 
ATOM     30  C   UNL     1      45.339   4.176   8.395  0.00  0.00    +0.000 A 
BRANCH  28  31
ATOM     31  C   UNL     1      47.622   2.222   6.051  0.00  0.00    +0.000 C 
BRANCH  31  32
ATOM     32  O   UNL     1      48.939   2.650   6.374  0.00  0.00    +0.000 OA
ATOM     33  H   UNL     1      49.216   2.141   7.154  0.00  0.00    +0.000 HD
ENDBRANCH  31  32
ENDBRANCH  28  31
ENDBRANCH  24  25
ENDBRANCH  23  24
ENDBRANCH  22  23
ENDBRANCH   5  22
TORSDOF 10
ENDMDL
MODEL 2
REMARK VINA RESULT:    -7.816      3.859      6.249
REMARK INTER + INTRA:         -13.322
REMARK INTER:                 -11.804
REMARK INTRA:                  -1.518
REMARK UNBOUND:                -1.166
REMARK  Name = 
REMARK  10 active torsions:
REMARK  status: ('A' for Active; 'I' for Inactive)
REMARK    1  A    between atoms: C_2  and  C_3
REMARK    2  A    between atoms: C_2  and  C_22
REMARK    3  A    between atoms: C_3  and  O_4
REMARK    4  A    between atoms: O_4  and  C_5
REMARK    5  A    between atoms: C_9  and  C_10
REMARK    6  A    between atoms: C_10  and  O_11
REMARK    7  A    between atoms: O_11  and  C_12
REMARK    8  A    between atoms: C_12  and  C_13
REMARK    9  A    between atoms: C_16  and  C_17
REMARK   10  A    between atoms: C_17  and  O_18
REMARK                            x       y       z     vdW  Elec       q    Type
REMARK                         _______ _______ _______ _____ _____    ______ ____
ROOT
ATOM      1  C   UNL     1      46.483   5.507  13.632  0.00  0.00    +0.000 A 
ATOM      2  C   UNL     1      47.153   4.293  13.721  0.00  0.00    +0.000 A 
ATOM      3  N   UNL     1      46.614   3.105  13.368  0.00  0.00    +0.000 NA
ATOM      4  C   UNL     1      45.350   3.135  12.892  0.00  0.00    +0.000 A 
ATOM      5  C   UNL     1      44.593   4.294  12.745  0.00  0.00    +0.000 A 
ATOM      6  C   UNL     1      45.185   5.505  13.126  0.00  0.00    +0.000 A 
ENDROOT
BRANCH   1   7
ATOM      7  O   UNL     1      47.176   6.621  13.998  0.00  0.00    +0.000 OA
BRANCH   7   8
ATOM      8  C   UNL     1      48.372   6.869  13.265  0.00  0.00    +0.000 C 
BRANCH   8  10
ATOM      9  O   UNL     1      47.613   6.955  10.980  0.00  0.00    +0.000 OA
ATOM     10  C   UNL     1      48.033   7.576  11.951  0.00  0.00    +0.000 C 
BRANCH  10  11
ATOM     11  C   UNL     1      48.268   9.025  11.874  0.00  0.00    +0.000 A 
ATOM     12  C   UNL     1      49.521   9.588  11.685  0.00  0.00    +0.000 A 
ATOM     13  S   UNL     1      49.479  11.292  11.564  0.00  0.00    +0.000 S 
ATOM     14  C   UNL     1      47.789  11.324  11.772  0.00  0.00    +0.000 A 
ATOM     15  N   UNL     1      47.104  12.499  11.780  0.00  0.00    +0.000 NA
ATOM     16  C   UNL     1      45.829  12.366  11.930  0.00  0.00    +0.000 A 
ATOM     17  N   UNL     1      45.178  11.172  12.078  0.00  0.00    +0.000 N 
ATOM     18  C   UNL     1      45.829   9.960  12.155  0.00  0.00    +0.000 A 
ATOM     19  O   UNL     1      45.215   8.947  12.448  0.00  0.00    +0.000 OA
ATOM     20  C   UNL     1      47.263  10.056  11.934  0.00  0.00    +0.000 A 
ATOM     21  H   UNL     1      44.181  11.131  12.236  0.00  0.00    +0.000 HD
ENDBRANCH  10  11
ENDBRANCH   8  10
ENDBRANCH   7   8
ENDBRANCH   1   7
BRANCH   5  22
ATOM     22  C   UNL     1      43.213   4.220  12.157  0.00  0.00    +0.000 C 
BRANCH  22  23
ATOM     23  O   UNL     1      43.293   3.589  10.885  0.00  0.00    +0.000 OA
BRANCH  23  24
ATOM     24  C   UNL     1      43.784   4.466   9.875  0.00  0.00    +0.000 C 
BRANCH  24  25
ATOM     25  C   UNL     1      44.824   3.727   9.073  0.00  0.00    +0.000 A 
ATOM     26  C   UNL     1      44.945   2.335   9.185  0.00  0.00    +0.000 A 
ATOM     27  C   UNL     1      45.888   1.634   8.427  0.00  0.00    +0.000 A 
ATOM     28  C   UNL     1      46.736   2.314   7.544  0.00  0.00    +0.000 A 
ATOM     29  C   UNL     1      46.625   3.707   7.443  0.00  0.00    +0.000 A 
ATOM     30  C   UNL     1      45.677   4.407   8.196  0.00  0.00    +0.000 A 
BRANCH  28  31
ATOM     31  C   UNL     1      47.771   1.580   6.732  0.00  0.00    +0.000 C 
BRANCH  31  32
ATOM     32  O   UNL     1      48.706   2.486   6.161  0.00  0.00    +0.000 OA
ATOM     33  H   UNL     1      49.079   3.004   6.895  0.00  0.00    +0.000 HD
ENDBRANCH  31  32
ENDBRANCH  28  31
ENDBRANCH  24  25
ENDBRANCH  23  24
ENDBRANCH  22  23
ENDBRANCH   5  22
TORSDOF 10
ENDMDL
MODEL 3
REMARK VINA RESULT:    -7.752      4.318      6.906
REMARK INTER + INTRA:         -13.223
REMARK INTER:                 -11.585
REMARK INTRA:                  -1.638
REMARK UNBOUND:                -1.166
REMARK  Name = 
REMARK  10 active torsions:
REMARK  status: ('A' for Active; 'I' for Inactive)
REMARK    1  A    between atoms: C_2  and  C_3
REMARK    2  A    between atoms: C_2  and  C_22
REMARK    3  A    between atoms: C_3  and  O_4
REMARK    4  A    between atoms: O_4  and  C_5
REMARK    5  A    between atoms: C_9  and  C_10
REMARK    6  A    between atoms: C_10  and  O_11
REMARK    7  A    between atoms: O_11  and  C_12
REMARK    8  A    between atoms: C_12  and  C_13
REMARK    9  A    between atoms: C_16  and  C_17
REMARK   10  A    between atoms: C_17  and  O_18
REMARK                            x       y       z     vdW  Elec       q    Type
REMARK                         _______ _______ _______ _____ _____    ______ ____
ROOT
ATOM      1  C   UNL     1      47.790   6.904  11.958  0.00  0.00    +0.000 A 
ATOM      2  C   UNL     1      48.456   6.401  13.069  0.00  0.00    +0.000 A 
ATOM      3  N   UNL     1      47.963   5.430  13.869  0.00  0.00    +0.000 NA
ATOM      4  C   UNL     1      46.752   4.931  13.535  0.00  0.00    +0.000 A 
ATOM      5  C   UNL     1      46.006   5.349  12.437  0.00  0.00    +0.000 A 
ATOM      6  C   UNL     1      46.549   6.359  11.634  0.00  0.00    +0.000 A 
ENDROOT
BRANCH   1   7
ATOM      7  O   UNL     1      48.436   7.861  11.235  0.00  0.00    +0.000 OA
BRANCH   7   8
ATOM      8  C   UNL     1      49.244   8.759  11.989  0.00  0.00    +0.000 C 
BRANCH   8  10
ATOM      9  O   UNL     1      48.315   9.974  13.850  0.00  0.00    +0.000 OA
ATOM     10  C   UNL     1      48.362   9.831  12.632  0.00  0.00    +0.000 C 
BRANCH  10  11
ATOM     11  C   UNL     1      47.535  10.659  11.744  0.00  0.00    +0.000 A 
ATOM     12  C   UNL     1      48.052  11.632  10.904  0.00  0.00    +0.000 A 
ATOM     13  S   UNL     1      46.862  12.384   9.936  0.00  0.00    +0.000 S 
ATOM     14  C   UNL     1      45.623  11.439  10.622  0.00  0.00    +0.000 A 
ATOM     15  N   UNL     1      44.328  11.590  10.234  0.00  0.00    +0.000 NA
ATOM     16  C   UNL     1      43.503  10.796  10.828  0.00  0.00    +0.000 A 
ATOM     17  N   UNL     1      43.850   9.869  11.772  0.00  0.00    +0.000 N 
ATOM     18  C   UNL     1      45.132   9.725  12.256  0.00  0.00    +0.000 A 
ATOM     19  O   UNL     1      45.355   8.998  13.210  0.00  0.00    +0.000 OA
ATOM     20  C   UNL     1      46.107  10.564  11.575  0.00  0.00    +0.000 A 
ATOM     21  H   UNL     1      43.155   9.301  12.236  0.00  0.00    +0.000 HD
ENDBRANCH  10  11
ENDBRANCH   8  10
ENDBRANCH   7   8
ENDBRANCH   1   7
BRANCH   5  22
ATOM     22  C   UNL     1      44.692   4.690  12.126  0.00  0.00    +0.000 C 
BRANCH  22  23
ATOM     23  O   UNL     1      44.309   5.040  10.802  0.00  0.00    +0.000 OA
BRANCH  23  24
ATOM     24  C   UNL     1      43.755   3.936  10.089  0.00  0.00    +0.000 C 
BRANCH  24  25
ATOM     25  C   UNL     1      44.813   3.394   9.163  0.00  0.00    +0.000 A 
ATOM     26  C   UNL     1      45.090   2.020   9.135  0.00  0.00    +0.000 A 
ATOM     27  C   UNL     1      46.051   1.500   8.262  0.00  0.00    +0.000 A 
ATOM     28  C   UNL     1      46.761   2.348   7.402  0.00  0.00    +0.000 A 
ATOM     29  C   UNL     1      46.496   3.723   7.442  0.00  0.00    +0.000 A 
ATOM     30  C   UNL     1      45.530   4.242   8.310  0.00  0.00    +0.000 A 
BRANCH  28  31
ATOM     31  C   UNL     1      47.813   1.810   6.467  0.00  0.00    +0.000 C 
BRANCH  31  32
ATOM     32  O   UNL     1      48.893   2.726   6.336  0.00  0.00    +0.000 OA
ATOM     33  H   UNL     1      49.635   2.359   6.847  0.00  0.00    +0.000 HD
ENDBRANCH  31  32
ENDBRANCH  28  31
ENDBRANCH  24  25
ENDBRANCH  23  24
ENDBRANCH  22  23
ENDBRANCH   5  22
TORSDOF 10
ENDMDL
MODEL 4
REMARK VINA RESULT:    -7.454      2.078      2.515
REMARK INTER + INTRA:         -12.760
REMARK INTER:                 -11.498
REMARK INTRA:                  -1.262
REMARK UNBOUND:                -1.166
REMARK  Name = 
REMARK  10 active torsions:
REMARK  status: ('A' for Active; 'I' for Inactive)
REMARK    1  A    between atoms: C_2  and  C_3
REMARK    2  A    between atoms: C_2  and  C_22
REMARK    3  A    between atoms: C_3  and  O_4
REMARK    4  A    between atoms: O_4  and  C_5
REMARK    5  A    between atoms: C_9  and  C_10
REMARK    6  A    between atoms: C_10  and  O_11
REMARK    7  A    between atoms: O_11  and  C_12
REMARK    8  A    between atoms: C_12  and  C_13
REMARK    9  A    between atoms: C_16  and  C_17
REMARK   10  A    between atoms: C_17  and  O_18
REMARK                            x       y       z     vdW  Elec       q    Type
REMARK                         _______ _______ _______ _____ _____    ______ ____
ROOT
ATOM      1  C   UNL     1      46.593   5.864  13.432  0.00  0.00    +0.000 A 
ATOM      2  C   UNL     1      47.211   4.642  13.663  0.00  0.00    +0.000 A 
ATOM      3  N   UNL     1      46.614   3.445  13.469  0.00  0.00    +0.000 NA
ATOM      4  C   UNL     1      45.343   3.473  13.009  0.00  0.00    +0.000 A 
ATOM      5  C   UNL     1      44.635   4.639  12.729  0.00  0.00    +0.000 A 
ATOM      6  C   UNL     1      45.287   5.859  12.948  0.00  0.00    +0.000 A 
ENDROOT
BRANCH   1   7
ATOM      7  O   UNL     1      47.341   6.983  13.648  0.00  0.00    +0.000 OA
BRANCH   7   8
ATOM      8  C   UNL     1      48.655   6.755  14.149  0.00  0.00    +0.000 C 
BRANCH   8  10
ATOM      9  O   UNL     1      48.505   8.264  16.021  0.00  0.00    +0.000 OA
ATOM     10  C   UNL     1      48.709   7.117  15.635  0.00  0.00    +0.000 C 
BRANCH  10  11
ATOM     11  C   UNL     1      49.058   6.053  16.585  0.00  0.00    +0.000 A 
ATOM     12  C   UNL     1      48.118   5.264  17.230  0.00  0.00    +0.000 A 
ATOM     13  S   UNL     1      48.819   4.061  18.221  0.00  0.00    +0.000 S 
ATOM     14  C   UNL     1      50.395   4.570  17.826  0.00  0.00    +0.000 A 
ATOM     15  N   UNL     1      51.486   3.953  18.355  0.00  0.00    +0.000 NA
ATOM     16  C   UNL     1      52.612   4.436  17.953  0.00  0.00    +0.000 A 
ATOM     17  N   UNL     1      52.750   5.477  17.076  0.00  0.00    +0.000 N 
ATOM     18  C   UNL     1      51.683   6.186  16.569  0.00  0.00    +0.000 A 
ATOM     19  O   UNL     1      51.868   7.203  15.921  0.00  0.00    +0.000 OA
ATOM     20  C   UNL     1      50.389   5.641  16.953  0.00  0.00    +0.000 A 
ATOM     21  H   UNL     1      53.659   5.842  16.828  0.00  0.00    +0.000 HD
ENDBRANCH  10  11
ENDBRANCH   8  10
ENDBRANCH   7   8
ENDBRANCH   1   7
BRANCH   5  22
ATOM     22  C   UNL     1      43.242   4.556  12.173  0.00  0.00    +0.000 C 
BRANCH  22  23
ATOM     23  O   UNL     1      43.270   3.767  10.990  0.00  0.00    +0.000 OA
BRANCH  23  24
ATOM     24  C   UNL     1      43.700   4.510   9.853  0.00  0.00    +0.000 C 
BRANCH  24  25
ATOM     25  C   UNL     1      44.711   3.682   9.102  0.00  0.00    +0.000 A 
ATOM     26  C   UNL     1      44.770   2.295   9.294  0.00  0.00    +0.000 A 
ATOM     27  C   UNL     1      45.685   1.511   8.584  0.00  0.00    +0.000 A 
ATOM     28  C   UNL     1      46.567   2.102   7.670  0.00  0.00    +0.000 A 
ATOM     29  C   UNL     1      46.519   3.490   7.490  0.00  0.00    +0.000 A 
ATOM     30  C   UNL     1      45.598   4.273   8.195  0.00  0.00    +0.000 A 
BRANCH  28  31
ATOM     31  C   UNL     1      47.572   1.277   6.909  0.00  0.00    +0.000 C 
BRANCH  31  32
ATOM     32  O   UNL     1      48.593   2.102   6.359  0.00  0.00    +0.000 OA
ATOM     33  H   UNL     1      49.432   1.809   6.753  0.00  0.00    +0.000 HD
ENDBRANCH  31  32
ENDBRANCH  28  31
ENDBRANCH  24  25
ENDBRANCH  23  24
ENDBRANCH  22  23
ENDBRANCH   5  22
TORSDOF 10
ENDMDL
MODEL 5
REMARK VINA RESULT:    -7.382      2.358      3.119
REMARK INTER + INTRA:         -12.647
REMARK INTER:                 -11.265
REMARK INTRA:                  -1.382
REMARK UNBOUND:                -1.166
REMARK  Name = 
REMARK  10 active torsions:
REMARK  status: ('A' for Active; 'I' for Inactive)
REMARK    1  A    between atoms: C_2  and  C_3
REMARK    2  A    between atoms: C_2  and  C_22
REMARK    3  A    between atoms: C_3  and  O_4
REMARK    4  A    between atoms: O_4  and  C_5
REMARK    5  A    between atoms: C_9  and  C_10
REMARK    6  A    between atoms: C_10  and  O_11
REMARK    7  A    between atoms: O_11  and  C_12
REMARK    8  A    between atoms: C_12  and  C_13
REMARK    9  A    between atoms: C_16  and  C_17
REMARK   10  A    between atoms: C_17  and  O_18
REMARK                            x       y       z     vdW  Elec       q    Type
REMARK                         _______ _______ _______ _____ _____    ______ ____
ROOT
ATOM      1  C   UNL     1      47.565   6.276  13.146  0.00  0.00    +0.000 A 
ATOM      2  C   UNL     1      47.108   7.453  12.568  0.00  0.00    +0.000 A 
ATOM      3  N   UNL     1      45.859   7.618  12.078  0.00  0.00    +0.000 NA
ATOM      4  C   UNL     1      45.026   6.559  12.183  0.00  0.00    +0.000 A 
ATOM      5  C   UNL     1      45.374   5.340  12.758  0.00  0.00    +0.000 A 
ATOM      6  C   UNL     1      46.678   5.208  13.251  0.00  0.00    +0.000 A 
ENDROOT
BRANCH   1   7
ATOM      7  O   UNL     1      48.843   6.280  13.621  0.00  0.00    +0.000 OA
BRANCH   7   8
ATOM      8  C   UNL     1      49.298   7.521  14.150  0.00  0.00    +0.000 C 
BRANCH   8  10
ATOM      9  O   UNL     1      51.217   6.775  15.399  0.00  0.00    +0.000 OA
ATOM     10  C   UNL     1      50.097   7.274  15.430  0.00  0.00    +0.000 C 
BRANCH  10  11
ATOM     11  C   UNL     1      49.460   7.615  16.710  0.00  0.00    +0.000 A 
ATOM     12  C   UNL     1      49.578   8.856  17.317  0.00  0.00    +0.000 A 
ATOM     13  S   UNL     1      48.670   8.986  18.758  0.00  0.00    +0.000 S 
ATOM     14  C   UNL     1      48.106   7.385  18.617  0.00  0.00    +0.000 A 
ATOM     15  N   UNL     1      47.275   6.848  19.551  0.00  0.00    +0.000 NA
ATOM     16  C   UNL     1      46.918   5.633  19.304  0.00  0.00    +0.000 A 
ATOM     17  N   UNL     1      47.317   4.906  18.215  0.00  0.00    +0.000 N 
ATOM     18  C   UNL     1      48.216   5.372  17.281  0.00  0.00    +0.000 A 
ATOM     19  O   UNL     1      48.658   4.626  16.423  0.00  0.00    +0.000 OA
ATOM     20  C   UNL     1      48.603   6.759  17.490  0.00  0.00    +0.000 A 
ATOM     21  H   UNL     1      47.040   3.942  18.095  0.00  0.00    +0.000 HD
ENDBRANCH  10  11
ENDBRANCH   8  10
ENDBRANCH   7   8
ENDBRANCH   1   7
BRANCH   5  22
ATOM     22  C   UNL     1      44.353   4.244  12.871  0.00  0.00    +0.000 C 
BRANCH  22  23
ATOM     23  O   UNL     1      44.645   3.248  11.899  0.00  0.00    +0.000 OA
BRANCH  23  24
ATOM     24  C   UNL     1      43.912   3.437  10.691  0.00  0.00    +0.000 C 
BRANCH  24  25
ATOM     25  C   UNL     1      44.847   3.216   9.531  0.00  0.00    +0.000 A 
ATOM     26  C   UNL     1      45.251   1.919   9.187  0.00  0.00    +0.000 A 
ATOM     27  C   UNL     1      46.098   1.697   8.096  0.00  0.00    +0.000 A 
ATOM     28  C   UNL     1      46.564   2.772   7.329  0.00  0.00    +0.000 A 
ATOM     29  C   UNL     1      46.173   4.070   7.683  0.00  0.00    +0.000 A 
ATOM     30  C   UNL     1      45.320   4.291   8.769  0.00  0.00    +0.000 A 
BRANCH  28  31
ATOM     31  C   UNL     1      47.491   2.556   6.162  0.00  0.00    +0.000 C 
BRANCH  31  32
ATOM     32  O   UNL     1      48.752   2.064   6.599  0.00  0.00    +0.000 OA
ATOM     33  H   UNL     1      49.432   2.582   6.134  0.00  0.00    +0.000 HD
ENDBRANCH  31  32
ENDBRANCH  28  31
ENDBRANCH  24  25
ENDBRANCH  23  24
ENDBRANCH  22  23
ENDBRANCH   5  22
TORSDOF 10
ENDMDL
MODEL 6
REMARK VINA RESULT:    -7.311      2.888      5.028
REMARK INTER + INTRA:         -12.537
REMARK INTER:                 -10.661
REMARK INTRA:                  -1.876
REMARK UNBOUND:                -1.166
REMARK  Name = 
REMARK  10 active torsions:
REMARK  status: ('A' for Active; 'I' for Inactive)
REMARK    1  A    between atoms: C_2  and  C_3
REMARK    2  A    between atoms: C_2  and  C_22
REMARK    3  A    between atoms: C_3  and  O_4
REMARK    4  A    between atoms: O_4  and  C_5
REMARK    5  A    between atoms: C_9  and  C_10
REMARK    6  A    between atoms: C_10  and  O_11
REMARK    7  A    between atoms: O_11  and  C_12
REMARK    8  A    between atoms: C_12  and  C_13
REMARK    9  A    between atoms: C_16  and  C_17
REMARK   10  A    between atoms: C_17  and  O_18
REMARK                            x       y       z     vdW  Elec       q    Type
REMARK                         _______ _______ _______ _____ _____    ______ ____
ROOT
ATOM      1  C   UNL     1      46.161   4.167  13.389  0.00  0.00    +0.000 A 
ATOM      2  C   UNL     1      45.644   3.225  12.509  0.00  0.00    +0.000 A 
ATOM      3  N   UNL     1      44.936   3.535  11.400  0.00  0.00    +0.000 NA
ATOM      4  C   UNL     1      44.747   4.851  11.154  0.00  0.00    +0.000 A 
ATOM      5  C   UNL     1      45.234   5.878  11.959  0.00  0.00    +0.000 A 
ATOM      6  C   UNL     1      45.959   5.515  13.101  0.00  0.00    +0.000 A 
ENDROOT
BRANCH   1   7
ATOM      7  O   UNL     1      46.879   3.694  14.446  0.00  0.00    +0.000 OA
BRANCH   7   8
ATOM      8  C   UNL     1      47.277   4.670  15.403  0.00  0.00    +0.000 C 
BRANCH   8  10
ATOM      9  O   UNL     1      46.670   3.321  17.304  0.00  0.00    +0.000 OA
ATOM     10  C   UNL     1      47.534   3.995  16.752  0.00  0.00    +0.000 C 
BRANCH  10  11
ATOM     11  C   UNL     1      48.840   4.215  17.389  0.00  0.00    +0.000 A 
ATOM     12  C   UNL     1      49.153   5.349  18.120  0.00  0.00    +0.000 A 
ATOM     13  S   UNL     1      50.718   5.296  18.803  0.00  0.00    +0.000 S 
ATOM     14  C   UNL     1      51.024   3.761  18.129  0.00  0.00    +0.000 A 
ATOM     15  N   UNL     1      52.214   3.132  18.326  0.00  0.00    +0.000 NA
ATOM     16  C   UNL     1      52.295   1.971  17.770  0.00  0.00    +0.000 A 
ATOM     17  N   UNL     1      51.302   1.384  17.034  0.00  0.00    +0.000 N 
ATOM     18  C   UNL     1      50.109   2.006  16.741  0.00  0.00    +0.000 A 
ATOM     19  O   UNL     1      49.327   1.504  15.949  0.00  0.00    +0.000 OA
ATOM     20  C   UNL     1      49.950   3.296  17.394  0.00  0.00    +0.000 A 
ATOM     21  H   UNL     1      51.437   0.489  16.585  0.00  0.00    +0.000 HD
ENDBRANCH  10  11
ENDBRANCH   8  10
ENDBRANCH   7   8
ENDBRANCH   1   7
BRANCH   5  22
ATOM     22  C   UNL     1      45.010   7.310  11.566  0.00  0.00    +0.000 C 
BRANCH  22  23
ATOM     23  O   UNL     1      45.384   8.145  12.655  0.00  0.00    +0.000 OA
BRANCH  23  24
ATOM     24  C   UNL     1      46.489   8.988  12.336  0.00  0.00    +0.000 C 
BRANCH  24  25
ATOM     25  C   UNL     1      47.666   8.560  13.174  0.00  0.00    +0.000 A 
ATOM     26  C   UNL     1      48.852   8.135  12.560  0.00  0.00    +0.000 A 
ATOM     27  C   UNL     1      49.961   7.760  13.325  0.00  0.00    +0.000 A 
ATOM     28  C   UNL     1      49.903   7.797  14.723  0.00  0.00    +0.000 A 
ATOM     29  C   UNL     1      48.713   8.207  15.337  0.00  0.00    +0.000 A 
ATOM     30  C   UNL     1      47.606   8.589  14.572  0.00  0.00    +0.000 A 
BRANCH  28  31
ATOM     31  C   UNL     1      51.081   7.380  15.566  0.00  0.00    +0.000 C 
BRANCH  31  32
ATOM     32  O   UNL     1      52.264   7.296  14.780  0.00  0.00    +0.000 OA
ATOM     33  H   UNL     1      52.397   8.172  14.380  0.00  0.00    +0.000 HD
ENDBRANCH  31  32
ENDBRANCH  28  31
ENDBRANCH  24  25
ENDBRANCH  23  24
ENDBRANCH  22  23
ENDBRANCH   5  22
TORSDOF 10
ENDMDL
MODEL 7
REMARK VINA RESULT:    -6.831      4.292      7.183
REMARK INTER + INTRA:         -11.790
REMARK INTER:                 -10.653
REMARK INTRA:                  -1.138
REMARK UNBOUND:                -1.166
REMARK  Name = 
REMARK  10 active torsions:
REMARK  status: ('A' for Active; 'I' for Inactive)
REMARK    1  A    between atoms: C_2  and  C_3
REMARK    2  A    between atoms: C_2  and  C_22
REMARK    3  A    between atoms: C_3  and  O_4
REMARK    4  A    between atoms: O_4  and  C_5
REMARK    5  A    between atoms: C_9  and  C_10
REMARK    6  A    between atoms: C_10  and  O_11
REMARK    7  A    between atoms: O_11  and  C_12
REMARK    8  A    between atoms: C_12  and  C_13
REMARK    9  A    between atoms: C_16  and  C_17
REMARK   10  A    between atoms: C_17  and  O_18
REMARK                            x       y       z     vdW  Elec       q    Type
REMARK                         _______ _______ _______ _____ _____    ______ ____
ROOT
ATOM      1  C   UNL     1      47.488   7.073  12.783  0.00  0.00    +0.000 A 
ATOM      2  C   UNL     1      48.149   6.599  13.909  0.00  0.00    +0.000 A 
ATOM      3  N   UNL     1      47.861   5.428  14.518  0.00  0.00    +0.000 NA
ATOM      4  C   UNL     1      46.872   4.690  13.966  0.00  0.00    +0.000 A 
ATOM      5  C   UNL     1      46.156   5.060  12.830  0.00  0.00    +0.000 A 
ATOM      6  C   UNL     1      46.482   6.283  12.231  0.00  0.00    +0.000 A 
ENDROOT
BRANCH   1   7
ATOM      7  O   UNL     1      47.918   8.260  12.270  0.00  0.00    +0.000 OA
BRANCH   7   8
ATOM      8  C   UNL     1      48.852   8.974  13.075  0.00  0.00    +0.000 C 
BRANCH   8  10
ATOM      9  O   UNL     1      48.834  11.206  13.979  0.00  0.00    +0.000 OA
ATOM     10  C   UNL     1      48.514  10.466  13.055  0.00  0.00    +0.000 C 
BRANCH  10  11
ATOM     11  C   UNL     1      47.752  10.979  11.907  0.00  0.00    +0.000 A 
ATOM     12  C   UNL     1      46.371  11.095  11.896  0.00  0.00    +0.000 A 
ATOM     13  S   UNL     1      45.769  11.790  10.456  0.00  0.00    +0.000 S 
ATOM     14  C   UNL     1      47.335  11.942   9.804  0.00  0.00    +0.000 A 
ATOM     15  N   UNL     1      47.533  12.467   8.565  0.00  0.00    +0.000 NA
ATOM     16  C   UNL     1      48.772  12.535   8.212  0.00  0.00    +0.000 A 
ATOM     17  N   UNL     1      49.828  12.125   8.979  0.00  0.00    +0.000 N 
ATOM     18  C   UNL     1      49.682  11.518  10.206  0.00  0.00    +0.000 A 
ATOM     19  O   UNL     1      50.645  11.027  10.773  0.00  0.00    +0.000 OA
ATOM     20  C   UNL     1      48.304  11.470  10.670  0.00  0.00    +0.000 A 
ATOM     21  H   UNL     1      50.777  12.162   8.633  0.00  0.00    +0.000 HD
ENDBRANCH  10  11
ENDBRANCH   8  10
ENDBRANCH   7   8
ENDBRANCH   1   7
BRANCH   5  22
ATOM     22  C   UNL     1      45.110   4.139  12.269  0.00  0.00    +0.000 C 
BRANCH  22  23
ATOM     23  O   UNL     1      44.484   4.781  11.164  0.00  0.00    +0.000 OA
BRANCH  23  24
ATOM     24  C   UNL     1      43.819   3.856  10.307  0.00  0.00    +0.000 C 
BRANCH  24  25
ATOM     25  C   UNL     1      44.809   3.369   9.280  0.00  0.00    +0.000 A 
ATOM     26  C   UNL     1      45.131   2.007   9.201  0.00  0.00    +0.000 A 
ATOM     27  C   UNL     1      46.028   1.537   8.236  0.00  0.00    +0.000 A 
ATOM     28  C   UNL     1      46.627   2.424   7.333  0.00  0.00    +0.000 A 
ATOM     29  C   UNL     1      46.317   3.787   7.422  0.00  0.00    +0.000 A 
ATOM     30  C   UNL     1      45.414   4.256   8.383  0.00  0.00    +0.000 A 
BRANCH  28  31
ATOM     31  C   UNL     1      47.609   1.941   6.298  0.00  0.00    +0.000 C 
BRANCH  31  32
ATOM     32  O   UNL     1      48.840   2.646   6.398  0.00  0.00    +0.000 OA
ATOM     33  H   UNL     1      48.623   3.551   6.681  0.00  0.00    +0.000 HD
ENDBRANCH  31  32
ENDBRANCH  28  31
ENDBRANCH  24  25
ENDBRANCH  23  24
ENDBRANCH  22  23
ENDBRANCH   5  22
TORSDOF 10
ENDMDL
MODEL 8
REMARK VINA RESULT:    -6.600      4.102      8.448
REMARK INTER + INTRA:         -11.432
REMARK INTER:                  -9.550
REMARK INTRA:                  -1.881
REMARK UNBOUND:                -1.166
REMARK  Name = 
REMARK  10 active torsions:
REMARK  status: ('A' for Active; 'I' for Inactive)
REMARK    1  A    between atoms: C_2  and  C_3
REMARK    2  A    between atoms: C_2  and  C_22
REMARK    3  A    between atoms: C_3  and  O_4
REMARK    4  A    between atoms: O_4  and  C_5
REMARK    5  A    between atoms: C_9  and  C_10
REMARK    6  A    between atoms: C_10  and  O_11
REMARK    7  A    between atoms: O_11  and  C_12
REMARK    8  A    between atoms: C_12  and  C_13
REMARK    9  A    between atoms: C_16  and  C_17
REMARK   10  A    between atoms: C_17  and  O_18
REMARK                            x       y       z     vdW  Elec       q    Type
REMARK                         _______ _______ _______ _____ _____    ______ ____
ROOT
ATOM      1  C   UNL     1      48.689   9.151  15.794  0.00  0.00    +0.000 A 
ATOM      2  C   UNL     1      49.077  10.481  15.686  0.00  0.00    +0.000 A 
ATOM      3  N   UNL     1      48.961  11.385  16.684  0.00  0.00    +0.000 NA
ATOM      4  C   UNL     1      48.445  10.934  17.849  0.00  0.00    +0.000 A 
ATOM      5  C   UNL     1      48.039   9.621  18.072  0.00  0.00    +0.000 A 
ATOM      6  C   UNL     1      48.172   8.715  17.012  0.00  0.00    +0.000 A 
ENDROOT
BRANCH   1   7
ATOM      7  O   UNL     1      48.899   8.358  14.707  0.00  0.00    +0.000 OA
BRANCH   7   8
ATOM      8  C   UNL     1      48.292   7.071  14.759  0.00  0.00    +0.000 C 
BRANCH   8  10
ATOM      9  O   UNL     1      49.122   6.219  12.664  0.00  0.00    +0.000 OA
ATOM     10  C   UNL     1      48.142   6.513  13.342  0.00  0.00    +0.000 C 
BRANCH  10  11
ATOM     11  C   UNL     1      46.783   6.381  12.800  0.00  0.00    +0.000 A 
ATOM     12  C   UNL     1      46.054   7.446  12.295  0.00  0.00    +0.000 A 
ATOM     13  S   UNL     1      44.534   6.979  11.667  0.00  0.00    +0.000 S 
ATOM     14  C   UNL     1      44.805   5.346  12.066  0.00  0.00    +0.000 A 
ATOM     15  N   UNL     1      43.870   4.394  11.801  0.00  0.00    +0.000 NA
ATOM     16  C   UNL     1      44.220   3.200  12.143  0.00  0.00    +0.000 A 
ATOM     17  N   UNL     1      45.413   2.871  12.727  0.00  0.00    +0.000 N 
ATOM     18  C   UNL     1      46.362   3.803  13.086  0.00  0.00    +0.000 A 
ATOM     19  O   UNL     1      47.333   3.473  13.747  0.00  0.00    +0.000 OA
ATOM     20  C   UNL     1      46.034   5.157  12.669  0.00  0.00    +0.000 A 
ATOM     21  H   UNL     1      45.617   1.924  13.013  0.00  0.00    +0.000 HD
ENDBRANCH  10  11
ENDBRANCH   8  10
ENDBRANCH   7   8
ENDBRANCH   1   7
BRANCH   5  22
ATOM     22  C   UNL     1      47.525   9.213  19.423  0.00  0.00    +0.000 C 
BRANCH  22  23
ATOM     23  O   UNL     1      48.316   8.133  19.904  0.00  0.00    +0.000 OA
BRANCH  23  24
ATOM     24  C   UNL     1      47.534   6.980  20.205  0.00  0.00    +0.000 C 
BRANCH  24  25
ATOM     25  C   UNL     1      48.049   5.831  19.378  0.00  0.00    +0.000 A 
ATOM     26  C   UNL     1      49.328   5.310  19.612  0.00  0.00    +0.000 A 
ATOM     27  C   UNL     1      49.808   4.226  18.869  0.00  0.00    +0.000 A 
ATOM     28  C   UNL     1      49.018   3.645  17.870  0.00  0.00    +0.000 A 
ATOM     29  C   UNL     1      47.745   4.176  17.626  0.00  0.00    +0.000 A 
ATOM     30  C   UNL     1      47.262   5.255  18.374  0.00  0.00    +0.000 A 
BRANCH  28  31
ATOM     31  C   UNL     1      49.523   2.489  17.047  0.00  0.00    +0.000 C 
BRANCH  31  32
ATOM     32  O   UNL     1      48.723   2.304  15.886  0.00  0.00    +0.000 OA
ATOM     33  H   UNL     1      49.123   1.574  15.383  0.00  0.00    +0.000 HD
ENDBRANCH  31  32
ENDBRANCH  28  31
ENDBRANCH  24  25
ENDBRANCH  23  24
ENDBRANCH  22  23
ENDBRANCH   5  22
TORSDOF 10
ENDMDL
MODEL 9
REMARK VINA RESULT:    -6.280      3.130      5.154
REMARK INTER + INTRA:         -10.933
REMARK INTER:                  -9.483
REMARK INTRA:                  -1.450
REMARK UNBOUND:                -1.166
REMARK  Name = 
REMARK  10 active torsions:
REMARK  status: ('A' for Active; 'I' for Inactive)
REMARK    1  A    between atoms: C_2  and  C_3
REMARK    2  A    between atoms: C_2  and  C_22
REMARK    3  A    between atoms: C_3  and  O_4
REMARK    4  A    between atoms: O_4  and  C_5
REMARK    5  A    between atoms: C_9  and  C_10
REMARK    6  A    between atoms: C_10  and  O_11
REMARK    7  A    between atoms: O_11  and  C_12
REMARK    8  A    between atoms: C_12  and  C_13
REMARK    9  A    between atoms: C_16  and  C_17
REMARK   10  A    between atoms: C_17  and  O_18
REMARK                            x       y       z     vdW  Elec       q    Type
REMARK                         _______ _______ _______ _____ _____    ______ ____
ROOT
ATOM      1  C   UNL     1      46.106   4.136  13.305  0.00  0.00    +0.000 A 
ATOM      2  C   UNL     1      45.467   3.325  12.375  0.00  0.00    +0.000 A 
ATOM      3  N   UNL     1      44.786   3.793  11.306  0.00  0.00    +0.000 NA
ATOM      4  C   UNL     1      44.753   5.136  11.153  0.00  0.00    +0.000 A 
ATOM      5  C   UNL     1      45.371   6.040  12.014  0.00  0.00    +0.000 A 
ATOM      6  C   UNL     1      46.063   5.515  13.113  0.00  0.00    +0.000 A 
ENDROOT
BRANCH   1   7
ATOM      7  O   UNL     1      46.776   3.509  14.312  0.00  0.00    +0.000 OA
BRANCH   7   8
ATOM      8  C   UNL     1      47.294   4.361  15.329  0.00  0.00    +0.000 C 
BRANCH   8  10
ATOM      9  O   UNL     1      46.551   3.186  17.296  0.00  0.00    +0.000 OA
ATOM     10  C   UNL     1      47.501   3.561  16.616  0.00  0.00    +0.000 C 
BRANCH  10  11
ATOM     11  C   UNL     1      48.882   3.290  17.038  0.00  0.00    +0.000 A 
ATOM     12  C   UNL     1      49.511   2.068  16.861  0.00  0.00    +0.000 A 
ATOM     13  S   UNL     1      51.138   2.069  17.383  0.00  0.00    +0.000 S 
ATOM     14  C   UNL     1      51.042   3.698  17.871  0.00  0.00    +0.000 A 
ATOM     15  N   UNL     1      52.111   4.330  18.425  0.00  0.00    +0.000 NA
ATOM     16  C   UNL     1      51.895   5.565  18.729  0.00  0.00    +0.000 A 
ATOM     17  N   UNL     1      50.712   6.224  18.536  0.00  0.00    +0.000 N 
ATOM     18  C   UNL     1      49.577   5.614  18.050  0.00  0.00    +0.000 A 
ATOM     19  O   UNL     1      48.509   6.205  18.049  0.00  0.00    +0.000 OA
ATOM     20  C   UNL     1      49.789   4.234  17.641  0.00  0.00    +0.000 A 
ATOM     21  H   UNL     1      50.587   7.181  18.834  0.00  0.00    +0.000 HD
ENDBRANCH  10  11
ENDBRANCH   8  10
ENDBRANCH   7   8
ENDBRANCH   1   7
BRANCH   5  22
ATOM     22  C   UNL     1      45.315   7.512  11.723  0.00  0.00    +0.000 C 
BRANCH  22  23
ATOM     23  O   UNL     1      45.731   8.222  12.883  0.00  0.00    +0.000 OA
BRANCH  23  24
ATOM     24  C   UNL     1      46.386   9.447  12.563  0.00  0.00    +0.000 C 
BRANCH  24  25
ATOM     25  C   UNL     1      47.859   9.170  12.411  0.00  0.00    +0.000 A 
ATOM     26  C   UNL     1      48.625   9.903  11.495  0.00  0.00    +0.000 A 
ATOM     27  C   UNL     1      49.998   9.674  11.362  0.00  0.00    +0.000 A 
ATOM     28  C   UNL     1      50.633   8.699  12.142  0.00  0.00    +0.000 A 
ATOM     29  C   UNL     1      49.865   7.955  13.046  0.00  0.00    +0.000 A 
ATOM     30  C   UNL     1      48.493   8.189  13.184  0.00  0.00    +0.000 A 
BRANCH  28  31
ATOM     31  C   UNL     1      52.108   8.424  12.001  0.00  0.00    +0.000 C 
BRANCH  31  32
ATOM     32  O   UNL     1      52.765   8.518  13.259  0.00  0.00    +0.000 OA
ATOM     33  H   UNL     1      53.569   9.046  13.116  0.00  0.00    +0.000 HD
ENDBRANCH  31  32
ENDBRANCH  28  31
ENDBRANCH  24  25
ENDBRANCH  23  24
ENDBRANCH  22  23
ENDBRANCH   5  22
TORSDOF 10
ENDMDL
