MODEL 1
REMARK VINA RESULT:    -7.201      0.000      0.000
REMARK INTER + INTRA:         -11.786
REMARK INTER:                 -10.569
REMARK INTRA:                  -1.217
REMARK UNBOUND:                -1.217
REMARK  Name = 
REMARK  8 active torsions:
REMARK  status: ('A' for Active; 'I' for Inactive)
REMARK    1  A    between atoms: C_8  and  C_9
REMARK    2  A    between atoms: N_11  and  C_12
REMARK    3  A    between atoms: C_12  and  C_13
REMARK    4  A    between atoms: C_16  and  N_17
REMARK    5  A    between atoms: N_17  and  C_18
REMARK    6  A    between atoms: C_18  and  C_19
REMARK    7  A    between atoms: C_19  and  C_20
REMARK    8  A    between atoms: C_20  and  N_21
REMARK                            x       y       z     vdW  Elec       q    Type
REMARK                         _______ _______ _______ _____ _____    ______ ____
ROOT
ATOM      1  C   UNL     1      48.355   7.527  13.447  0.00  0.00    +0.000 C 
ENDROOT
BRANCH   1   2
ATOM      2  C   UNL     1      47.176   6.785  12.874  0.00  0.00    +0.000 A 
ATOM      3  C   UNL     1      46.728   5.591  13.452  0.00  0.00    +0.000 A 
ATOM      4  C   UNL     1      45.616   4.923  12.932  0.00  0.00    +0.000 A 
ATOM      5  C   UNL     1      44.941   5.399  11.804  0.00  0.00    +0.000 A 
ATOM      6  C   UNL     1      45.398   6.589  11.228  0.00  0.00    +0.000 A 
ATOM      7  C   UNL     1      46.499   7.275  11.753  0.00  0.00    +0.000 A 
BRANCH   5   8
ATOM      8  N   UNL     1      43.782   4.824  11.320  0.00  0.00    +0.000 N 
ATOM      9  H   UNL     1      43.078   5.435  10.927  0.00  0.00    +0.000 HD
BRANCH   8  10
ATOM     10  C   UNL     1      43.668   3.393  11.104  0.00  0.00    +0.000 C 
BRANCH  10  11
ATOM     11  C   UNL     1      44.792   2.939  10.176  0.00  0.00    +0.000 C 
BRANCH  11  12
ATOM     12  C   UNL     1      44.597   3.448   8.743  0.00  0.00    +0.000 C 
BRANCH  12  13
ATOM     13  N   UNL     1      45.387   2.708   7.742  0.00  0.00    +0.000 NA
ATOM     14  C   UNL     1      46.344   3.588   7.051  0.00  0.00    +0.000 C 
ATOM     15  C   UNL     1      47.114   2.840   5.968  0.00  0.00    +0.000 C 
ATOM     16  C   UNL     1      47.833   1.632   6.544  0.00  0.00    +0.000 C 
ATOM     17  C   UNL     1      46.856   0.755   7.319  0.00  0.00    +0.000 C 
ATOM     18  C   UNL     1      46.083   1.569   8.362  0.00  0.00    +0.000 C 
ENDBRANCH  12  13
ENDBRANCH  11  12
ENDBRANCH  10  11
ENDBRANCH   8  10
ENDBRANCH   5   8
ENDBRANCH   1   2
BRANCH   1  21
ATOM     19  C   UNL     1      50.021   7.159  15.219  0.00  0.00    +0.000 C 
ATOM     20  O   UNL     1      50.903   7.713  14.579  0.00  0.00    +0.000 OA
ATOM     21  N   UNL     1      48.736   7.019  14.744  0.00  0.00    +0.000 N 
ATOM     22  H   UNL     1      48.041   6.551  15.316  0.00  0.00    +0.000 HD
BRANCH  19  30
ATOM     23  N   UNL     1      47.027   3.088  17.176  0.00  0.00    +0.000 N 
ATOM     24  C   UNL     1      48.067   3.876  17.593  0.00  0.00    +0.000 A 
ATOM     25  N   UNL     1      48.579   3.628  18.822  0.00  0.00    +0.000 NA
ATOM     26  N   UNL     1      49.604   4.326  19.287  0.00  0.00    +0.000 NA
ATOM     27  C   UNL     1      50.088   5.273  18.466  0.00  0.00    +0.000 A 
ATOM     28  S   UNL     1      51.397   6.266  18.867  0.00  0.00    +0.000 S 
ATOM     29  C   UNL     1      51.294   7.075  17.362  0.00  0.00    +0.000 A 
ATOM     30  C   UNL     1      50.271   6.598  16.547  0.00  0.00    +0.000 A 
ATOM     31  C   UNL     1      49.564   5.535  17.211  0.00  0.00    +0.000 A 
ATOM     32  N   UNL     1      48.504   4.815  16.739  0.00  0.00    +0.000 NA
ATOM     33  H   UNL     1      46.637   2.450  17.851  0.00  0.00    +0.000 HD
ATOM     34  H   UNL     1      46.563   3.315  16.313  0.00  0.00    +0.000 HD
ENDBRANCH  19  30
ENDBRANCH   1  21
TORSDOF 8
ENDMDL
MODEL 2
REMARK VINA RESULT:    -7.035      1.652      2.389
REMARK INTER + INTRA:         -11.542
REMARK INTER:                 -10.512
REMARK INTRA:                  -1.030
REMARK UNBOUND:                -1.217
REMARK  Name = 
REMARK  8 active torsions:
REMARK  status: ('A' for Active; 'I' for Inactive)
REMARK    1  A    between atoms: C_8  and  C_9
REMARK    2  A    between atoms: N_11  and  C_12
REMARK    3  A    between atoms: C_12  and  C_13
REMARK    4  A    between atoms: C_16  and  N_17
REMARK    5  A    between atoms: N_17  and  C_18
REMARK    6  A    between atoms: C_18  and  C_19
REMARK    7  A    between atoms: C_19  and  C_20
REMARK    8  A    between atoms: C_20  and  N_21
REMARK                            x       y       z     vdW  Elec       q    Type
REMARK                         _______ _______ _______ _____ _____    ______ ____
ROOT
ATOM      1  C   UNL     1      48.819   7.812  13.204  0.00  0.00    +0.000 C 
ENDROOT
BRANCH   1   2
ATOM      2  C   UNL     1      47.618   6.905  13.246  0.00  0.00    +0.000 A 
ATOM      3  C   UNL     1      46.353   7.368  12.860  0.00  0.00    +0.000 A 
ATOM      4  C   UNL     1      45.248   6.513  12.875  0.00  0.00    +0.000 A 
ATOM      5  C   UNL     1      45.357   5.187  13.306  0.00  0.00    +0.000 A 
ATOM      6  C   UNL     1      46.622   4.734  13.697  0.00  0.00    +0.000 A 
ATOM      7  C   UNL     1      47.738   5.577  13.667  0.00  0.00    +0.000 A 
BRANCH   5   8
ATOM      8  N   UNL     1      44.313   4.285  13.243  0.00  0.00    +0.000 N 
ATOM      9  H   UNL     1      44.349   3.475  13.849  0.00  0.00    +0.000 HD
BRANCH   8  10
ATOM     10  C   UNL     1      43.070   4.597  12.561  0.00  0.00    +0.000 C 
BRANCH  10  11
ATOM     11  C   UNL     1      43.257   4.379  11.062  0.00  0.00    +0.000 C 
BRANCH  11  12
ATOM     12  C   UNL     1      43.843   2.996  10.749  0.00  0.00    +0.000 C 
BRANCH  12  13
ATOM     13  N   UNL     1      44.975   3.036   9.806  0.00  0.00    +0.000 NA
ATOM     14  C   UNL     1      45.047   1.808   8.998  0.00  0.00    +0.000 C 
ATOM     15  C   UNL     1      46.258   1.817   8.070  0.00  0.00    +0.000 C 
ATOM     16  C   UNL     1      46.246   3.040   7.168  0.00  0.00    +0.000 C 
ATOM     17  C   UNL     1      46.101   4.309   8.000  0.00  0.00    +0.000 C 
ATOM     18  C   UNL     1      44.895   4.224   8.940  0.00  0.00    +0.000 C 
ENDBRANCH  12  13
ENDBRANCH  11  12
ENDBRANCH  10  11
ENDBRANCH   8  10
ENDBRANCH   5   8
ENDBRANCH   1   2
BRANCH   1  21
ATOM     19  C   UNL     1      50.130   7.621  15.277  0.00  0.00    +0.000 C 
ATOM     20  O   UNL     1      49.393   8.388  15.878  0.00  0.00    +0.000 OA
ATOM     21  N   UNL     1      49.928   7.278  13.959  0.00  0.00    +0.000 N 
ATOM     22  H   UNL     1      50.571   6.636  13.507  0.00  0.00    +0.000 HD
BRANCH  19  30
ATOM     23  N   UNL     1      49.691   3.037  18.135  0.00  0.00    +0.000 N 
ATOM     24  C   UNL     1      50.670   3.934  17.796  0.00  0.00    +0.000 A 
ATOM     25  N   UNL     1      51.925   3.676  18.234  0.00  0.00    +0.000 NA
ATOM     26  N   UNL     1      52.933   4.478  17.926  0.00  0.00    +0.000 NA
ATOM     27  C   UNL     1      52.624   5.540  17.163  0.00  0.00    +0.000 A 
ATOM     28  S   UNL     1      53.765   6.678  16.653  0.00  0.00    +0.000 S 
ATOM     29  C   UNL     1      52.564   7.568  15.821  0.00  0.00    +0.000 A 
ATOM     30  C   UNL     1      51.292   7.009  15.921  0.00  0.00    +0.000 A 
ATOM     31  C   UNL     1      51.340   5.812  16.719  0.00  0.00    +0.000 A 
ATOM     32  N   UNL     1      50.304   4.983  17.043  0.00  0.00    +0.000 NA
ATOM     33  H   UNL     1      49.944   2.303  18.777  0.00  0.00    +0.000 HD
ATOM     34  H   UNL     1      48.735   3.255  17.910  0.00  0.00    +0.000 HD
ENDBRANCH  19  30
ENDBRANCH   1  21
TORSDOF 8
ENDMDL
MODEL 3
REMARK VINA RESULT:    -7.016      3.052      8.791
REMARK INTER + INTRA:         -11.515
REMARK INTER:                  -9.870
REMARK INTRA:                  -1.645
REMARK UNBOUND:                -1.217
REMARK  Name = 
REMARK  8 active torsions:
REMARK  status: ('A' for Active; 'I' for Inactive)
REMARK    1  A    between atoms: C_8  and  C_9
REMARK    2  A    between atoms: N_11  and  C_12
REMARK    3  A    between atoms: C_12  and  C_13
REMARK    4  A    between atoms: C_16  and  N_17
REMARK    5  A    between atoms: N_17  and  C_18
REMARK    6  A    between atoms: C_18  and  C_19
REMARK    7  A    between atoms: C_19  and  C_20
REMARK    8  A    between atoms: C_20  and  N_21
REMARK                            x       y       z     vdW  Elec       q    Type
REMARK                         _______ _______ _______ _____ _____    ______ ____
ROOT
ATOM      1  C   UNL     1      47.436   7.967  12.188  0.00  0.00    +0.000 C 
ENDROOT
BRANCH   1   2
ATOM      2  C   UNL     1      47.967   7.964  13.598  0.00  0.00    +0.000 A 
ATOM      3  C   UNL     1      47.753   9.055  14.449  0.00  0.00    +0.000 A 
ATOM      4  C   UNL     1      48.224   9.034  15.765  0.00  0.00    +0.000 A 
ATOM      5  C   UNL     1      48.951   7.948  16.261  0.00  0.00    +0.000 A 
ATOM      6  C   UNL     1      49.167   6.865  15.403  0.00  0.00    +0.000 A 
ATOM      7  C   UNL     1      48.683   6.868  14.091  0.00  0.00    +0.000 A 
BRANCH   5   8
ATOM      8  N   UNL     1      49.348   7.846  17.581  0.00  0.00    +0.000 N 
ATOM      9  H   UNL     1      50.334   7.723  17.771  0.00  0.00    +0.000 HD
BRANCH   8  10
ATOM     10  C   UNL     1      48.459   8.183  18.678  0.00  0.00    +0.000 C 
BRANCH  10  11
ATOM     11  C   UNL     1      47.447   7.055  18.861  0.00  0.00    +0.000 C 
BRANCH  11  12
ATOM     12  C   UNL     1      48.118   5.741  19.279  0.00  0.00    +0.000 C 
BRANCH  12  13
ATOM     13  N   UNL     1      48.481   4.877  18.141  0.00  0.00    +0.000 NA
ATOM     14  C   UNL     1      49.358   3.771  18.560  0.00  0.00    +0.000 C 
ATOM     15  C   UNL     1      49.790   2.916  17.374  0.00  0.00    +0.000 C 
ATOM     16  C   UNL     1      48.585   2.375  16.623  0.00  0.00    +0.000 C 
ATOM     17  C   UNL     1      47.641   3.511  16.249  0.00  0.00    +0.000 C 
ATOM     18  C   UNL     1      47.276   4.358  17.472  0.00  0.00    +0.000 C 
ENDBRANCH  12  13
ENDBRANCH  11  12
ENDBRANCH  10  11
ENDBRANCH   8  10
ENDBRANCH   5   8
ENDBRANCH   1   2
BRANCH   1  21
ATOM     19  C   UNL     1      45.462   6.724  11.408  0.00  0.00    +0.000 C 
ATOM     20  O   UNL     1      44.809   7.746  11.262  0.00  0.00    +0.000 OA
ATOM     21  N   UNL     1      46.763   6.732  11.860  0.00  0.00    +0.000 N 
ATOM     22  H   UNL     1      47.261   5.855  11.964  0.00  0.00    +0.000 HD
BRANCH  19  30
ATOM     23  N   UNL     1      46.678   4.092   6.829  0.00  0.00    +0.000 N 
ATOM     24  C   UNL     1      45.894   3.899   7.935  0.00  0.00    +0.000 A 
ATOM     25  N   UNL     1      45.204   2.736   8.009  0.00  0.00    +0.000 NA
ATOM     26  N   UNL     1      44.444   2.458   9.058  0.00  0.00    +0.000 NA
ATOM     27  C   UNL     1      44.414   3.394  10.022  0.00  0.00    +0.000 A 
ATOM     28  S   UNL     1      43.515   3.230  11.444  0.00  0.00    +0.000 S 
ATOM     29  C   UNL     1      44.041   4.761  12.000  0.00  0.00    +0.000 A 
ATOM     30  C   UNL     1      44.902   5.405  11.114  0.00  0.00    +0.000 A 
ATOM     31  C   UNL     1      45.113   4.588   9.948  0.00  0.00    +0.000 A 
ATOM     32  N   UNL     1      45.890   4.870   8.861  0.00  0.00    +0.000 NA
ATOM     33  H   UNL     1      46.608   3.410   6.091  0.00  0.00    +0.000 HD
ATOM     34  H   UNL     1      47.121   4.987   6.700  0.00  0.00    +0.000 HD
ENDBRANCH  19  30
ENDBRANCH   1  21
TORSDOF 8
ENDMDL
MODEL 4
REMARK VINA RESULT:    -6.927      3.439      9.158
REMARK INTER + INTRA:         -11.384
REMARK INTER:                  -9.155
REMARK INTRA:                  -2.229
REMARK UNBOUND:                -1.217
REMARK  Name = 
REMARK  8 active torsions:
REMARK  status: ('A' for Active; 'I' for Inactive)
REMARK    1  A    between atoms: C_8  and  C_9
REMARK    2  A    between atoms: N_11  and  C_12
REMARK    3  A    between atoms: C_12  and  C_13
REMARK    4  A    between atoms: C_16  and  N_17
REMARK    5  A    between atoms: N_17  and  C_18
REMARK    6  A    between atoms: C_18  and  C_19
REMARK    7  A    between atoms: C_19  and  C_20
REMARK    8  A    between atoms: C_20  and  N_21
REMARK                            x       y       z     vdW  Elec       q    Type
REMARK                         _______ _______ _______ _____ _____    ______ ____
ROOT
ATOM      1  C   UNL     1      47.342   3.660  17.397  0.00  0.00    +0.000 C 
ENDROOT
BRANCH   1   2
ATOM      2  C   UNL     1      47.760   4.581  18.513  0.00  0.00    +0.000 A 
ATOM      3  C   UNL     1      48.864   4.278  19.319  0.00  0.00    +0.000 A 
ATOM      4  C   UNL     1      49.263   5.152  20.335  0.00  0.00    +0.000 A 
ATOM      5  C   UNL     1      48.558   6.329  20.603  0.00  0.00    +0.000 A 
ATOM      6  C   UNL     1      47.452   6.621  19.798  0.00  0.00    +0.000 A 
ATOM      7  C   UNL     1      47.056   5.763  18.766  0.00  0.00    +0.000 A 
BRANCH   5   8
ATOM      8  N   UNL     1      48.976   7.265  21.530  0.00  0.00    +0.000 N 
ATOM      9  H   UNL     1      49.315   6.929  22.422  0.00  0.00    +0.000 HD
BRANCH   8  10
ATOM     10  C   UNL     1      49.203   8.653  21.170  0.00  0.00    +0.000 C 
BRANCH  10  11
ATOM     11  C   UNL     1      50.547   8.767  20.456  0.00  0.00    +0.000 C 
BRANCH  11  12
ATOM     12  C   UNL     1      50.448   9.597  19.170  0.00  0.00    +0.000 C 
BRANCH  12  13
ATOM     13  N   UNL     1      50.490   8.786  17.941  0.00  0.00    +0.000 NA
ATOM     14  C   UNL     1      51.098   7.468  18.184  0.00  0.00    +0.000 C 
ATOM     15  C   UNL     1      51.205   6.653  16.899  0.00  0.00    +0.000 C 
ATOM     16  C   UNL     1      49.845   6.490  16.241  0.00  0.00    +0.000 C 
ATOM     17  C   UNL     1      49.184   7.850  16.051  0.00  0.00    +0.000 C 
ATOM     18  C   UNL     1      49.143   8.638  17.364  0.00  0.00    +0.000 C 
ENDBRANCH  12  13
ENDBRANCH  11  12
ENDBRANCH  10  11
ENDBRANCH   8  10
ENDBRANCH   5   8
ENDBRANCH   1   2
BRANCH   1  21
ATOM     19  C   UNL     1      47.172   3.906  14.955  0.00  0.00    +0.000 C 
ATOM     20  O   UNL     1      47.756   2.851  14.754  0.00  0.00    +0.000 OA
ATOM     21  N   UNL     1      46.923   4.387  16.221  0.00  0.00    +0.000 N 
ATOM     22  H   UNL     1      46.436   5.269  16.333  0.00  0.00    +0.000 HD
BRANCH  19  30
ATOM     23  N   UNL     1      43.321   2.180  11.555  0.00  0.00    +0.000 N 
ATOM     24  C   UNL     1      44.108   3.289  11.721  0.00  0.00    +0.000 A 
ATOM     25  N   UNL     1      43.931   4.310  10.850  0.00  0.00    +0.000 NA
ATOM     26  N   UNL     1      44.631   5.429  10.958  0.00  0.00    +0.000 NA
ATOM     27  C   UNL     1      45.508   5.474  11.976  0.00  0.00    +0.000 A 
ATOM     28  S   UNL     1      46.491   6.812  12.293  0.00  0.00    +0.000 S 
ATOM     29  C   UNL     1      47.200   6.023  13.636  0.00  0.00    +0.000 A 
ATOM     30  C   UNL     1      46.696   4.743  13.854  0.00  0.00    +0.000 A 
ATOM     31  C   UNL     1      45.698   4.429  12.865  0.00  0.00    +0.000 A 
ATOM     32  N   UNL     1      44.976   3.276  12.745  0.00  0.00    +0.000 NA
ATOM     33  H   UNL     1      42.740   2.148  10.733  0.00  0.00    +0.000 HD
ATOM     34  H   UNL     1      43.501   1.369  12.123  0.00  0.00    +0.000 HD
ENDBRANCH  19  30
ENDBRANCH   1  21
TORSDOF 8
ENDMDL
MODEL 5
REMARK VINA RESULT:    -6.872      1.951      2.541
REMARK INTER + INTRA:         -11.302
REMARK INTER:                 -10.210
REMARK INTRA:                  -1.092
REMARK UNBOUND:                -1.217
REMARK  Name = 
REMARK  8 active torsions:
REMARK  status: ('A' for Active; 'I' for Inactive)
REMARK    1  A    between atoms: C_8  and  C_9
REMARK    2  A    between atoms: N_11  and  C_12
REMARK    3  A    between atoms: C_12  and  C_13
REMARK    4  A    between atoms: C_16  and  N_17
REMARK    5  A    between atoms: N_17  and  C_18
REMARK    6  A    between atoms: C_18  and  C_19
REMARK    7  A    between atoms: C_19  and  C_20
REMARK    8  A    between atoms: C_20  and  N_21
REMARK                            x       y       z     vdW  Elec       q    Type
REMARK                         _______ _______ _______ _____ _____    ______ ____
ROOT
ATOM      1  C   UNL     1      49.040   7.482  15.792  0.00  0.00    +0.000 C 
ENDROOT
BRANCH   1   2
ATOM      2  C   UNL     1      48.173   7.032  14.646  0.00  0.00    +0.000 A 
ATOM      3  C   UNL     1      47.760   7.936  13.659  0.00  0.00    +0.000 A 
ATOM      4  C   UNL     1      46.978   7.506  12.584  0.00  0.00    +0.000 A 
ATOM      5  C   UNL     1      46.552   6.178  12.476  0.00  0.00    +0.000 A 
ATOM      6  C   UNL     1      46.963   5.283  13.470  0.00  0.00    +0.000 A 
ATOM      7  C   UNL     1      47.762   5.699  14.540  0.00  0.00    +0.000 A 
BRANCH   5   8
ATOM      8  N   UNL     1      45.863   5.693  11.382  0.00  0.00    +0.000 N 
ATOM      9  H   UNL     1      46.281   5.813  10.467  0.00  0.00    +0.000 HD
BRANCH   8  10
ATOM     10  C   UNL     1      44.731   4.795  11.524  0.00  0.00    +0.000 C 
BRANCH  10  11
ATOM     11  C   UNL     1      44.325   4.285  10.143  0.00  0.00    +0.000 C 
BRANCH  11  12
ATOM     12  C   UNL     1      44.795   2.846   9.900  0.00  0.00    +0.000 C 
BRANCH  12  13
ATOM     13  N   UNL     1      45.844   2.734   8.871  0.00  0.00    +0.000 NA
ATOM     14  C   UNL     1      45.950   1.360   8.354  0.00  0.00    +0.000 C 
ATOM     15  C   UNL     1      47.080   1.226   7.339  0.00  0.00    +0.000 C 
ATOM     16  C   UNL     1      46.902   2.206   6.191  0.00  0.00    +0.000 C 
ATOM     17  C   UNL     1      46.723   3.622   6.728  0.00  0.00    +0.000 C 
ATOM     18  C   UNL     1      45.604   3.684   7.772  0.00  0.00    +0.000 C 
ENDBRANCH  12  13
ENDBRANCH  11  12
ENDBRANCH  10  11
ENDBRANCH   8  10
ENDBRANCH   5   8
ENDBRANCH   1   2
BRANCH   1  21
ATOM     19  C   UNL     1      50.625   6.563  17.435  0.00  0.00    +0.000 C 
ATOM     20  O   UNL     1      50.609   7.587  18.103  0.00  0.00    +0.000 OA
ATOM     21  N   UNL     1      49.886   6.418  16.282  0.00  0.00    +0.000 N 
ATOM     22  H   UNL     1      49.935   5.547  15.764  0.00  0.00    +0.000 HD
BRANCH  19  30
ATOM     23  N   UNL     1      49.146   1.511  16.147  0.00  0.00    +0.000 N 
ATOM     24  C   UNL     1      50.164   2.131  16.822  0.00  0.00    +0.000 A 
ATOM     25  N   UNL     1      51.141   1.343  17.330  0.00  0.00    +0.000 NA
ATOM     26  N   UNL     1      52.176   1.867  17.971  0.00  0.00    +0.000 NA
ATOM     27  C   UNL     1      52.182   3.207  18.075  0.00  0.00    +0.000 A 
ATOM     28  S   UNL     1      53.414   4.069  18.847  0.00  0.00    +0.000 S 
ATOM     29  C   UNL     1      52.635   5.556  18.514  0.00  0.00    +0.000 A 
ATOM     30  C   UNL     1      51.439   5.409  17.816  0.00  0.00    +0.000 A 
ATOM     31  C   UNL     1      51.182   4.016  17.563  0.00  0.00    +0.000 A 
ATOM     32  N   UNL     1      50.116   3.470  16.908  0.00  0.00    +0.000 NA
ATOM     33  H   UNL     1      49.131   0.504  16.165  0.00  0.00    +0.000 HD
ATOM     34  H   UNL     1      48.357   2.060  15.848  0.00  0.00    +0.000 HD
ENDBRANCH  19  30
ENDBRANCH   1  21
TORSDOF 8
ENDMDL
MODEL 6
REMARK VINA RESULT:    -6.668      3.397      9.130
REMARK INTER + INTRA:         -11.004
REMARK INTER:                  -8.917
REMARK INTRA:                  -2.087
REMARK UNBOUND:                -1.217
REMARK  Name = 
REMARK  8 active torsions:
REMARK  status: ('A' for Active; 'I' for Inactive)
REMARK    1  A    between atoms: C_8  and  C_9
REMARK    2  A    between atoms: N_11  and  C_12
REMARK    3  A    between atoms: C_12  and  C_13
REMARK    4  A    between atoms: C_16  and  N_17
REMARK    5  A    between atoms: N_17  and  C_18
REMARK    6  A    between atoms: C_18  and  C_19
REMARK    7  A    between atoms: C_19  and  C_20
REMARK    8  A    between atoms: C_20  and  N_21
REMARK                            x       y       z     vdW  Elec       q    Type
REMARK                         _______ _______ _______ _____ _____    ______ ____
ROOT
ATOM      1  C   UNL     1      47.288   3.571  17.456  0.00  0.00    +0.000 C 
ENDROOT
BRANCH   1   2
ATOM      2  C   UNL     1      48.579   4.058  18.060  0.00  0.00    +0.000 A 
ATOM      3  C   UNL     1      48.577   4.895  19.183  0.00  0.00    +0.000 A 
ATOM      4  C   UNL     1      49.780   5.320  19.754  0.00  0.00    +0.000 A 
ATOM      5  C   UNL     1      51.015   4.959  19.208  0.00  0.00    +0.000 A 
ATOM      6  C   UNL     1      51.009   4.128  18.082  0.00  0.00    +0.000 A 
ATOM      7  C   UNL     1      49.811   3.681  17.514  0.00  0.00    +0.000 A 
BRANCH   5   8
ATOM      8  N   UNL     1      52.223   5.276  19.798  0.00  0.00    +0.000 N 
ATOM      9  H   UNL     1      52.502   4.753  20.619  0.00  0.00    +0.000 HD
BRANCH   8  10
ATOM     10  C   UNL     1      53.205   6.114  19.134  0.00  0.00    +0.000 C 
BRANCH  10  11
ATOM     11  C   UNL     1      52.765   7.572  19.237  0.00  0.00    +0.000 C 
BRANCH  11  12
ATOM     12  C   UNL     1      52.856   8.298  17.889  0.00  0.00    +0.000 C 
BRANCH  12  13
ATOM     13  N   UNL     1      51.573   8.361  17.166  0.00  0.00    +0.000 NA
ATOM     14  C   UNL     1      51.400   7.206  16.270  0.00  0.00    +0.000 C 
ATOM     15  C   UNL     1      50.105   7.304  15.471  0.00  0.00    +0.000 C 
ATOM     16  C   UNL     1      48.904   7.439  16.391  0.00  0.00    +0.000 C 
ATOM     17  C   UNL     1      49.111   8.592  17.366  0.00  0.00    +0.000 C 
ATOM     18  C   UNL     1      50.445   8.461  18.108  0.00  0.00    +0.000 C 
ENDBRANCH  12  13
ENDBRANCH  11  12
ENDBRANCH  10  11
ENDBRANCH   8  10
ENDBRANCH   5   8
ENDBRANCH   1   2
BRANCH   1  21
ATOM     19  C   UNL     1      47.208   3.798  15.008  0.00  0.00    +0.000 C 
ATOM     20  O   UNL     1      47.753   2.718  14.836  0.00  0.00    +0.000 OA
ATOM     21  N   UNL     1      46.939   4.302  16.261  0.00  0.00    +0.000 N 
ATOM     22  H   UNL     1      46.485   5.205  16.349  0.00  0.00    +0.000 HD
BRANCH  19  30
ATOM     23  N   UNL     1      43.340   2.236  11.549  0.00  0.00    +0.000 N 
ATOM     24  C   UNL     1      44.184   3.301  11.716  0.00  0.00    +0.000 A 
ATOM     25  N   UNL     1      44.083   4.317  10.826  0.00  0.00    +0.000 NA
ATOM     26  N   UNL     1      44.843   5.397  10.933  0.00  0.00    +0.000 NA
ATOM     27  C   UNL     1      45.700   5.408  11.969  0.00  0.00    +0.000 A 
ATOM     28  S   UNL     1      46.749   6.694  12.288  0.00  0.00    +0.000 S 
ATOM     29  C   UNL     1      47.383   5.889  13.658  0.00  0.00    +0.000 A 
ATOM     30  C   UNL     1      46.803   4.643  13.884  0.00  0.00    +0.000 A 
ATOM     31  C   UNL     1      45.811   4.369  12.878  0.00  0.00    +0.000 A 
ATOM     32  N   UNL     1      45.028   3.257  12.759  0.00  0.00    +0.000 NA
ATOM     33  H   UNL     1      42.775   2.224  10.715  0.00  0.00    +0.000 HD
ATOM     34  H   UNL     1      43.462   1.425  12.133  0.00  0.00    +0.000 HD
ENDBRANCH  19  30
ENDBRANCH   1  21
TORSDOF 8
ENDMDL
MODEL 7
REMARK VINA RESULT:    -6.254      4.022      9.832
REMARK INTER + INTRA:         -10.396
REMARK INTER:                  -8.848
REMARK INTRA:                  -1.549
REMARK UNBOUND:                -1.217
REMARK  Name = 
REMARK  8 active torsions:
REMARK  status: ('A' for Active; 'I' for Inactive)
REMARK    1  A    between atoms: C_8  and  C_9
REMARK    2  A    between atoms: N_11  and  C_12
REMARK    3  A    between atoms: C_12  and  C_13
REMARK    4  A    between atoms: C_16  and  N_17
REMARK    5  A    between atoms: N_17  and  C_18
REMARK    6  A    between atoms: C_18  and  C_19
REMARK    7  A    between atoms: C_19  and  C_20
REMARK    8  A    between atoms: C_20  and  N_21
REMARK                            x       y       z     vdW  Elec       q    Type
REMARK                         _______ _______ _______ _____ _____    ______ ____
ROOT
ATOM      1  C   UNL     1      47.242   3.522  16.975  0.00  0.00    +0.000 C 
ENDROOT
BRANCH   1   2
ATOM      2  C   UNL     1      48.690   3.382  17.365  0.00  0.00    +0.000 A 
ATOM      3  C   UNL     1      49.322   4.357  18.147  0.00  0.00    +0.000 A 
ATOM      4  C   UNL     1      50.658   4.206  18.529  0.00  0.00    +0.000 A 
ATOM      5  C   UNL     1      51.415   3.106  18.116  0.00  0.00    +0.000 A 
ATOM      6  C   UNL     1      50.779   2.139  17.329  0.00  0.00    +0.000 A 
ATOM      7  C   UNL     1      49.436   2.271  16.958  0.00  0.00    +0.000 A 
BRANCH   5   8
ATOM      8  N   UNL     1      52.705   2.871  18.551  0.00  0.00    +0.000 N 
ATOM      9  H   UNL     1      52.829   2.474  19.474  0.00  0.00    +0.000 HD
BRANCH   8  10
ATOM     10  C   UNL     1      53.839   2.910  17.645  0.00  0.00    +0.000 C 
BRANCH  10  11
ATOM     11  C   UNL     1      54.311   4.354  17.502  0.00  0.00    +0.000 C 
BRANCH  11  12
ATOM     12  C   UNL     1      54.733   4.959  18.847  0.00  0.00    +0.000 C 
BRANCH  12  13
ATOM     13  N   UNL     1      54.042   6.220  19.169  0.00  0.00    +0.000 NA
ATOM     14  C   UNL     1      53.248   6.707  18.029  0.00  0.00    +0.000 C 
ATOM     15  C   UNL     1      52.588   8.047  18.335  0.00  0.00    +0.000 C 
ATOM     16  C   UNL     1      51.719   7.956  19.579  0.00  0.00    +0.000 C 
ATOM     17  C   UNL     1      52.521   7.386  20.743  0.00  0.00    +0.000 C 
ATOM     18  C   UNL     1      53.194   6.064  20.362  0.00  0.00    +0.000 C 
ENDBRANCH  12  13
ENDBRANCH  11  12
ENDBRANCH  10  11
ENDBRANCH   8  10
ENDBRANCH   5   8
ENDBRANCH   1   2
BRANCH   1  21
ATOM     19  C   UNL     1      47.071   4.284  14.643  0.00  0.00    +0.000 C 
ATOM     20  O   UNL     1      47.262   3.159  14.205  0.00  0.00    +0.000 OA
ATOM     21  N   UNL     1      47.044   4.561  15.991  0.00  0.00    +0.000 N 
ATOM     22  H   UNL     1      46.882   5.512  16.302  0.00  0.00    +0.000 HD
BRANCH  19  30
ATOM     23  N   UNL     1      42.394   4.973  11.991  0.00  0.00    +0.000 N 
ATOM     24  C   UNL     1      43.607   5.601  12.093  0.00  0.00    +0.000 A 
ATOM     25  N   UNL     1      43.775   6.743  11.384  0.00  0.00    +0.000 NA
ATOM     26  N   UNL     1      44.907   7.427  11.450  0.00  0.00    +0.000 NA
ATOM     27  C   UNL     1      45.853   6.916  12.256  0.00  0.00    +0.000 A 
ATOM     28  S   UNL     1      47.364   7.639  12.485  0.00  0.00    +0.000 S 
ATOM     29  C   UNL     1      47.839   6.397  13.562  0.00  0.00    +0.000 A 
ATOM     30  C   UNL     1      46.858   5.428  13.756  0.00  0.00    +0.000 A 
ATOM     31  C   UNL     1      45.689   5.745  12.977  0.00  0.00    +0.000 A 
ATOM     32  N   UNL     1      44.521   5.042  12.901  0.00  0.00    +0.000 NA
ATOM     33  H   UNL     1      41.745   5.337  11.313  0.00  0.00    +0.000 HD
ATOM     34  H   UNL     1      42.277   4.072  12.425  0.00  0.00    +0.000 HD
ENDBRANCH  19  30
ENDBRANCH   1  21
TORSDOF 8
ENDMDL
MODEL 8
REMARK VINA RESULT:    -6.098      3.086      8.671
REMARK INTER + INTRA:         -10.167
REMARK INTER:                  -8.969
REMARK INTRA:                  -1.198
REMARK UNBOUND:                -1.217
REMARK  Name = 
REMARK  8 active torsions:
REMARK  status: ('A' for Active; 'I' for Inactive)
REMARK    1  A    between atoms: C_8  and  C_9
REMARK    2  A    between atoms: N_11  and  C_12
REMARK    3  A    between atoms: C_12  and  C_13
REMARK    4  A    between atoms: C_16  and  N_17
REMARK    5  A    between atoms: N_17  and  C_18
REMARK    6  A    between atoms: C_18  and  C_19
REMARK    7  A    between atoms: C_19  and  C_20
REMARK    8  A    between atoms: C_20  and  N_21
REMARK                            x       y       z     vdW  Elec       q    Type
REMARK                         _______ _______ _______ _____ _____    ______ ____
ROOT
ATOM      1  C   UNL     1      45.780   8.012  11.819  0.00  0.00    +0.000 C 
ENDROOT
BRANCH   1   2
ATOM      2  C   UNL     1      47.108   8.072  12.527  0.00  0.00    +0.000 A 
ATOM      3  C   UNL     1      47.587   6.971  13.249  0.00  0.00    +0.000 A 
ATOM      4  C   UNL     1      48.833   7.023  13.880  0.00  0.00    +0.000 A 
ATOM      5  C   UNL     1      49.620   8.178  13.846  0.00  0.00    +0.000 A 
ATOM      6  C   UNL     1      49.132   9.276  13.129  0.00  0.00    +0.000 A 
ATOM      7  C   UNL     1      47.895   9.227  12.477  0.00  0.00    +0.000 A 
BRANCH   5   8
ATOM      8  N   UNL     1      50.896   8.238  14.373  0.00  0.00    +0.000 N 
ATOM      9  H   UNL     1      51.428   9.086  14.231  0.00  0.00    +0.000 HD
BRANCH   8  10
ATOM     10  C   UNL     1      51.375   7.262  15.335  0.00  0.00    +0.000 C 
BRANCH  10  11
ATOM     11  C   UNL     1      50.554   7.384  16.617  0.00  0.00    +0.000 C 
BRANCH  11  12
ATOM     12  C   UNL     1      50.623   6.110  17.469  0.00  0.00    +0.000 C 
BRANCH  12  13
ATOM     13  N   UNL     1      49.737   5.034  16.992  0.00  0.00    +0.000 NA
ATOM     14  C   UNL     1      50.048   3.750  17.643  0.00  0.00    +0.000 C 
ATOM     15  C   UNL     1      49.178   2.620  17.101  0.00  0.00    +0.000 C 
ATOM     16  C   UNL     1      47.702   2.945  17.259  0.00  0.00    +0.000 C 
ATOM     17  C   UNL     1      47.391   4.305  16.646  0.00  0.00    +0.000 C 
ATOM     18  C   UNL     1      48.323   5.390  17.197  0.00  0.00    +0.000 C 
ENDBRANCH  12  13
ENDBRANCH  11  12
ENDBRANCH  10  11
ENDBRANCH   8  10
ENDBRANCH   5   8
ENDBRANCH   1   2
BRANCH   1  21
ATOM     19  C   UNL     1      44.570   5.890  12.108  0.00  0.00    +0.000 C 
ATOM     20  O   UNL     1      44.022   6.280  13.129  0.00  0.00    +0.000 OA
ATOM     21  N   UNL     1      45.451   6.672  11.395  0.00  0.00    +0.000 N 
ATOM     22  H   UNL     1      45.880   6.300  10.554  0.00  0.00    +0.000 HD
BRANCH  19  30
ATOM     23  N   UNL     1      46.658   4.341   7.353  0.00  0.00    +0.000 N 
ATOM     24  C   UNL     1      45.853   3.816   8.329  0.00  0.00    +0.000 A 
ATOM     25  N   UNL     1      45.424   2.543   8.160  0.00  0.00    +0.000 NA
ATOM     26  N   UNL     1      44.666   1.951   9.071  0.00  0.00    +0.000 NA
ATOM     27  C   UNL     1      44.365   2.692  10.151  0.00  0.00    +0.000 A 
ATOM     28  S   UNL     1      43.419   2.121  11.430  0.00  0.00    +0.000 S 
ATOM     29  C   UNL     1      43.562   3.613  12.254  0.00  0.00    +0.000 A 
ATOM     30  C   UNL     1      44.328   4.552  11.568  0.00  0.00    +0.000 A 
ATOM     31  C   UNL     1      44.795   3.996  10.325  0.00  0.00    +0.000 A 
ATOM     32  N   UNL     1      45.572   4.602   9.380  0.00  0.00    +0.000 NA
ATOM     33  H   UNL     1      46.790   3.789   6.521  0.00  0.00    +0.000 HD
ATOM     34  H   UNL     1      46.907   5.315   7.402  0.00  0.00    +0.000 HD
ENDBRANCH  19  30
ENDBRANCH   1  21
TORSDOF 8
ENDMDL
MODEL 9
REMARK VINA RESULT:    -6.036      4.010     10.428
REMARK INTER + INTRA:         -10.076
REMARK INTER:                  -8.888
REMARK INTRA:                  -1.188
REMARK UNBOUND:                -1.217
REMARK  Name = 
REMARK  8 active torsions:
REMARK  status: ('A' for Active; 'I' for Inactive)
REMARK    1  A    between atoms: C_8  and  C_9
REMARK    2  A    between atoms: N_11  and  C_12
REMARK    3  A    between atoms: C_12  and  C_13
REMARK    4  A    between atoms: C_16  and  N_17
REMARK    5  A    between atoms: N_17  and  C_18
REMARK    6  A    between atoms: C_18  and  C_19
REMARK    7  A    between atoms: C_19  and  C_20
REMARK    8  A    between atoms: C_20  and  N_21
REMARK                            x       y       z     vdW  Elec       q    Type
REMARK                         _______ _______ _______ _____ _____    ______ ____
ROOT
ATOM      1  C   UNL     1      47.649   4.276  16.800  0.00  0.00    +0.000 C 
ENDROOT
BRANCH   1   2
ATOM      2  C   UNL     1      48.393   5.320  17.589  0.00  0.00    +0.000 A 
ATOM      3  C   UNL     1      48.376   5.310  18.990  0.00  0.00    +0.000 A 
ATOM      4  C   UNL     1      49.092   6.266  19.716  0.00  0.00    +0.000 A 
ATOM      5  C   UNL     1      49.812   7.280  19.076  0.00  0.00    +0.000 A 
ATOM      6  C   UNL     1      49.817   7.288  17.677  0.00  0.00    +0.000 A 
ATOM      7  C   UNL     1      49.120   6.323  16.941  0.00  0.00    +0.000 A 
BRANCH   5   8
ATOM      8  N   UNL     1      50.609   8.182  19.753  0.00  0.00    +0.000 N 
ATOM      9  H   UNL     1      50.941   7.923  20.674  0.00  0.00    +0.000 HD
BRANCH   8  10
ATOM     10  C   UNL     1      51.201   9.330  19.091  0.00  0.00    +0.000 C 
BRANCH  10  11
ATOM     11  C   UNL     1      50.764  10.601  19.816  0.00  0.00    +0.000 C 
BRANCH  11  12
ATOM     12  C   UNL     1      50.114  10.297  21.172  0.00  0.00    +0.000 C 
BRANCH  12  13
ATOM     13  N   UNL     1      48.689  10.669  21.239  0.00  0.00    +0.000 NA
ATOM     14  C   UNL     1      48.228  11.270  19.977  0.00  0.00    +0.000 C 
ATOM     15  C   UNL     1      46.773  11.718  20.067  0.00  0.00    +0.000 C 
ATOM     16  C   UNL     1      45.868  10.561  20.460  0.00  0.00    +0.000 C 
ATOM     17  C   UNL     1      46.385   9.894  21.729  0.00  0.00    +0.000 C 
ATOM     18  C   UNL     1      47.860   9.505  21.593  0.00  0.00    +0.000 C 
ENDBRANCH  12  13
ENDBRANCH  11  12
ENDBRANCH  10  11
ENDBRANCH   8  10
ENDBRANCH   5   8
ENDBRANCH   1   2
BRANCH   1  21
ATOM     19  C   UNL     1      47.002   4.347  14.428  0.00  0.00    +0.000 C 
ATOM     20  O   UNL     1      47.717   3.396  14.149  0.00  0.00    +0.000 OA
ATOM     21  N   UNL     1      46.903   4.851  15.706  0.00  0.00    +0.000 N 
ATOM     22  H   UNL     1      46.295   5.643  15.884  0.00  0.00    +0.000 HD
BRANCH  19  30
ATOM     23  N   UNL     1      43.160   1.721  11.650  0.00  0.00    +0.000 N 
ATOM     24  C   UNL     1      43.701   2.979  11.696  0.00  0.00    +0.000 A 
ATOM     25  N   UNL     1      43.176   3.910  10.865  0.00  0.00    +0.000 NA
ATOM     26  N   UNL     1      43.622   5.157  10.868  0.00  0.00    +0.000 NA
ATOM     27  C   UNL     1      44.609   5.423  11.740  0.00  0.00    +0.000 A 
ATOM     28  S   UNL     1      45.311   6.951  11.907  0.00  0.00    +0.000 S 
ATOM     29  C   UNL     1      46.367   6.377  13.125  0.00  0.00    +0.000 A 
ATOM     30  C   UNL     1      46.195   5.026  13.414  0.00  0.00    +0.000 A 
ATOM     31  C   UNL     1      45.154   4.472  12.588  0.00  0.00    +0.000 A 
ATOM     32  N   UNL     1      44.693   3.187  12.576  0.00  0.00    +0.000 NA
ATOM     33  H   UNL     1      42.484   1.539  10.926  0.00  0.00    +0.000 HD
ATOM     34  H   UNL     1      43.596   0.986  12.182  0.00  0.00    +0.000 HD
ENDBRANCH  19  30
ENDBRANCH   1  21
TORSDOF 8
ENDMDL
