MODEL 1
REMARK VINA RESULT:    -8.455      0.000      0.000
REMARK INTER + INTRA:         -11.649
REMARK INTER:                 -10.926
REMARK INTRA:                  -0.723
REMARK UNBOUND:                -0.723
REMARK  Name = 
REMARK  5 active torsions:
REMARK  status: ('A' for Active; 'I' for Inactive)
REMARK    1  A    between atoms: C_2  and  C_4
REMARK    2  A    between atoms: C_8  and  O_9
REMARK    3  A    between atoms: O_9  and  C_10
REMARK    4  A    between atoms: C_10  and  C_11
REMARK    5  A    between atoms: C_16  and  C_17
REMARK                            x       y       z     vdW  Elec       q    Type
REMARK                         _______ _______ _______ _____ _____    ______ ____
ROOT
ATOM      1  C   UNL     1      43.596   4.088  10.981  0.00  0.00    +0.000 C 
ENDROOT
BRANCH   1   2
ATOM      2  C   UNL     1      44.768   4.527  11.822  0.00  0.00    +0.000 A 
ATOM      3  C   UNL     1      45.407   3.625  12.676  0.00  0.00    +0.000 A 
ATOM      4  C   UNL     1      46.538   4.027  13.371  0.00  0.00    +0.000 A 
ATOM      5  F   UNL     1      47.174   3.147  14.157  0.00  0.00    +0.000 F 
ATOM      6  C   UNL     1      47.053   5.313  13.233  0.00  0.00    +0.000 A 
ATOM      7  C   UNL     1      46.443   6.247  12.377  0.00  0.00    +0.000 A 
ATOM      8  C   UNL     1      45.274   5.835  11.705  0.00  0.00    +0.000 A 
BRANCH   7   9
ATOM      9  C   UNL     1      47.053   7.570  12.109  0.00  0.00    +0.000 A 
ATOM     10  C   UNL     1      46.301   8.752  12.258  0.00  0.00    +0.000 A 
ATOM     11  C   UNL     1      46.878  10.014  12.097  0.00  0.00    +0.000 A 
ATOM     12  C   UNL     1      48.228  10.127  11.787  0.00  0.00    +0.000 A 
ATOM     13  C   UNL     1      48.995   8.978  11.619  0.00  0.00    +0.000 A 
ATOM     14  C   UNL     1      48.411   7.714  11.770  0.00  0.00    +0.000 A 
ENDBRANCH   7   9
ENDBRANCH   1   2
BRANCH   1  15
ATOM     15  O   UNL     1      43.929   2.903  10.260  0.00  0.00    +0.000 OA
BRANCH  15  20
ATOM     16  C   UNL     1      46.374   1.890   7.769  0.00  0.00    +0.000 A 
ATOM     17  C   UNL     1      46.755   3.110   7.202  0.00  0.00    +0.000 A 
ATOM     18  C   UNL     1      46.177   4.296   7.646  0.00  0.00    +0.000 A 
ATOM     19  C   UNL     1      45.222   4.268   8.666  0.00  0.00    +0.000 A 
ATOM     20  C   UNL     1      44.847   3.055   9.252  0.00  0.00    +0.000 A 
ATOM     21  C   UNL     1      45.431   1.869   8.806  0.00  0.00    +0.000 A 
BRANCH  16  23
ATOM     22  N   UNL     1      47.662   0.731   6.061  0.00  0.00    +0.000 N 
ATOM     23  C   UNL     1      47.001   0.648   7.253  0.00  0.00    +0.000 C 
ATOM     24  O   UNL     1      46.973  -0.400   7.887  0.00  0.00    +0.000 OA
ATOM     25  H   UNL     1      48.181  -0.090   5.776  0.00  0.00    +0.000 HD
ATOM     26  H   UNL     1      47.915   1.615   5.641  0.00  0.00    +0.000 HD
ENDBRANCH  16  23
ENDBRANCH  15  20
ENDBRANCH   1  15
TORSDOF 5
ENDMDL
MODEL 2
REMARK VINA RESULT:    -8.094      3.272      6.742
REMARK INTER + INTRA:         -11.183
REMARK INTER:                 -10.636
REMARK INTRA:                  -0.547
REMARK UNBOUND:                -0.723
REMARK  Name = 
REMARK  5 active torsions:
REMARK  status: ('A' for Active; 'I' for Inactive)
REMARK    1  A    between atoms: C_2  and  C_4
REMARK    2  A    between atoms: C_8  and  O_9
REMARK    3  A    between atoms: O_9  and  C_10
REMARK    4  A    between atoms: C_10  and  C_11
REMARK    5  A    between atoms: C_16  and  C_17
REMARK                            x       y       z     vdW  Elec       q    Type
REMARK                         _______ _______ _______ _____ _____    ______ ____
ROOT
ATOM      1  C   UNL     1      44.812   6.493  11.056  0.00  0.00    +0.000 C 
ENDROOT
BRANCH   1   2
ATOM      2  C   UNL     1      44.709   5.026  10.720  0.00  0.00    +0.000 A 
ATOM      3  C   UNL     1      43.819   4.201  11.409  0.00  0.00    +0.000 A 
ATOM      4  C   UNL     1      43.676   2.876  11.023  0.00  0.00    +0.000 A 
ATOM      5  F   UNL     1      42.790   2.097  11.658  0.00  0.00    +0.000 F 
ATOM      6  C   UNL     1      44.402   2.352   9.956  0.00  0.00    +0.000 A 
ATOM      7  C   UNL     1      45.302   3.153   9.232  0.00  0.00    +0.000 A 
ATOM      8  C   UNL     1      45.462   4.487   9.660  0.00  0.00    +0.000 A 
BRANCH   7   9
ATOM      9  C   UNL     1      45.977   2.656   8.011  0.00  0.00    +0.000 A 
ATOM     10  C   UNL     1      46.177   3.502   6.903  0.00  0.00    +0.000 A 
ATOM     11  C   UNL     1      46.889   3.082   5.777  0.00  0.00    +0.000 A 
ATOM     12  C   UNL     1      47.425   1.801   5.732  0.00  0.00    +0.000 A 
ATOM     13  C   UNL     1      47.234   0.936   6.806  0.00  0.00    +0.000 A 
ATOM     14  C   UNL     1      46.511   1.356   7.928  0.00  0.00    +0.000 A 
ENDBRANCH   7   9
ENDBRANCH   1   2
BRANCH   1  15
ATOM     15  O   UNL     1      46.176   6.908  11.020  0.00  0.00    +0.000 OA
BRANCH  15  20
ATOM     16  C   UNL     1      47.351   5.471  14.145  0.00  0.00    +0.000 A 
ATOM     17  C   UNL     1      48.125   6.502  14.684  0.00  0.00    +0.000 A 
ATOM     18  C   UNL     1      48.272   7.699  13.988  0.00  0.00    +0.000 A 
ATOM     19  C   UNL     1      47.639   7.873  12.754  0.00  0.00    +0.000 A 
ATOM     20  C   UNL     1      46.849   6.852  12.214  0.00  0.00    +0.000 A 
ATOM     21  C   UNL     1      46.701   5.655  12.917  0.00  0.00    +0.000 A 
BRANCH  16  23
ATOM     22  N   UNL     1      46.948   4.303  16.242  0.00  0.00    +0.000 N 
ATOM     23  C   UNL     1      47.236   4.204  14.910  0.00  0.00    +0.000 C 
ATOM     24  O   UNL     1      47.344   3.111  14.368  0.00  0.00    +0.000 OA
ATOM     25  H   UNL     1      46.759   3.436  16.727  0.00  0.00    +0.000 HD
ATOM     26  H   UNL     1      46.613   5.159  16.662  0.00  0.00    +0.000 HD
ENDBRANCH  16  23
ENDBRANCH  15  20
ENDBRANCH   1  15
TORSDOF 5
ENDMDL
MODEL 3
REMARK VINA RESULT:    -7.818      3.714      7.172
REMARK INTER + INTRA:         -10.826
REMARK INTER:                  -9.918
REMARK INTRA:                  -0.908
REMARK UNBOUND:                -0.723
REMARK  Name = 
REMARK  5 active torsions:
REMARK  status: ('A' for Active; 'I' for Inactive)
REMARK    1  A    between atoms: C_2  and  C_4
REMARK    2  A    between atoms: C_8  and  O_9
REMARK    3  A    between atoms: O_9  and  C_10
REMARK    4  A    between atoms: C_10  and  C_11
REMARK    5  A    between atoms: C_16  and  C_17
REMARK                            x       y       z     vdW  Elec       q    Type
REMARK                         _______ _______ _______ _____ _____    ______ ____
ROOT
ATOM      1  C   UNL     1      46.162   7.078  12.793  0.00  0.00    +0.000 C 
ENDROOT
BRANCH   1   2
ATOM      2  C   UNL     1      45.234   6.144  12.058  0.00  0.00    +0.000 A 
ATOM      3  C   UNL     1      43.857   6.193  12.278  0.00  0.00    +0.000 A 
ATOM      4  C   UNL     1      43.015   5.387  11.525  0.00  0.00    +0.000 A 
ATOM      5  F   UNL     1      41.690   5.467  11.708  0.00  0.00    +0.000 F 
ATOM      6  C   UNL     1      43.518   4.531  10.549  0.00  0.00    +0.000 A 
ATOM      7  C   UNL     1      44.897   4.459  10.292  0.00  0.00    +0.000 A 
ATOM      8  C   UNL     1      45.742   5.258  11.090  0.00  0.00    +0.000 A 
BRANCH   7   9
ATOM      9  C   UNL     1      45.439   3.662   9.167  0.00  0.00    +0.000 A 
ATOM     10  C   UNL     1      46.027   4.294   8.054  0.00  0.00    +0.000 A 
ATOM     11  C   UNL     1      46.623   3.561   7.024  0.00  0.00    +0.000 A 
ATOM     12  C   UNL     1      46.650   2.173   7.084  0.00  0.00    +0.000 A 
ATOM     13  C   UNL     1      46.065   1.518   8.164  0.00  0.00    +0.000 A 
ATOM     14  C   UNL     1      45.459   2.255   9.188  0.00  0.00    +0.000 A 
ENDBRANCH   7   9
ENDBRANCH   1   2
BRANCH   1  15
ATOM     15  O   UNL     1      47.449   6.480  12.932  0.00  0.00    +0.000 OA
BRANCH  15  20
ATOM     16  C   UNL     1      47.923   4.724  16.079  0.00  0.00    +0.000 A 
ATOM     17  C   UNL     1      48.644   5.649  16.839  0.00  0.00    +0.000 A 
ATOM     18  C   UNL     1      48.995   6.879  16.290  0.00  0.00    +0.000 A 
ATOM     19  C   UNL     1      48.617   7.194  14.982  0.00  0.00    +0.000 A 
ATOM     20  C   UNL     1      47.881   6.282  14.219  0.00  0.00    +0.000 A 
ATOM     21  C   UNL     1      47.528   5.051  14.774  0.00  0.00    +0.000 A 
BRANCH  16  23
ATOM     22  N   UNL     1      48.535   2.435  16.634  0.00  0.00    +0.000 N 
ATOM     23  C   UNL     1      47.586   3.416  16.695  0.00  0.00    +0.000 C 
ATOM     24  O   UNL     1      46.525   3.232  17.277  0.00  0.00    +0.000 OA
ATOM     25  H   UNL     1      48.342   1.590  17.155  0.00  0.00    +0.000 HD
ATOM     26  H   UNL     1      49.497   2.625  16.388  0.00  0.00    +0.000 HD
ENDBRANCH  16  23
ENDBRANCH  15  20
ENDBRANCH   1  15
TORSDOF 5
ENDMDL
MODEL 4
REMARK VINA RESULT:    -7.499      4.418      7.527
REMARK INTER + INTRA:         -10.414
REMARK INTER:                  -9.748
REMARK INTRA:                  -0.666
REMARK UNBOUND:                -0.723
REMARK  Name = 
REMARK  5 active torsions:
REMARK  status: ('A' for Active; 'I' for Inactive)
REMARK    1  A    between atoms: C_2  and  C_4
REMARK    2  A    between atoms: C_8  and  O_9
REMARK    3  A    between atoms: O_9  and  C_10
REMARK    4  A    between atoms: C_10  and  C_11
REMARK    5  A    between atoms: C_16  and  C_17
REMARK                            x       y       z     vdW  Elec       q    Type
REMARK                         _______ _______ _______ _____ _____    ______ ____
ROOT
ATOM      1  C   UNL     1      46.171   5.055  14.068  0.00  0.00    +0.000 C 
ENDROOT
BRANCH   1   2
ATOM      2  C   UNL     1      45.210   4.816  12.931  0.00  0.00    +0.000 A 
ATOM      3  C   UNL     1      43.906   5.312  12.986  0.00  0.00    +0.000 A 
ATOM      4  C   UNL     1      43.068   5.158  11.891  0.00  0.00    +0.000 A 
ATOM      5  F   UNL     1      41.832   5.672  11.931  0.00  0.00    +0.000 F 
ATOM      6  C   UNL     1      43.504   4.519  10.733  0.00  0.00    +0.000 A 
ATOM      7  C   UNL     1      44.811   4.014  10.635  0.00  0.00    +0.000 A 
ATOM      8  C   UNL     1      45.639   4.147  11.769  0.00  0.00    +0.000 A 
BRANCH   7   9
ATOM      9  C   UNL     1      45.337   3.458   9.366  0.00  0.00    +0.000 A 
ATOM     10  C   UNL     1      45.787   4.309   8.339  0.00  0.00    +0.000 A 
ATOM     11  C   UNL     1      46.368   3.808   7.171  0.00  0.00    +0.000 A 
ATOM     12  C   UNL     1      46.519   2.437   7.004  0.00  0.00    +0.000 A 
ATOM     13  C   UNL     1      46.072   1.568   7.995  0.00  0.00    +0.000 A 
ATOM     14  C   UNL     1      45.480   2.073   9.158  0.00  0.00    +0.000 A 
ENDBRANCH   7   9
ENDBRANCH   1   2
BRANCH   1  15
ATOM     15  O   UNL     1      46.615   3.809  14.602  0.00  0.00    +0.000 OA
BRANCH  15  20
ATOM     16  C   UNL     1      49.139   3.095  17.118  0.00  0.00    +0.000 A 
ATOM     17  C   UNL     1      48.692   3.835  18.217  0.00  0.00    +0.000 A 
ATOM     18  C   UNL     1      47.534   4.599  18.118  0.00  0.00    +0.000 A 
ATOM     19  C   UNL     1      46.811   4.621  16.922  0.00  0.00    +0.000 A 
ATOM     20  C   UNL     1      47.241   3.872  15.821  0.00  0.00    +0.000 A 
ATOM     21  C   UNL     1      48.401   3.104  15.926  0.00  0.00    +0.000 A 
BRANCH  16  23
ATOM     22  N   UNL     1      51.292   2.734  18.194  0.00  0.00    +0.000 N 
ATOM     23  C   UNL     1      50.389   2.309  17.260  0.00  0.00    +0.000 C 
ATOM     24  O   UNL     1      50.590   1.292  16.607  0.00  0.00    +0.000 OA
ATOM     25  H   UNL     1      52.084   2.128  18.362  0.00  0.00    +0.000 HD
ATOM     26  H   UNL     1      51.056   3.407  18.909  0.00  0.00    +0.000 HD
ENDBRANCH  16  23
ENDBRANCH  15  20
ENDBRANCH   1  15
TORSDOF 5
ENDMDL
MODEL 5
REMARK VINA RESULT:    -7.384      3.548      7.129
REMARK INTER + INTRA:         -10.266
REMARK INTER:                  -9.472
REMARK INTRA:                  -0.794
REMARK UNBOUND:                -0.723
REMARK  Name = 
REMARK  5 active torsions:
REMARK  status: ('A' for Active; 'I' for Inactive)
REMARK    1  A    between atoms: C_2  and  C_4
REMARK    2  A    between atoms: C_8  and  O_9
REMARK    3  A    between atoms: O_9  and  C_10
REMARK    4  A    between atoms: C_10  and  C_11
REMARK    5  A    between atoms: C_16  and  C_17
REMARK                            x       y       z     vdW  Elec       q    Type
REMARK                         _______ _______ _______ _____ _____    ______ ____
ROOT
ATOM      1  C   UNL     1      45.955   4.810  14.085  0.00  0.00    +0.000 C 
ENDROOT
BRANCH   1   2
ATOM      2  C   UNL     1      45.045   4.635  12.895  0.00  0.00    +0.000 A 
ATOM      3  C   UNL     1      43.754   5.164  12.905  0.00  0.00    +0.000 A 
ATOM      4  C   UNL     1      42.967   5.069  11.766  0.00  0.00    +0.000 A 
ATOM      5  F   UNL     1      41.743   5.615  11.764  0.00  0.00    +0.000 F 
ATOM      6  C   UNL     1      43.442   4.457  10.609  0.00  0.00    +0.000 A 
ATOM      7  C   UNL     1      44.739   3.920  10.557  0.00  0.00    +0.000 A 
ATOM      8  C   UNL     1      45.513   3.992  11.734  0.00  0.00    +0.000 A 
BRANCH   7   9
ATOM      9  C   UNL     1      45.312   3.391   9.297  0.00  0.00    +0.000 A 
ATOM     10  C   UNL     1      45.765   4.265   8.290  0.00  0.00    +0.000 A 
ATOM     11  C   UNL     1      46.388   3.792   7.133  0.00  0.00    +0.000 A 
ATOM     12  C   UNL     1      46.581   2.427   6.956  0.00  0.00    +0.000 A 
ATOM     13  C   UNL     1      46.133   1.536   7.927  0.00  0.00    +0.000 A 
ATOM     14  C   UNL     1      45.498   2.013   9.079  0.00  0.00    +0.000 A 
ENDBRANCH   7   9
ENDBRANCH   1   2
BRANCH   1  15
ATOM     15  O   UNL     1      47.280   5.107  13.647  0.00  0.00    +0.000 OA
BRANCH  15  20
ATOM     16  C   UNL     1      47.033   8.685  13.058  0.00  0.00    +0.000 A 
ATOM     17  C   UNL     1      48.184   9.177  13.681  0.00  0.00    +0.000 A 
ATOM     18  C   UNL     1      49.056   8.303  14.324  0.00  0.00    +0.000 A 
ATOM     19  C   UNL     1      48.786   6.932  14.339  0.00  0.00    +0.000 A 
ATOM     20  C   UNL     1      47.646   6.428  13.705  0.00  0.00    +0.000 A 
ATOM     21  C   UNL     1      46.776   7.307  13.058  0.00  0.00    +0.000 A 
BRANCH  16  23
ATOM     22  N   UNL     1      44.796   9.587  12.733  0.00  0.00    +0.000 N 
ATOM     23  C   UNL     1      46.120   9.653  12.401  0.00  0.00    +0.000 C 
ATOM     24  O   UNL     1      46.534  10.509  11.631  0.00  0.00    +0.000 OA
ATOM     25  H   UNL     1      44.204  10.322  12.369  0.00  0.00    +0.000 HD
ATOM     26  H   UNL     1      44.463   9.069  13.535  0.00  0.00    +0.000 HD
ENDBRANCH  16  23
ENDBRANCH  15  20
ENDBRANCH   1  15
TORSDOF 5
ENDMDL
MODEL 6
REMARK VINA RESULT:    -7.353      3.341      6.693
REMARK INTER + INTRA:         -10.224
REMARK INTER:                  -9.341
REMARK INTRA:                  -0.883
REMARK UNBOUND:                -0.723
REMARK  Name = 
REMARK  5 active torsions:
REMARK  status: ('A' for Active; 'I' for Inactive)
REMARK    1  A    between atoms: C_2  and  C_4
REMARK    2  A    between atoms: C_8  and  O_9
REMARK    3  A    between atoms: O_9  and  C_10
REMARK    4  A    between atoms: C_10  and  C_11
REMARK    5  A    between atoms: C_16  and  C_17
REMARK                            x       y       z     vdW  Elec       q    Type
REMARK                         _______ _______ _______ _____ _____    ______ ____
ROOT
ATOM      1  C   UNL     1      46.045   5.226  13.979  0.00  0.00    +0.000 C 
ENDROOT
BRANCH   1   2
ATOM      2  C   UNL     1      45.103   4.924  12.841  0.00  0.00    +0.000 A 
ATOM      3  C   UNL     1      43.786   5.385  12.868  0.00  0.00    +0.000 A 
ATOM      4  C   UNL     1      42.964   5.172  11.771  0.00  0.00    +0.000 A 
ATOM      5  F   UNL     1      41.713   5.652  11.783  0.00  0.00    +0.000 F 
ATOM      6  C   UNL     1      43.429   4.510  10.638  0.00  0.00    +0.000 A 
ATOM      7  C   UNL     1      44.751   4.039  10.568  0.00  0.00    +0.000 A 
ATOM      8  C   UNL     1      45.562   4.231  11.706  0.00  0.00    +0.000 A 
BRANCH   7   9
ATOM      9  C   UNL     1      45.305   3.457   9.324  0.00  0.00    +0.000 A 
ATOM     10  C   UNL     1      45.800   4.288   8.299  0.00  0.00    +0.000 A 
ATOM     11  C   UNL     1      46.407   3.762   7.156  0.00  0.00    +0.000 A 
ATOM     12  C   UNL     1      46.540   2.386   7.011  0.00  0.00    +0.000 A 
ATOM     13  C   UNL     1      46.049   1.538   7.999  0.00  0.00    +0.000 A 
ATOM     14  C   UNL     1      45.431   2.068   9.137  0.00  0.00    +0.000 A 
ENDBRANCH   7   9
ENDBRANCH   1   2
BRANCH   1  15
ATOM     15  O   UNL     1      47.364   5.439  13.478  0.00  0.00    +0.000 OA
BRANCH  15  20
ATOM     16  C   UNL     1      49.299   8.129  11.984  0.00  0.00    +0.000 A 
ATOM     17  C   UNL     1      48.439   9.225  12.100  0.00  0.00    +0.000 A 
ATOM     18  C   UNL     1      47.182   9.066  12.676  0.00  0.00    +0.000 A 
ATOM     19  C   UNL     1      46.782   7.812  13.146  0.00  0.00    +0.000 A 
ATOM     20  C   UNL     1      47.641   6.713  13.049  0.00  0.00    +0.000 A 
ATOM     21  C   UNL     1      48.902   6.877  12.474  0.00  0.00    +0.000 A 
BRANCH  16  23
ATOM     22  N   UNL     1      51.330   7.222  10.997  0.00  0.00    +0.000 N 
ATOM     23  C   UNL     1      50.623   8.337  11.346  0.00  0.00    +0.000 C 
ATOM     24  O   UNL     1      51.048   9.458  11.096  0.00  0.00    +0.000 OA
ATOM     25  H   UNL     1      52.175   7.375  10.462  0.00  0.00    +0.000 HD
ATOM     26  H   UNL     1      50.911   6.303  10.961  0.00  0.00    +0.000 HD
ENDBRANCH  16  23
ENDBRANCH  15  20
ENDBRANCH   1  15
TORSDOF 5
ENDMDL
MODEL 7
REMARK VINA RESULT:    -7.344      4.531      7.861
REMARK INTER + INTRA:         -10.214
REMARK INTER:                  -9.508
REMARK INTRA:                  -0.706
REMARK UNBOUND:                -0.723
REMARK  Name = 
REMARK  5 active torsions:
REMARK  status: ('A' for Active; 'I' for Inactive)
REMARK    1  A    between atoms: C_2  and  C_4
REMARK    2  A    between atoms: C_8  and  O_9
REMARK    3  A    between atoms: O_9  and  C_10
REMARK    4  A    between atoms: C_10  and  C_11
REMARK    5  A    between atoms: C_16  and  C_17
REMARK                            x       y       z     vdW  Elec       q    Type
REMARK                         _______ _______ _______ _____ _____    ______ ____
ROOT
ATOM      1  C   UNL     1      46.197   5.103  14.016  0.00  0.00    +0.000 C 
ENDROOT
BRANCH   1   2
ATOM      2  C   UNL     1      45.227   4.853  12.890  0.00  0.00    +0.000 A 
ATOM      3  C   UNL     1      43.925   5.353  12.950  0.00  0.00    +0.000 A 
ATOM      4  C   UNL     1      43.079   5.188  11.863  0.00  0.00    +0.000 A 
ATOM      5  F   UNL     1      41.844   5.706  11.906  0.00  0.00    +0.000 F 
ATOM      6  C   UNL     1      43.504   4.536  10.709  0.00  0.00    +0.000 A 
ATOM      7  C   UNL     1      44.809   4.026  10.606  0.00  0.00    +0.000 A 
ATOM      8  C   UNL     1      45.646   4.170  11.733  0.00  0.00    +0.000 A 
BRANCH   7   9
ATOM      9  C   UNL     1      45.324   3.454   9.341  0.00  0.00    +0.000 A 
ATOM     10  C   UNL     1      45.737   4.293   8.287  0.00  0.00    +0.000 A 
ATOM     11  C   UNL     1      46.307   3.778   7.120  0.00  0.00    +0.000 A 
ATOM     12  C   UNL     1      46.485   2.408   6.979  0.00  0.00    +0.000 A 
ATOM     13  C   UNL     1      46.075   1.551   7.996  0.00  0.00    +0.000 A 
ATOM     14  C   UNL     1      45.493   2.069   9.159  0.00  0.00    +0.000 A 
ENDBRANCH   7   9
ENDBRANCH   1   2
BRANCH   1  15
ATOM     15  O   UNL     1      46.365   3.917  14.790  0.00  0.00    +0.000 OA
BRANCH  15  20
ATOM     16  C   UNL     1      48.748   5.398  17.100  0.00  0.00    +0.000 A 
ATOM     17  C   UNL     1      49.394   4.278  17.631  0.00  0.00    +0.000 A 
ATOM     18  C   UNL     1      49.022   3.000  17.224  0.00  0.00    +0.000 A 
ATOM     19  C   UNL     1      48.008   2.836  16.277  0.00  0.00    +0.000 A 
ATOM     20  C   UNL     1      47.366   3.951  15.727  0.00  0.00    +0.000 A 
ATOM     21  C   UNL     1      47.745   5.231  16.135  0.00  0.00    +0.000 A 
BRANCH  16  23
ATOM     22  N   UNL     1      48.380   7.801  17.211  0.00  0.00    +0.000 N 
ATOM     23  C   UNL     1      49.162   6.742  17.575  0.00  0.00    +0.000 C 
ATOM     24  O   UNL     1      50.133   6.896  18.304  0.00  0.00    +0.000 OA
ATOM     25  H   UNL     1      48.605   8.693  17.633  0.00  0.00    +0.000 HD
ATOM     26  H   UNL     1      47.452   7.684  16.827  0.00  0.00    +0.000 HD
ENDBRANCH  16  23
ENDBRANCH  15  20
ENDBRANCH   1  15
TORSDOF 5
ENDMDL
MODEL 8
REMARK VINA RESULT:    -7.320      4.608      7.818
REMARK INTER + INTRA:         -10.182
REMARK INTER:                  -9.326
REMARK INTRA:                  -0.856
REMARK UNBOUND:                -0.723
REMARK  Name = 
REMARK  5 active torsions:
REMARK  status: ('A' for Active; 'I' for Inactive)
REMARK    1  A    between atoms: C_2  and  C_4
REMARK    2  A    between atoms: C_8  and  O_9
REMARK    3  A    between atoms: O_9  and  C_10
REMARK    4  A    between atoms: C_10  and  C_11
REMARK    5  A    between atoms: C_16  and  C_17
REMARK                            x       y       z     vdW  Elec       q    Type
REMARK                         _______ _______ _______ _____ _____    ______ ____
ROOT
ATOM      1  C   UNL     1      48.763   7.066  13.654  0.00  0.00    +0.000 C 
ENDROOT
BRANCH   1   2
ATOM      2  C   UNL     1      47.393   7.144  13.030  0.00  0.00    +0.000 A 
ATOM      3  C   UNL     1      46.624   8.304  13.146  0.00  0.00    +0.000 A 
ATOM      4  C   UNL     1      45.406   8.386  12.488  0.00  0.00    +0.000 A 
ATOM      5  F   UNL     1      44.690   9.516  12.567  0.00  0.00    +0.000 F 
ATOM      6  C   UNL     1      44.934   7.333  11.708  0.00  0.00    +0.000 A 
ATOM      7  C   UNL     1      45.682   6.153  11.559  0.00  0.00    +0.000 A 
ATOM      8  C   UNL     1      46.901   6.071  12.263  0.00  0.00    +0.000 A 
BRANCH   7   9
ATOM      9  C   UNL     1      45.266   5.081  10.625  0.00  0.00    +0.000 A 
ATOM     10  C   UNL     1      45.680   5.097   9.279  0.00  0.00    +0.000 A 
ATOM     11  C   UNL     1      45.374   4.052   8.404  0.00  0.00    +0.000 A 
ATOM     12  C   UNL     1      44.646   2.958   8.856  0.00  0.00    +0.000 A 
ATOM     13  C   UNL     1      44.210   2.918  10.177  0.00  0.00    +0.000 A 
ATOM     14  C   UNL     1      44.509   3.972  11.048  0.00  0.00    +0.000 A 
ENDBRANCH   7   9
ENDBRANCH   1   2
BRANCH   1  15
ATOM     15  O   UNL     1      48.692   7.423  15.034  0.00  0.00    +0.000 OA
BRANCH  15  20
ATOM     16  C   UNL     1      48.715   4.574  17.291  0.00  0.00    +0.000 A 
ATOM     17  C   UNL     1      50.043   4.542  17.728  0.00  0.00    +0.000 A 
ATOM     18  C   UNL     1      50.956   5.479  17.253  0.00  0.00    +0.000 A 
ATOM     19  C   UNL     1      50.544   6.458  16.345  0.00  0.00    +0.000 A 
ATOM     20  C   UNL     1      49.214   6.509  15.914  0.00  0.00    +0.000 A 
ATOM     21  C   UNL     1      48.301   5.570  16.396  0.00  0.00    +0.000 A 
BRANCH  16  23
ATOM     22  N   UNL     1      48.130   2.905  18.962  0.00  0.00    +0.000 N 
ATOM     23  C   UNL     1      47.779   3.546  17.808  0.00  0.00    +0.000 C 
ATOM     24  O   UNL     1      46.712   3.310  17.256  0.00  0.00    +0.000 OA
ATOM     25  H   UNL     1      47.435   2.291  19.366  0.00  0.00    +0.000 HD
ATOM     26  H   UNL     1      48.867   3.242  19.567  0.00  0.00    +0.000 HD
ENDBRANCH  16  23
ENDBRANCH  15  20
ENDBRANCH   1  15
TORSDOF 5
ENDMDL
MODEL 9
REMARK VINA RESULT:    -7.275      3.831      7.349
REMARK INTER + INTRA:         -10.124
REMARK INTER:                  -9.293
REMARK INTRA:                  -0.830
REMARK UNBOUND:                -0.723
REMARK  Name = 
REMARK  5 active torsions:
REMARK  status: ('A' for Active; 'I' for Inactive)
REMARK    1  A    between atoms: C_2  and  C_4
REMARK    2  A    between atoms: C_8  and  O_9
REMARK    3  A    between atoms: O_9  and  C_10
REMARK    4  A    between atoms: C_10  and  C_11
REMARK    5  A    between atoms: C_16  and  C_17
REMARK                            x       y       z     vdW  Elec       q    Type
REMARK                         _______ _______ _______ _____ _____    ______ ____
ROOT
ATOM      1  C   UNL     1      46.202   7.241  12.534  0.00  0.00    +0.000 C 
ENDROOT
BRANCH   1   2
ATOM      2  C   UNL     1      45.297   6.226  11.882  0.00  0.00    +0.000 A 
ATOM      3  C   UNL     1      43.931   6.203  12.171  0.00  0.00    +0.000 A 
ATOM      4  C   UNL     1      43.103   5.320  11.492  0.00  0.00    +0.000 A 
ATOM      5  F   UNL     1      41.787   5.330  11.740  0.00  0.00    +0.000 F 
ATOM      6  C   UNL     1      43.608   4.457  10.523  0.00  0.00    +0.000 A 
ATOM      7  C   UNL     1      44.975   4.456  10.199  0.00  0.00    +0.000 A 
ATOM      8  C   UNL     1      45.809   5.333  10.923  0.00  0.00    +0.000 A 
BRANCH   7   9
ATOM      9  C   UNL     1      45.508   3.647   9.077  0.00  0.00    +0.000 A 
ATOM     10  C   UNL     1      46.065   4.268   7.943  0.00  0.00    +0.000 A 
ATOM     11  C   UNL     1      46.653   3.527   6.914  0.00  0.00    +0.000 A 
ATOM     12  C   UNL     1      46.703   2.141   6.997  0.00  0.00    +0.000 A 
ATOM     13  C   UNL     1      46.149   1.496   8.100  0.00  0.00    +0.000 A 
ATOM     14  C   UNL     1      45.551   2.241   9.123  0.00  0.00    +0.000 A 
ENDBRANCH   7   9
ENDBRANCH   1   2
BRANCH   1  15
ATOM     15  O   UNL     1      45.446   8.380  12.941  0.00  0.00    +0.000 OA
BRANCH  15  20
ATOM     16  C   UNL     1      44.299  10.581  10.286  0.00  0.00    +0.000 A 
ATOM     17  C   UNL     1      45.307  11.549  10.235  0.00  0.00    +0.000 A 
ATOM     18  C   UNL     1      46.386  11.477  11.111  0.00  0.00    +0.000 A 
ATOM     19  C   UNL     1      46.468  10.433  12.036  0.00  0.00    +0.000 A 
ATOM     20  C   UNL     1      45.472   9.451  12.085  0.00  0.00    +0.000 A 
ATOM     21  C   UNL     1      44.394   9.524  11.202  0.00  0.00    +0.000 A 
BRANCH  16  23
ATOM     22  N   UNL     1      43.436  10.649   8.012  0.00  0.00    +0.000 N 
ATOM     23  C   UNL     1      43.156  10.706   9.348  0.00  0.00    +0.000 C 
ATOM     24  O   UNL     1      42.002  10.805   9.747  0.00  0.00    +0.000 OA
ATOM     25  H   UNL     1      42.641  10.619   7.387  0.00  0.00    +0.000 HD
ATOM     26  H   UNL     1      44.325  10.324   7.657  0.00  0.00    +0.000 HD
ENDBRANCH  16  23
ENDBRANCH  15  20
ENDBRANCH   1  15
TORSDOF 5
ENDMDL
