MODEL 1
REMARK VINA RESULT:    -7.414      0.000      0.000
REMARK INTER + INTRA:         -11.475
REMARK INTER:                 -10.448
REMARK INTRA:                  -1.027
REMARK UNBOUND:                -1.027
REMARK  Name = 
REMARK  7 active torsions:
REMARK  status: ('A' for Active; 'I' for Inactive)
REMARK    1  A    between atoms: C_2  and  C_20
REMARK    2  A    between atoms: N_3  and  C_4
REMARK    3  A    between atoms: C_4  and  C_5
REMARK    4  A    between atoms: C_8  and  C_9
REMARK    5  A    between atoms: C_9  and  N_10
REMARK    6  A    between atoms: N_10  and  C_11
REMARK    7  A    between atoms: C_11  and  C_12
REMARK                            x       y       z     vdW  Elec       q    Type
REMARK                         _______ _______ _______ _____ _____    ______ ____
ROOT
ATOM      1  C   UNL     1      45.996   6.085  12.137  0.00  0.00    +0.000 A 
ATOM      2  C   UNL     1      45.749   4.909  12.848  0.00  0.00    +0.000 A 
ATOM      3  C   UNL     1      45.157   3.823  12.204  0.00  0.00    +0.000 A 
ATOM      4  C   UNL     1      44.816   3.951  10.862  0.00  0.00    +0.000 A 
ATOM      5  N   UNL     1      44.978   5.111  10.173  0.00  0.00    +0.000 NA
ATOM      6  C   UNL     1      45.567   6.138  10.818  0.00  0.00    +0.000 A 
ENDROOT
BRANCH   1   7
ATOM      7  C   UNL     1      46.672   7.269  12.761  0.00  0.00    +0.000 C 
BRANCH   7  10
ATOM      8  O   UNL     1      49.261   6.502  13.544  0.00  0.00    +0.000 OA
ATOM      9  C   UNL     1      48.401   6.658  14.405  0.00  0.00    +0.000 C 
ATOM     10  N   UNL     1      47.108   6.979  14.103  0.00  0.00    +0.000 N 
ATOM     11  H   UNL     1      46.491   7.299  14.842  0.00  0.00    +0.000 HD
BRANCH   9  12
ATOM     12  C   UNL     1      48.689   6.451  15.828  0.00  0.00    +0.000 A 
ATOM     13  C   UNL     1      49.203   7.489  16.592  0.00  0.00    +0.000 A 
ATOM     14  S   UNL     1      49.497   7.057  18.216  0.00  0.00    +0.000 S 
ATOM     15  C   UNL     1      48.904   5.482  17.963  0.00  0.00    +0.000 A 
ATOM     16  N   UNL     1      48.848   4.581  18.981  0.00  0.00    +0.000 NA
ATOM     17  C   UNL     1      48.335   3.442  18.656  0.00  0.00    +0.000 A 
ATOM     18  N   UNL     1      47.888   3.114  17.404  0.00  0.00    +0.000 N 
ATOM     19  C   UNL     1      47.996   3.963  16.329  0.00  0.00    +0.000 A 
ATOM     20  O   UNL     1      47.707   3.591  15.198  0.00  0.00    +0.000 OA
ATOM     21  C   UNL     1      48.516   5.279  16.653  0.00  0.00    +0.000 A 
ATOM     22  H   UNL     1      47.528   2.190  17.207  0.00  0.00    +0.000 HD
ENDBRANCH   9  12
ENDBRANCH   7  10
ENDBRANCH   1   7
BRANCH   4  23
ATOM     23  C   UNL     1      44.235   2.770  10.105  0.00  0.00    +0.000 C 
BRANCH  23  24
ATOM     24  N   UNL     1      44.381   2.867   8.643  0.00  0.00    +0.000 NA
ATOM     25  H   UNL     1      44.941   3.707   8.476  0.00  0.00    +0.000 HD
BRANCH  24  26
ATOM     26  C   UNL     1      45.126   1.729   8.073  0.00  0.00    +0.000 C 
BRANCH  26  27
ATOM     27  C   UNL     1      46.627   2.084   7.994  0.00  0.00    +0.000 C 
ATOM     28  C   UNL     1      46.871   3.405   7.247  0.00  0.00    +0.000 C 
ATOM     29  C   UNL     1      46.599   3.244   5.753  0.00  0.00    +0.000 C 
ATOM     30  C   UNL     1      47.398   2.079   5.171  0.00  0.00    +0.000 C 
ATOM     31  N   UNL     1      47.164   0.827   5.894  0.00  0.00    +0.000 NA
ATOM     32  C   UNL     1      47.452   0.971   7.324  0.00  0.00    +0.000 C 
ATOM     33  H   UNL     1      47.769   0.104   5.505  0.00  0.00    +0.000 HD
ENDBRANCH  26  27
ENDBRANCH  24  26
ENDBRANCH  23  24
ENDBRANCH   4  23
TORSDOF 7
ENDMDL
MODEL 2
REMARK VINA RESULT:    -7.271      2.979      8.673
REMARK INTER + INTRA:         -11.273
REMARK INTER:                  -9.671
REMARK INTRA:                  -1.603
REMARK UNBOUND:                -1.027
REMARK  Name = 
REMARK  7 active torsions:
REMARK  status: ('A' for Active; 'I' for Inactive)
REMARK    1  A    between atoms: C_2  and  C_20
REMARK    2  A    between atoms: N_3  and  C_4
REMARK    3  A    between atoms: C_4  and  C_5
REMARK    4  A    between atoms: C_8  and  C_9
REMARK    5  A    between atoms: C_9  and  N_10
REMARK    6  A    between atoms: N_10  and  C_11
REMARK    7  A    between atoms: C_11  and  C_12
REMARK                            x       y       z     vdW  Elec       q    Type
REMARK                         _______ _______ _______ _____ _____    ______ ____
ROOT
ATOM      1  C   UNL     1      48.618   7.569  12.997  0.00  0.00    +0.000 A 
ATOM      2  C   UNL     1      49.762   8.361  13.117  0.00  0.00    +0.000 A 
ATOM      3  C   UNL     1      50.605   8.195  14.216  0.00  0.00    +0.000 A 
ATOM      4  C   UNL     1      50.270   7.244  15.173  0.00  0.00    +0.000 A 
ATOM      5  N   UNL     1      49.123   6.517  15.113  0.00  0.00    +0.000 NA
ATOM      6  C   UNL     1      48.336   6.688  14.031  0.00  0.00    +0.000 A 
ENDROOT
BRANCH   1   7
ATOM      7  C   UNL     1      47.700   7.667  11.816  0.00  0.00    +0.000 C 
BRANCH   7  10
ATOM      8  O   UNL     1      44.930   7.379  12.197  0.00  0.00    +0.000 OA
ATOM      9  C   UNL     1      45.578   6.416  11.804  0.00  0.00    +0.000 C 
ATOM     10  N   UNL     1      46.935   6.459  11.642  0.00  0.00    +0.000 N 
ATOM     11  H   UNL     1      47.396   5.718  11.123  0.00  0.00    +0.000 HD
BRANCH   9  12
ATOM     12  C   UNL     1      44.946   5.121  11.531  0.00  0.00    +0.000 A 
ATOM     13  C   UNL     1      44.208   4.485  12.518  0.00  0.00    +0.000 A 
ATOM     14  S   UNL     1      43.569   2.981  12.028  0.00  0.00    +0.000 S 
ATOM     15  C   UNL     1      44.220   3.152  10.464  0.00  0.00    +0.000 A 
ATOM     16  N   UNL     1      44.013   2.203   9.511  0.00  0.00    +0.000 NA
ATOM     17  C   UNL     1      44.526   2.485   8.360  0.00  0.00    +0.000 A 
ATOM     18  N   UNL     1      45.240   3.619   8.078  0.00  0.00    +0.000 N 
ATOM     19  C   UNL     1      45.538   4.566   9.028  0.00  0.00    +0.000 A 
ATOM     20  O   UNL     1      46.288   5.501   8.775  0.00  0.00    +0.000 OA
ATOM     21  C   UNL     1      44.938   4.324  10.327  0.00  0.00    +0.000 A 
ATOM     22  H   UNL     1      45.645   3.763   7.164  0.00  0.00    +0.000 HD
ENDBRANCH   9  12
ENDBRANCH   7  10
ENDBRANCH   1   7
BRANCH   4  23
ATOM     23  C   UNL     1      51.196   6.982  16.347  0.00  0.00    +0.000 C 
BRANCH  23  24
ATOM     24  N   UNL     1      50.542   6.321  17.489  0.00  0.00    +0.000 NA
ATOM     25  H   UNL     1      49.542   6.516  17.387  0.00  0.00    +0.000 HD
BRANCH  24  26
ATOM     26  C   UNL     1      50.703   4.855  17.462  0.00  0.00    +0.000 C 
BRANCH  26  27
ATOM     27  C   UNL     1      49.666   4.207  18.405  0.00  0.00    +0.000 C 
ATOM     28  C   UNL     1      49.124   2.882  17.846  0.00  0.00    +0.000 C 
ATOM     29  C   UNL     1      48.214   3.129  16.645  0.00  0.00    +0.000 C 
ATOM     30  C   UNL     1      47.106   4.122  16.991  0.00  0.00    +0.000 C 
ATOM     31  N   UNL     1      47.632   5.378  17.530  0.00  0.00    +0.000 NA
ATOM     32  C   UNL     1      48.483   5.146  18.700  0.00  0.00    +0.000 C 
ATOM     33  H   UNL     1      46.849   5.974  17.802  0.00  0.00    +0.000 HD
ENDBRANCH  26  27
ENDBRANCH  24  26
ENDBRANCH  23  24
ENDBRANCH   4  23
TORSDOF 7
ENDMDL
MODEL 3
REMARK VINA RESULT:    -7.235      3.485      8.331
REMARK INTER + INTRA:         -11.222
REMARK INTER:                  -9.585
REMARK INTRA:                  -1.637
REMARK UNBOUND:                -1.027
REMARK  Name = 
REMARK  7 active torsions:
REMARK  status: ('A' for Active; 'I' for Inactive)
REMARK    1  A    between atoms: C_2  and  C_20
REMARK    2  A    between atoms: N_3  and  C_4
REMARK    3  A    between atoms: C_4  and  C_5
REMARK    4  A    between atoms: C_8  and  C_9
REMARK    5  A    between atoms: C_9  and  N_10
REMARK    6  A    between atoms: N_10  and  C_11
REMARK    7  A    between atoms: C_11  and  C_12
REMARK                            x       y       z     vdW  Elec       q    Type
REMARK                         _______ _______ _______ _____ _____    ______ ____
ROOT
ATOM      1  C   UNL     1      49.115   7.747  13.132  0.00  0.00    +0.000 A 
ATOM      2  C   UNL     1      50.333   8.331  13.486  0.00  0.00    +0.000 A 
ATOM      3  C   UNL     1      50.953   7.965  14.681  0.00  0.00    +0.000 A 
ATOM      4  C   UNL     1      50.325   7.030  15.496  0.00  0.00    +0.000 A 
ATOM      5  N   UNL     1      49.104   6.508  15.207  0.00  0.00    +0.000 NA
ATOM      6  C   UNL     1      48.537   6.868  14.037  0.00  0.00    +0.000 A 
ENDROOT
BRANCH   1   7
ATOM      7  C   UNL     1      48.424   8.063  11.839  0.00  0.00    +0.000 C 
BRANCH   7  10
ATOM      8  O   UNL     1      45.620   7.859  11.806  0.00  0.00    +0.000 OA
ATOM      9  C   UNL     1      46.288   6.942  11.341  0.00  0.00    +0.000 C 
ATOM     10  N   UNL     1      47.655   6.942  11.365  0.00  0.00    +0.000 N 
ATOM     11  H   UNL     1      48.161   6.274  10.792  0.00  0.00    +0.000 HD
BRANCH   9  12
ATOM     12  C   UNL     1      45.662   5.743  10.772  0.00  0.00    +0.000 A 
ATOM     13  C   UNL     1      45.841   5.435   9.432  0.00  0.00    +0.000 A 
ATOM     14  S   UNL     1      45.020   4.020   8.945  0.00  0.00    +0.000 S 
ATOM     15  C   UNL     1      44.435   3.750  10.521  0.00  0.00    +0.000 A 
ATOM     16  N   UNL     1      43.668   2.663  10.807  0.00  0.00    +0.000 NA
ATOM     17  C   UNL     1      43.334   2.562  12.050  0.00  0.00    +0.000 A 
ATOM     18  N   UNL     1      43.681   3.454  13.029  0.00  0.00    +0.000 N 
ATOM     19  C   UNL     1      44.388   4.604  12.772  0.00  0.00    +0.000 A 
ATOM     20  O   UNL     1      44.567   5.444  13.645  0.00  0.00    +0.000 OA
ATOM     21  C   UNL     1      44.835   4.739  11.398  0.00  0.00    +0.000 A 
ATOM     22  H   UNL     1      43.357   3.335  13.979  0.00  0.00    +0.000 HD
ENDBRANCH   9  12
ENDBRANCH   7  10
ENDBRANCH   1   7
BRANCH   4  23
ATOM     23  C   UNL     1      50.999   6.552  16.770  0.00  0.00    +0.000 C 
BRANCH  23  24
ATOM     24  N   UNL     1      50.060   6.099  17.810  0.00  0.00    +0.000 NA
ATOM     25  H   UNL     1      49.127   6.188  17.398  0.00  0.00    +0.000 HD
BRANCH  24  26
ATOM     26  C   UNL     1      50.246   4.678  18.160  0.00  0.00    +0.000 C 
BRANCH  26  27
ATOM     27  C   UNL     1      48.928   4.113  18.734  0.00  0.00    +0.000 C 
ATOM     28  C   UNL     1      48.563   2.754  18.117  0.00  0.00    +0.000 C 
ATOM     29  C   UNL     1      48.124   2.916  16.663  0.00  0.00    +0.000 C 
ATOM     30  C   UNL     1      47.000   3.943  16.540  0.00  0.00    +0.000 C 
ATOM     31  N   UNL     1      47.355   5.232  17.137  0.00  0.00    +0.000 NA
ATOM     32  C   UNL     1      47.749   5.083  18.541  0.00  0.00    +0.000 C 
ATOM     33  H   UNL     1      46.547   5.854  17.084  0.00  0.00    +0.000 HD
ENDBRANCH  26  27
ENDBRANCH  24  26
ENDBRANCH  23  24
ENDBRANCH   4  23
TORSDOF 7
ENDMDL
MODEL 4
REMARK VINA RESULT:    -7.203      1.932      2.933
REMARK INTER + INTRA:         -11.177
REMARK INTER:                 -10.327
REMARK INTRA:                  -0.850
REMARK UNBOUND:                -1.027
REMARK  Name = 
REMARK  7 active torsions:
REMARK  status: ('A' for Active; 'I' for Inactive)
REMARK    1  A    between atoms: C_2  and  C_20
REMARK    2  A    between atoms: N_3  and  C_4
REMARK    3  A    between atoms: C_4  and  C_5
REMARK    4  A    between atoms: C_8  and  C_9
REMARK    5  A    between atoms: C_9  and  N_10
REMARK    6  A    between atoms: N_10  and  C_11
REMARK    7  A    between atoms: C_11  and  C_12
REMARK                            x       y       z     vdW  Elec       q    Type
REMARK                         _______ _______ _______ _____ _____    ______ ____
ROOT
ATOM      1  C   UNL     1      47.341   6.171  13.755  0.00  0.00    +0.000 A 
ATOM      2  C   UNL     1      46.572   6.654  12.694  0.00  0.00    +0.000 A 
ATOM      3  C   UNL     1      45.428   5.961  12.299  0.00  0.00    +0.000 A 
ATOM      4  C   UNL     1      45.093   4.792  12.972  0.00  0.00    +0.000 A 
ATOM      5  N   UNL     1      45.868   4.266  13.956  0.00  0.00    +0.000 NA
ATOM      6  C   UNL     1      46.959   4.966  14.328  0.00  0.00    +0.000 A 
ENDROOT
BRANCH   1   7
ATOM      7  C   UNL     1      48.553   6.896  14.257  0.00  0.00    +0.000 C 
BRANCH   7  10
ATOM      8  O   UNL     1      50.600   6.080  16.003  0.00  0.00    +0.000 OA
ATOM      9  C   UNL     1      49.605   6.624  16.468  0.00  0.00    +0.000 C 
ATOM     10  N   UNL     1      48.544   7.004  15.694  0.00  0.00    +0.000 N 
ATOM     11  H   UNL     1      47.846   7.630  16.082  0.00  0.00    +0.000 HD
BRANCH   9  12
ATOM     12  C   UNL     1      49.456   6.857  17.909  0.00  0.00    +0.000 A 
ATOM     13  C   UNL     1      49.600   8.135  18.426  0.00  0.00    +0.000 A 
ATOM     14  S   UNL     1      49.416   8.208  20.121  0.00  0.00    +0.000 S 
ATOM     15  C   UNL     1      49.093   6.539  20.213  0.00  0.00    +0.000 A 
ATOM     16  N   UNL     1      48.816   5.944  21.404  0.00  0.00    +0.000 NA
ATOM     17  C   UNL     1      48.547   4.684  21.319  0.00  0.00    +0.000 A 
ATOM     18  N   UNL     1      48.546   3.961  20.156  0.00  0.00    +0.000 N 
ATOM     19  C   UNL     1      48.896   4.503  18.942  0.00  0.00    +0.000 A 
ATOM     20  O   UNL     1      49.012   3.800  17.946  0.00  0.00    +0.000 OA
ATOM     21  C   UNL     1      49.154   5.930  18.974  0.00  0.00    +0.000 A 
ATOM     22  H   UNL     1      48.360   2.967  20.162  0.00  0.00    +0.000 HD
ENDBRANCH   9  12
ENDBRANCH   7  10
ENDBRANCH   1   7
BRANCH   4  23
ATOM     23  C   UNL     1      43.818   4.046  12.620  0.00  0.00    +0.000 C 
BRANCH  23  24
ATOM     24  N   UNL     1      44.047   2.748  11.963  0.00  0.00    +0.000 NA
ATOM     25  H   UNL     1      43.153   2.493  11.534  0.00  0.00    +0.000 HD
BRANCH  24  26
ATOM     26  C   UNL     1      45.040   2.833  10.876  0.00  0.00    +0.000 C 
BRANCH  26  27
ATOM     27  C   UNL     1      44.313   2.829   9.513  0.00  0.00    +0.000 C 
ATOM     28  C   UNL     1      44.945   1.837   8.523  0.00  0.00    +0.000 C 
ATOM     29  C   UNL     1      46.309   2.334   8.049  0.00  0.00    +0.000 C 
ATOM     30  C   UNL     1      46.212   3.752   7.487  0.00  0.00    +0.000 C 
ATOM     31  N   UNL     1      45.603   4.687   8.435  0.00  0.00    +0.000 NA
ATOM     32  C   UNL     1      44.281   4.226   8.869  0.00  0.00    +0.000 C 
ATOM     33  H   UNL     1      45.505   5.597   7.984  0.00  0.00    +0.000 HD
ENDBRANCH  26  27
ENDBRANCH  24  26
ENDBRANCH  23  24
ENDBRANCH   4  23
TORSDOF 7
ENDMDL
MODEL 5
REMARK VINA RESULT:    -7.048      3.412      5.768
REMARK INTER + INTRA:         -10.959
REMARK INTER:                  -9.417
REMARK INTRA:                  -1.542
REMARK UNBOUND:                -1.027
REMARK  Name = 
REMARK  7 active torsions:
REMARK  status: ('A' for Active; 'I' for Inactive)
REMARK    1  A    between atoms: C_2  and  C_20
REMARK    2  A    between atoms: N_3  and  C_4
REMARK    3  A    between atoms: C_4  and  C_5
REMARK    4  A    between atoms: C_8  and  C_9
REMARK    5  A    between atoms: C_9  and  N_10
REMARK    6  A    between atoms: N_10  and  C_11
REMARK    7  A    between atoms: C_11  and  C_12
REMARK                            x       y       z     vdW  Elec       q    Type
REMARK                         _______ _______ _______ _____ _____    ______ ____
ROOT
ATOM      1  C   UNL     1      47.781   4.356  16.025  0.00  0.00    +0.000 A 
ATOM      2  C   UNL     1      48.322   5.643  16.048  0.00  0.00    +0.000 A 
ATOM      3  C   UNL     1      48.222   6.455  14.919  0.00  0.00    +0.000 A 
ATOM      4  C   UNL     1      47.592   5.947  13.789  0.00  0.00    +0.000 A 
ATOM      5  N   UNL     1      47.127   4.672  13.721  0.00  0.00    +0.000 NA
ATOM      6  C   UNL     1      47.222   3.916  14.833  0.00  0.00    +0.000 A 
ENDROOT
BRANCH   1   7
ATOM      7  C   UNL     1      47.813   3.454  17.223  0.00  0.00    +0.000 C 
BRANCH   7  10
ATOM      8  O   UNL     1      49.564   1.644  15.974  0.00  0.00    +0.000 OA
ATOM      9  C   UNL     1      49.968   2.297  16.930  0.00  0.00    +0.000 C 
ATOM     10  N   UNL     1      49.165   3.160  17.623  0.00  0.00    +0.000 N 
ATOM     11  H   UNL     1      49.588   3.824  18.263  0.00  0.00    +0.000 HD
BRANCH   9  12
ATOM     12  C   UNL     1      51.337   2.155  17.438  0.00  0.00    +0.000 A 
ATOM     13  C   UNL     1      51.887   0.894  17.611  0.00  0.00    +0.000 A 
ATOM     14  S   UNL     1      53.476   0.924  18.231  0.00  0.00    +0.000 S 
ATOM     15  C   UNL     1      53.497   2.627  18.245  0.00  0.00    +0.000 A 
ATOM     16  N   UNL     1      54.602   3.311  18.649  0.00  0.00    +0.000 NA
ATOM     17  C   UNL     1      54.491   4.594  18.566  0.00  0.00    +0.000 A 
ATOM     18  N   UNL     1      53.375   5.257  18.132  0.00  0.00    +0.000 N 
ATOM     19  C   UNL     1      52.212   4.611  17.788  0.00  0.00    +0.000 A 
ATOM     20  O   UNL     1      51.192   5.239  17.531  0.00  0.00    +0.000 OA
ATOM     21  C   UNL     1      52.300   3.163  17.812  0.00  0.00    +0.000 A 
ATOM     22  H   UNL     1      53.341   6.268  18.124  0.00  0.00    +0.000 HD
ENDBRANCH   9  12
ENDBRANCH   7  10
ENDBRANCH   1   7
BRANCH   4  23
ATOM     23  C   UNL     1      47.400   6.822  12.562  0.00  0.00    +0.000 C 
BRANCH  23  24
ATOM     24  N   UNL     1      46.474   6.258  11.565  0.00  0.00    +0.000 NA
ATOM     25  H   UNL     1      46.468   5.248  11.732  0.00  0.00    +0.000 HD
BRANCH  24  26
ATOM     26  C   UNL     1      45.090   6.736  11.745  0.00  0.00    +0.000 C 
BRANCH  26  27
ATOM     27  C   UNL     1      44.122   5.807  10.979  0.00  0.00    +0.000 C 
ATOM     28  C   UNL     1      42.796   5.607  11.730  0.00  0.00    +0.000 C 
ATOM     29  C   UNL     1      42.999   4.745  12.974  0.00  0.00    +0.000 C 
ATOM     30  C   UNL     1      43.685   3.425  12.622  0.00  0.00    +0.000 C 
ATOM     31  N   UNL     1      44.943   3.627  11.901  0.00  0.00    +0.000 NA
ATOM     32  C   UNL     1      44.746   4.430  10.691  0.00  0.00    +0.000 C 
ATOM     33  H   UNL     1      45.321   2.717  11.636  0.00  0.00    +0.000 HD
ENDBRANCH  26  27
ENDBRANCH  24  26
ENDBRANCH  23  24
ENDBRANCH   4  23
TORSDOF 7
ENDMDL
MODEL 6
REMARK VINA RESULT:    -6.657      3.742      9.409
REMARK INTER + INTRA:         -10.407
REMARK INTER:                  -8.625
REMARK INTRA:                  -1.783
REMARK UNBOUND:                -1.027
REMARK  Name = 
REMARK  7 active torsions:
REMARK  status: ('A' for Active; 'I' for Inactive)
REMARK    1  A    between atoms: C_2  and  C_20
REMARK    2  A    between atoms: N_3  and  C_4
REMARK    3  A    between atoms: C_4  and  C_5
REMARK    4  A    between atoms: C_8  and  C_9
REMARK    5  A    between atoms: C_9  and  N_10
REMARK    6  A    between atoms: N_10  and  C_11
REMARK    7  A    between atoms: C_11  and  C_12
REMARK                            x       y       z     vdW  Elec       q    Type
REMARK                         _______ _______ _______ _____ _____    ______ ____
ROOT
ATOM      1  C   UNL     1      49.330   6.816  15.967  0.00  0.00    +0.000 A 
ATOM      2  C   UNL     1      48.502   5.745  16.308  0.00  0.00    +0.000 A 
ATOM      3  C   UNL     1      48.915   4.836  17.281  0.00  0.00    +0.000 A 
ATOM      4  C   UNL     1      50.158   5.019  17.878  0.00  0.00    +0.000 A 
ATOM      5  N   UNL     1      51.010   6.009  17.506  0.00  0.00    +0.000 NA
ATOM      6  C   UNL     1      50.577   6.883  16.574  0.00  0.00    +0.000 A 
ENDROOT
BRANCH   1   7
ATOM      7  C   UNL     1      48.922   7.853  14.964  0.00  0.00    +0.000 C 
BRANCH   7  10
ATOM      8  O   UNL     1      48.811   6.242  12.663  0.00  0.00    +0.000 OA
ATOM      9  C   UNL     1      47.763   6.632  13.166  0.00  0.00    +0.000 C 
ATOM     10  N   UNL     1      47.732   7.459  14.254  0.00  0.00    +0.000 N 
ATOM     11  H   UNL     1      46.860   7.585  14.756  0.00  0.00    +0.000 HD
BRANCH   9  12
ATOM     12  C   UNL     1      46.457   6.281  12.597  0.00  0.00    +0.000 A 
ATOM     13  C   UNL     1      45.675   7.257  11.997  0.00  0.00    +0.000 A 
ATOM     14  S   UNL     1      44.183   6.670  11.414  0.00  0.00    +0.000 S 
ATOM     15  C   UNL     1      44.554   5.082  11.904  0.00  0.00    +0.000 A 
ATOM     16  N   UNL     1      43.690   4.057  11.672  0.00  0.00    +0.000 NA
ATOM     17  C   UNL     1      44.120   2.902  12.056  0.00  0.00    +0.000 A 
ATOM     18  N   UNL     1      45.326   2.679  12.665  0.00  0.00    +0.000 N 
ATOM     19  C   UNL     1      46.195   3.693  12.989  0.00  0.00    +0.000 A 
ATOM     20  O   UNL     1      47.203   3.475  13.650  0.00  0.00    +0.000 OA
ATOM     21  C   UNL     1      45.783   5.006  12.529  0.00  0.00    +0.000 A 
ATOM     22  H   UNL     1      45.589   1.753  12.974  0.00  0.00    +0.000 HD
ENDBRANCH   9  12
ENDBRANCH   7  10
ENDBRANCH   1   7
BRANCH   4  23
ATOM     23  C   UNL     1      50.615   4.093  18.991  0.00  0.00    +0.000 C 
BRANCH  23  24
ATOM     24  N   UNL     1      50.420   4.642  20.344  0.00  0.00    +0.000 NA
ATOM     25  H   UNL     1      50.714   5.621  20.290  0.00  0.00    +0.000 HD
BRANCH  24  26
ATOM     26  C   UNL     1      49.005   4.636  20.758  0.00  0.00    +0.000 C 
BRANCH  26  27
ATOM     27  C   UNL     1      48.696   5.925  21.551  0.00  0.00    +0.000 C 
ATOM     28  C   UNL     1      47.399   6.601  21.077  0.00  0.00    +0.000 C 
ATOM     29  C   UNL     1      47.584   7.225  19.696  0.00  0.00    +0.000 C 
ATOM     30  C   UNL     1      48.785   8.170  19.676  0.00  0.00    +0.000 C 
ATOM     31  N   UNL     1      50.014   7.519  20.136  0.00  0.00    +0.000 NA
ATOM     32  C   UNL     1      49.847   6.944  21.474  0.00  0.00    +0.000 C 
ATOM     33  H   UNL     1      50.763   8.210  20.164  0.00  0.00    +0.000 HD
ENDBRANCH  26  27
ENDBRANCH  24  26
ENDBRANCH  23  24
ENDBRANCH   4  23
TORSDOF 7
ENDMDL
MODEL 7
REMARK VINA RESULT:    -6.608      2.288      3.401
REMARK INTER + INTRA:         -10.339
REMARK INTER:                  -9.424
REMARK INTRA:                  -0.915
REMARK UNBOUND:                -1.027
REMARK  Name = 
REMARK  7 active torsions:
REMARK  status: ('A' for Active; 'I' for Inactive)
REMARK    1  A    between atoms: C_2  and  C_20
REMARK    2  A    between atoms: N_3  and  C_4
REMARK    3  A    between atoms: C_4  and  C_5
REMARK    4  A    between atoms: C_8  and  C_9
REMARK    5  A    between atoms: C_9  and  N_10
REMARK    6  A    between atoms: N_10  and  C_11
REMARK    7  A    between atoms: C_11  and  C_12
REMARK                            x       y       z     vdW  Elec       q    Type
REMARK                         _______ _______ _______ _____ _____    ______ ____
ROOT
ATOM      1  C   UNL     1      48.189   8.101  13.105  0.00  0.00    +0.000 A 
ATOM      2  C   UNL     1      47.286   9.167  13.125  0.00  0.00    +0.000 A 
ATOM      3  C   UNL     1      46.045   9.031  12.505  0.00  0.00    +0.000 A 
ATOM      4  C   UNL     1      45.747   7.832  11.868  0.00  0.00    +0.000 A 
ATOM      5  N   UNL     1      46.640   6.812  11.772  0.00  0.00    +0.000 NA
ATOM      6  C   UNL     1      47.826   6.965  12.396  0.00  0.00    +0.000 A 
ENDROOT
BRANCH   1   7
ATOM      7  C   UNL     1      49.519   8.169  13.795  0.00  0.00    +0.000 C 
BRANCH   7  10
ATOM      8  O   UNL     1      48.648   8.626  16.429  0.00  0.00    +0.000 OA
ATOM      9  C   UNL     1      49.100   7.524  16.135  0.00  0.00    +0.000 C 
ATOM     10  N   UNL     1      49.591   7.238  14.892  0.00  0.00    +0.000 N 
ATOM     11  H   UNL     1      49.757   6.270  14.636  0.00  0.00    +0.000 HD
BRANCH   9  12
ATOM     12  C   UNL     1      49.199   6.444  17.122  0.00  0.00    +0.000 A 
ATOM     13  C   UNL     1      49.990   6.602  18.250  0.00  0.00    +0.000 A 
ATOM     14  S   UNL     1      50.002   5.235  19.271  0.00  0.00    +0.000 S 
ATOM     15  C   UNL     1      48.912   4.404  18.261  0.00  0.00    +0.000 A 
ATOM     16  N   UNL     1      48.474   3.155  18.580  0.00  0.00    +0.000 NA
ATOM     17  C   UNL     1      47.618   2.664  17.748  0.00  0.00    +0.000 A 
ATOM     18  N   UNL     1      47.171   3.298  16.620  0.00  0.00    +0.000 N 
ATOM     19  C   UNL     1      47.643   4.525  16.218  0.00  0.00    +0.000 A 
ATOM     20  O   UNL     1      47.321   5.003  15.137  0.00  0.00    +0.000 OA
ATOM     21  C   UNL     1      48.568   5.145  17.148  0.00  0.00    +0.000 A 
ATOM     22  H   UNL     1      46.524   2.843  15.990  0.00  0.00    +0.000 HD
ENDBRANCH   9  12
ENDBRANCH   7  10
ENDBRANCH   1   7
BRANCH   4  23
ATOM     23  C   UNL     1      44.380   7.618  11.242  0.00  0.00    +0.000 C 
BRANCH  23  24
ATOM     24  N   UNL     1      43.666   6.436  11.755  0.00  0.00    +0.000 NA
ATOM     25  H   UNL     1      42.716   6.756  11.964  0.00  0.00    +0.000 HD
BRANCH  24  26
ATOM     26  C   UNL     1      43.551   5.364  10.749  0.00  0.00    +0.000 C 
BRANCH  26  27
ATOM     27  C   UNL     1      44.896   4.613  10.643  0.00  0.00    +0.000 C 
ATOM     28  C   UNL     1      45.401   4.530   9.194  0.00  0.00    +0.000 C 
ATOM     29  C   UNL     1      44.542   3.572   8.371  0.00  0.00    +0.000 C 
ATOM     30  C   UNL     1      44.448   2.203   9.044  0.00  0.00    +0.000 C 
ATOM     31  N   UNL     1      43.973   2.294  10.426  0.00  0.00    +0.000 NA
ATOM     32  C   UNL     1      44.813   3.190  11.225  0.00  0.00    +0.000 C 
ATOM     33  H   UNL     1      43.993   1.362  10.843  0.00  0.00    +0.000 HD
ENDBRANCH  26  27
ENDBRANCH  24  26
ENDBRANCH  23  24
ENDBRANCH   4  23
TORSDOF 7
ENDMDL
MODEL 8
REMARK VINA RESULT:    -6.568      3.902      8.506
REMARK INTER + INTRA:         -10.282
REMARK INTER:                  -8.279
REMARK INTRA:                  -2.003
REMARK UNBOUND:                -1.027
REMARK  Name = 
REMARK  7 active torsions:
REMARK  status: ('A' for Active; 'I' for Inactive)
REMARK    1  A    between atoms: C_2  and  C_20
REMARK    2  A    between atoms: N_3  and  C_4
REMARK    3  A    between atoms: C_4  and  C_5
REMARK    4  A    between atoms: C_8  and  C_9
REMARK    5  A    between atoms: C_9  and  N_10
REMARK    6  A    between atoms: N_10  and  C_11
REMARK    7  A    between atoms: C_11  and  C_12
REMARK                            x       y       z     vdW  Elec       q    Type
REMARK                         _______ _______ _______ _____ _____    ______ ____
ROOT
ATOM      1  C   UNL     1      49.143   7.995  15.300  0.00  0.00    +0.000 A 
ATOM      2  C   UNL     1      50.483   7.709  15.031  0.00  0.00    +0.000 A 
ATOM      3  C   UNL     1      51.280   7.136  16.021  0.00  0.00    +0.000 A 
ATOM      4  C   UNL     1      50.713   6.876  17.263  0.00  0.00    +0.000 A 
ATOM      5  N   UNL     1      49.433   7.216  17.569  0.00  0.00    +0.000 NA
ATOM      6  C   UNL     1      48.682   7.753  16.587  0.00  0.00    +0.000 A 
ENDROOT
BRANCH   1   7
ATOM      7  C   UNL     1      48.224   8.566  14.263  0.00  0.00    +0.000 C 
BRANCH   7  10
ATOM      8  O   UNL     1      48.567   6.579  12.303  0.00  0.00    +0.000 OA
ATOM      9  C   UNL     1      47.505   6.635  12.913  0.00  0.00    +0.000 C 
ATOM     10  N   UNL     1      47.240   7.601  13.843  0.00  0.00    +0.000 N 
ATOM     11  H   UNL     1      46.445   7.487  14.463  0.00  0.00    +0.000 HD
BRANCH   9  12
ATOM     12  C   UNL     1      46.411   5.695  12.643  0.00  0.00    +0.000 A 
ATOM     13  C   UNL     1      46.572   4.345  12.916  0.00  0.00    +0.000 A 
ATOM     14  S   UNL     1      45.206   3.403  12.516  0.00  0.00    +0.000 S 
ATOM     15  C   UNL     1      44.339   4.778  12.007  0.00  0.00    +0.000 A 
ATOM     16  N   UNL     1      43.058   4.673  11.561  0.00  0.00    +0.000 NA
ATOM     17  C   UNL     1      42.509   5.799  11.251  0.00  0.00    +0.000 A 
ATOM     18  N   UNL     1      43.127   7.019  11.331  0.00  0.00    +0.000 N 
ATOM     19  C   UNL     1      44.443   7.164  11.701  0.00  0.00    +0.000 A 
ATOM     20  O   UNL     1      45.001   8.252  11.635  0.00  0.00    +0.000 OA
ATOM     21  C   UNL     1      45.090   5.932  12.113  0.00  0.00    +0.000 A 
ATOM     22  H   UNL     1      42.652   7.862  11.039  0.00  0.00    +0.000 HD
ENDBRANCH   9  12
ENDBRANCH   7  10
ENDBRANCH   1   7
BRANCH   4  23
ATOM     23  C   UNL     1      51.526   6.189  18.346  0.00  0.00    +0.000 C 
BRANCH  23  24
ATOM     24  N   UNL     1      50.976   4.891  18.774  0.00  0.00    +0.000 NA
ATOM     25  H   UNL     1      50.100   5.107  19.256  0.00  0.00    +0.000 HD
BRANCH  24  26
ATOM     26  C   UNL     1      50.641   4.017  17.634  0.00  0.00    +0.000 C 
BRANCH  26  27
ATOM     27  C   UNL     1      49.504   3.054  18.043  0.00  0.00    +0.000 C 
ATOM     28  C   UNL     1      48.648   2.625  16.840  0.00  0.00    +0.000 C 
ATOM     29  C   UNL     1      47.792   3.786  16.338  0.00  0.00    +0.000 C 
ATOM     30  C   UNL     1      46.961   4.385  17.471  0.00  0.00    +0.000 C 
ATOM     31  N   UNL     1      47.784   4.784  18.615  0.00  0.00    +0.000 NA
ATOM     32  C   UNL     1      48.585   3.664  19.116  0.00  0.00    +0.000 C 
ATOM     33  H   UNL     1      47.173   5.115  19.362  0.00  0.00    +0.000 HD
ENDBRANCH  26  27
ENDBRANCH  24  26
ENDBRANCH  23  24
ENDBRANCH   4  23
TORSDOF 7
ENDMDL
MODEL 9
REMARK VINA RESULT:    -6.465      3.215      5.509
REMARK INTER + INTRA:         -10.137
REMARK INTER:                  -8.953
REMARK INTRA:                  -1.183
REMARK UNBOUND:                -1.027
REMARK  Name = 
REMARK  7 active torsions:
REMARK  status: ('A' for Active; 'I' for Inactive)
REMARK    1  A    between atoms: C_2  and  C_20
REMARK    2  A    between atoms: N_3  and  C_4
REMARK    3  A    between atoms: C_4  and  C_5
REMARK    4  A    between atoms: C_8  and  C_9
REMARK    5  A    between atoms: C_9  and  N_10
REMARK    6  A    between atoms: N_10  and  C_11
REMARK    7  A    between atoms: C_11  and  C_12
REMARK                            x       y       z     vdW  Elec       q    Type
REMARK                         _______ _______ _______ _____ _____    ______ ____
ROOT
ATOM      1  C   UNL     1      49.067   6.621  16.321  0.00  0.00    +0.000 A 
ATOM      2  C   UNL     1      49.117   7.537  15.268  0.00  0.00    +0.000 A 
ATOM      3  C   UNL     1      48.428   7.269  14.086  0.00  0.00    +0.000 A 
ATOM      4  C   UNL     1      47.715   6.079  13.986  0.00  0.00    +0.000 A 
ATOM      5  N   UNL     1      47.716   5.141  14.969  0.00  0.00    +0.000 NA
ATOM      6  C   UNL     1      48.377   5.435  16.107  0.00  0.00    +0.000 A 
ENDROOT
BRANCH   1   7
ATOM      7  C   UNL     1      49.746   6.874  17.633  0.00  0.00    +0.000 C 
BRANCH   7  10
ATOM      8  O   UNL     1      50.198   5.484  20.034  0.00  0.00    +0.000 OA
ATOM      9  C   UNL     1      50.911   5.244  19.066  0.00  0.00    +0.000 C 
ATOM     10  N   UNL     1      50.790   5.913  17.880  0.00  0.00    +0.000 N 
ATOM     11  H   UNL     1      51.251   5.545  17.054  0.00  0.00    +0.000 HD
BRANCH   9  12
ATOM     12  C   UNL     1      51.993   4.256  19.131  0.00  0.00    +0.000 A 
ATOM     13  C   UNL     1      53.089   4.478  19.951  0.00  0.00    +0.000 A 
ATOM     14  S   UNL     1      54.255   3.233  19.880  0.00  0.00    +0.000 S 
ATOM     15  C   UNL     1      53.309   2.335  18.785  0.00  0.00    +0.000 A 
ATOM     16  N   UNL     1      53.726   1.122  18.330  0.00  0.00    +0.000 NA
ATOM     17  C   UNL     1      52.889   0.535  17.542  0.00  0.00    +0.000 A 
ATOM     18  N   UNL     1      51.683   1.055  17.153  0.00  0.00    +0.000 N 
ATOM     19  C   UNL     1      51.258   2.307  17.524  0.00  0.00    +0.000 A 
ATOM     20  O   UNL     1      50.237   2.793  17.053  0.00  0.00    +0.000 OA
ATOM     21  C   UNL     1      52.137   2.988  18.456  0.00  0.00    +0.000 A 
ATOM     22  H   UNL     1      51.089   0.557  16.504  0.00  0.00    +0.000 HD
ENDBRANCH   9  12
ENDBRANCH   7  10
ENDBRANCH   1   7
BRANCH   4  23
ATOM     23  C   UNL     1      46.894   5.781  12.744  0.00  0.00    +0.000 C 
BRANCH  23  24
ATOM     24  N   UNL     1      45.439   5.863  12.956  0.00  0.00    +0.000 NA
ATOM     25  H   UNL     1      45.057   6.274  12.099  0.00  0.00    +0.000 HD
BRANCH  24  26
ATOM     26  C   UNL     1      44.816   4.536  13.116  0.00  0.00    +0.000 C 
BRANCH  26  27
ATOM     27  C   UNL     1      43.497   4.487  12.311  0.00  0.00    +0.000 C 
ATOM     28  C   UNL     1      43.289   3.129  11.624  0.00  0.00    +0.000 C 
ATOM     29  C   UNL     1      44.267   2.948  10.465  0.00  0.00    +0.000 C 
ATOM     30  C   UNL     1      44.187   4.123   9.491  0.00  0.00    +0.000 C 
ATOM     31  N   UNL     1      44.380   5.413  10.157  0.00  0.00    +0.000 NA
ATOM     32  C   UNL     1      43.423   5.600  11.251  0.00  0.00    +0.000 C 
ATOM     33  H   UNL     1      44.252   6.159   9.473  0.00  0.00    +0.000 HD
ENDBRANCH  26  27
ENDBRANCH  24  26
ENDBRANCH  23  24
ENDBRANCH   4  23
TORSDOF 7
ENDMDL
