MODEL 1
REMARK VINA RESULT:    -7.499      0.000      0.000
REMARK INTER + INTRA:         -13.720
REMARK INTER:                 -11.884
REMARK INTRA:                  -1.837
REMARK UNBOUND:                -1.837
REMARK  Name = 
REMARK  13 active torsions:
REMARK  status: ('A' for Active; 'I' for Inactive)
REMARK    1  A    between atoms: C_1  and  C_2
REMARK    2  A    between atoms: C_2  and  C_3
REMARK    3  A    between atoms: C_2  and  N_4
REMARK    4  A    between atoms: N_4  and  C_5
REMARK    5  A    between atoms: C_5  and  C_6
REMARK    6  A    between atoms: C_6  and  C_7
REMARK    7  A    between atoms: C_6  and  N_13
REMARK    8  A    between atoms: N_13  and  C_14
REMARK    9  A    between atoms: N_13  and  C_15
REMARK   10  A    between atoms: C_15  and  C_16
REMARK   11  A    between atoms: C_19  and  C_20
REMARK   12  A    between atoms: C_20  and  N_21
REMARK   13  A    between atoms: C_22  and  C_24
REMARK                            x       y       z     vdW  Elec       q    Type
REMARK                         _______ _______ _______ _____ _____    ______ ____
ROOT
ATOM      1  C   UNL     1      47.014   4.536  14.778  0.00  0.00    +0.000 A 
ATOM      2  C   UNL     1      47.809   5.664  14.719  0.00  0.00    +0.000 A 
ATOM      3  C   UNL     1      48.441   6.090  15.888  0.00  0.00    +0.000 A 
ATOM      4  C   UNL     1      48.294   5.369  17.074  0.00  0.00    +0.000 A 
ATOM      5  C   UNL     1      47.458   4.275  17.048  0.00  0.00    +0.000 A 
ATOM      6  N   UNL     1      46.834   3.863  15.938  0.00  0.00    +0.000 NA
ENDROOT
BRANCH   1   7
ATOM      7  C   UNL     1      46.395   3.985  13.496  0.00  0.00    +0.000 C 
BRANCH   7   8
ATOM      8  N   UNL     1      45.371   4.823  12.821  0.00  0.00    +0.000 NA
ATOM      9  C   UNL     1      44.145   4.036  12.648  0.00  0.00    +0.000 C 
BRANCH   8  10
ATOM     10  C   UNL     1      45.879   5.398  11.532  0.00  0.00    +0.000 C 
BRANCH  10  11
ATOM     11  C   UNL     1      46.243   6.880  11.683  0.00  0.00    +0.000 A 
ATOM     12  C   UNL     1      45.252   7.832  11.955  0.00  0.00    +0.000 A 
ATOM     13  C   UNL     1      45.598   9.155  12.220  0.00  0.00    +0.000 A 
ATOM     14  C   UNL     1      46.938   9.543  12.234  0.00  0.00    +0.000 A 
ATOM     15  C   UNL     1      47.935   8.612  11.957  0.00  0.00    +0.000 A 
ATOM     16  C   UNL     1      47.589   7.293  11.667  0.00  0.00    +0.000 A 
ENDBRANCH  10  11
BRANCH  10  17
ATOM     17  C   UNL     1      44.868   5.183  10.377  0.00  0.00    +0.000 C 
BRANCH  17  18
ATOM     18  N   UNL     1      45.478   5.161   9.038  0.00  0.00    +0.000 NA
ATOM     19  H   UNL     1      45.215   6.018   8.548  0.00  0.00    +0.000 HD
BRANCH  18  21
ATOM     20  C   UNL     1      46.184   3.624   7.313  0.00  0.00    +0.000 C 
ATOM     21  C   UNL     1      45.053   3.988   8.271  0.00  0.00    +0.000 C 
ATOM     22  C   UNL     1      44.725   2.784   9.164  0.00  0.00    +0.000 C 
ENDBRANCH  18  21
ENDBRANCH  17  18
ENDBRANCH  10  17
ENDBRANCH   8  10
ENDBRANCH   7   8
ENDBRANCH   1   7
BRANCH   4  23
ATOM     23  C   UNL     1      49.000   5.731  18.341  0.00  0.00    +0.000 C 
BRANCH  23  24
ATOM     24  N   UNL     1      50.105   4.859  18.614  0.00  0.00    +0.000 N 
ATOM     25  C   UNL     1      51.352   5.075  18.095  0.00  0.00    +0.000 C 
ATOM     26  O   UNL     1      51.610   6.025  17.365  0.00  0.00    +0.000 OA
ATOM     27  H   UNL     1      49.875   3.935  18.964  0.00  0.00    +0.000 HD
BRANCH  25  28
ATOM     28  C   UNL     1      52.380   4.114  18.505  0.00  0.00    +0.000 A 
ATOM     29  C   UNL     1      53.429   4.532  19.310  0.00  0.00    +0.000 A 
ATOM     30  S   UNL     1      54.510   3.276  19.716  0.00  0.00    +0.000 S 
ATOM     31  C   UNL     1      53.633   2.142  18.795  0.00  0.00    +0.000 A 
ATOM     32  N   UNL     1      54.048   0.851  18.695  0.00  0.00    +0.000 NA
ATOM     33  C   UNL     1      53.298   0.113  17.939  0.00  0.00    +0.000 A 
ATOM     34  N   UNL     1      52.178   0.540  17.292  0.00  0.00    +0.000 N 
ATOM     35  C   UNL     1      51.692   1.823  17.408  0.00  0.00    +0.000 A 
ATOM     36  O   UNL     1      50.623   2.153  16.895  0.00  0.00    +0.000 OA
ATOM     37  C   UNL     1      52.514   2.707  18.213  0.00  0.00    +0.000 A 
ATOM     38  H   UNL     1      51.617  -0.093  16.741  0.00  0.00    +0.000 HD
ENDBRANCH  25  28
ENDBRANCH  23  24
ENDBRANCH   4  23
TORSDOF 10
ENDMDL
MODEL 2
REMARK VINA RESULT:    -7.068      4.148      8.908
REMARK INTER + INTRA:         -13.037
REMARK INTER:                 -11.257
REMARK INTRA:                  -1.780
REMARK UNBOUND:                -1.837
REMARK  Name = 
REMARK  13 active torsions:
REMARK  status: ('A' for Active; 'I' for Inactive)
REMARK    1  A    between atoms: C_1  and  C_2
REMARK    2  A    between atoms: C_2  and  C_3
REMARK    3  A    between atoms: C_2  and  N_4
REMARK    4  A    between atoms: N_4  and  C_5
REMARK    5  A    between atoms: C_5  and  C_6
REMARK    6  A    between atoms: C_6  and  C_7
REMARK    7  A    between atoms: C_6  and  N_13
REMARK    8  A    between atoms: N_13  and  C_14
REMARK    9  A    between atoms: N_13  and  C_15
REMARK   10  A    between atoms: C_15  and  C_16
REMARK   11  A    between atoms: C_19  and  C_20
REMARK   12  A    between atoms: C_20  and  N_21
REMARK   13  A    between atoms: C_22  and  C_24
REMARK                            x       y       z     vdW  Elec       q    Type
REMARK                         _______ _______ _______ _____ _____    ______ ____
ROOT
ATOM      1  C   UNL     1      49.633   8.108  15.744  0.00  0.00    +0.000 A 
ATOM      2  C   UNL     1      48.447   8.792  15.562  0.00  0.00    +0.000 A 
ATOM      3  C   UNL     1      47.842   8.747  14.306  0.00  0.00    +0.000 A 
ATOM      4  C   UNL     1      48.411   7.999  13.275  0.00  0.00    +0.000 A 
ATOM      5  C   UNL     1      49.610   7.374  13.535  0.00  0.00    +0.000 A 
ATOM      6  N   UNL     1      50.209   7.420  14.731  0.00  0.00    +0.000 NA
ENDROOT
BRANCH   1   7
ATOM      7  C   UNL     1      50.263   8.052  17.133  0.00  0.00    +0.000 C 
BRANCH   7   8
ATOM      8  N   UNL     1      49.968   6.858  17.966  0.00  0.00    +0.000 NA
ATOM      9  C   UNL     1      50.566   5.674  17.336  0.00  0.00    +0.000 C 
BRANCH   8  10
ATOM     10  C   UNL     1      48.498   6.701  18.218  0.00  0.00    +0.000 C 
BRANCH  10  11
ATOM     11  C   UNL     1      48.028   7.595  19.373  0.00  0.00    +0.000 A 
ATOM     12  C   UNL     1      47.425   8.831  19.114  0.00  0.00    +0.000 A 
ATOM     13  C   UNL     1      46.882   9.583  20.154  0.00  0.00    +0.000 A 
ATOM     14  C   UNL     1      46.920   9.104  21.463  0.00  0.00    +0.000 A 
ATOM     15  C   UNL     1      47.525   7.881  21.739  0.00  0.00    +0.000 A 
ATOM     16  C   UNL     1      48.090   7.139  20.703  0.00  0.00    +0.000 A 
ENDBRANCH  10  11
BRANCH  10  17
ATOM     17  C   UNL     1      48.119   5.218  18.466  0.00  0.00    +0.000 C 
BRANCH  17  18
ATOM     18  N   UNL     1      46.825   4.822  17.890  0.00  0.00    +0.000 NA
ATOM     19  H   UNL     1      46.253   4.410  18.630  0.00  0.00    +0.000 HD
BRANCH  18  21
ATOM     20  C   UNL     1      47.308   4.668  15.529  0.00  0.00    +0.000 C 
ATOM     21  C   UNL     1      46.992   3.870  16.790  0.00  0.00    +0.000 C 
ATOM     22  C   UNL     1      48.112   2.854  17.052  0.00  0.00    +0.000 C 
ENDBRANCH  18  21
ENDBRANCH  17  18
ENDBRANCH  10  17
ENDBRANCH   8  10
ENDBRANCH   7   8
ENDBRANCH   1   7
BRANCH   4  23
ATOM     23  C   UNL     1      47.777   7.851  11.928  0.00  0.00    +0.000 C 
BRANCH  23  24
ATOM     24  N   UNL     1      46.995   6.653  11.827  0.00  0.00    +0.000 N 
ATOM     25  C   UNL     1      45.626   6.674  11.815  0.00  0.00    +0.000 C 
ATOM     26  O   UNL     1      44.979   7.712  11.889  0.00  0.00    +0.000 OA
ATOM     27  H   UNL     1      47.467   5.784  12.048  0.00  0.00    +0.000 HD
BRANCH  25  28
ATOM     28  C   UNL     1      44.979   5.368  11.663  0.00  0.00    +0.000 A 
ATOM     29  C   UNL     1      44.257   4.831  12.717  0.00  0.00    +0.000 A 
ATOM     30  S   UNL     1      43.546   3.324  12.353  0.00  0.00    +0.000 S 
ATOM     31  C   UNL     1      44.217   3.320  10.786  0.00  0.00    +0.000 A 
ATOM     32  N   UNL     1      44.012   2.275   9.940  0.00  0.00    +0.000 NA
ATOM     33  C   UNL     1      44.607   2.399   8.796  0.00  0.00    +0.000 A 
ATOM     34  N   UNL     1      45.367   3.465   8.420  0.00  0.00    +0.000 N 
ATOM     35  C   UNL     1      45.557   4.567   9.223  0.00  0.00    +0.000 A 
ATOM     36  O   UNL     1      46.163   5.559   8.819  0.00  0.00    +0.000 OA
ATOM     37  C   UNL     1      44.945   4.468  10.535  0.00  0.00    +0.000 A 
ATOM     38  H   UNL     1      45.779   3.517   7.501  0.00  0.00    +0.000 HD
ENDBRANCH  25  28
ENDBRANCH  23  24
ENDBRANCH   4  23
TORSDOF 10
ENDMDL
MODEL 3
REMARK VINA RESULT:    -6.705      3.558      5.625
REMARK INTER + INTRA:         -12.461
REMARK INTER:                 -10.604
REMARK INTRA:                  -1.857
REMARK UNBOUND:                -1.837
REMARK  Name = 
REMARK  13 active torsions:
REMARK  status: ('A' for Active; 'I' for Inactive)
REMARK    1  A    between atoms: C_1  and  C_2
REMARK    2  A    between atoms: C_2  and  C_3
REMARK    3  A    between atoms: C_2  and  N_4
REMARK    4  A    between atoms: N_4  and  C_5
REMARK    5  A    between atoms: C_5  and  C_6
REMARK    6  A    between atoms: C_6  and  C_7
REMARK    7  A    between atoms: C_6  and  N_13
REMARK    8  A    between atoms: N_13  and  C_14
REMARK    9  A    between atoms: N_13  and  C_15
REMARK   10  A    between atoms: C_15  and  C_16
REMARK   11  A    between atoms: C_19  and  C_20
REMARK   12  A    between atoms: C_20  and  N_21
REMARK   13  A    between atoms: C_22  and  C_24
REMARK                            x       y       z     vdW  Elec       q    Type
REMARK                         _______ _______ _______ _____ _____    ______ ____
ROOT
ATOM      1  C   UNL     1      47.163   4.434  14.603  0.00  0.00    +0.000 A 
ATOM      2  C   UNL     1      47.217   3.522  15.639  0.00  0.00    +0.000 A 
ATOM      3  C   UNL     1      47.973   3.845  16.767  0.00  0.00    +0.000 A 
ATOM      4  C   UNL     1      48.626   5.076  16.851  0.00  0.00    +0.000 A 
ATOM      5  C   UNL     1      48.543   5.910  15.759  0.00  0.00    +0.000 A 
ATOM      6  N   UNL     1      47.834   5.607  14.665  0.00  0.00    +0.000 NA
ENDROOT
BRANCH   1   7
ATOM      7  C   UNL     1      46.262   4.156  13.403  0.00  0.00    +0.000 C 
BRANCH   7   8
ATOM      8  N   UNL     1      45.169   5.125  13.135  0.00  0.00    +0.000 NA
ATOM      9  C   UNL     1      43.877   4.461  13.343  0.00  0.00    +0.000 C 
BRANCH   8  10
ATOM     10  C   UNL     1      45.291   5.745  11.774  0.00  0.00    +0.000 C 
BRANCH  10  11
ATOM     11  C   UNL     1      46.020   7.093  11.835  0.00  0.00    +0.000 A 
ATOM     12  C   UNL     1      45.328   8.260  12.181  0.00  0.00    +0.000 A 
ATOM     13  C   UNL     1      46.014   9.459  12.363  0.00  0.00    +0.000 A 
ATOM     14  C   UNL     1      47.400   9.507  12.215  0.00  0.00    +0.000 A 
ATOM     15  C   UNL     1      48.102   8.358  11.861  0.00  0.00    +0.000 A 
ATOM     16  C   UNL     1      47.415   7.163  11.656  0.00  0.00    +0.000 A 
ENDBRANCH  10  11
BRANCH  10  17
ATOM     17  C   UNL     1      43.908   5.884  11.088  0.00  0.00    +0.000 C 
BRANCH  17  18
ATOM     18  N   UNL     1      43.744   5.046   9.889  0.00  0.00    +0.000 NA
ATOM     19  H   UNL     1      42.882   4.506   9.987  0.00  0.00    +0.000 HD
BRANCH  18  21
ATOM     20  C   UNL     1      44.382   2.717   9.865  0.00  0.00    +0.000 C 
ATOM     21  C   UNL     1      44.885   4.148   9.699  0.00  0.00    +0.000 C 
ATOM     22  C   UNL     1      45.541   4.309   8.322  0.00  0.00    +0.000 C 
ENDBRANCH  18  21
ENDBRANCH  17  18
ENDBRANCH  10  17
ENDBRANCH   8  10
ENDBRANCH   7   8
ENDBRANCH   1   7
BRANCH   4  23
ATOM     23  C   UNL     1      49.392   5.512  18.059  0.00  0.00    +0.000 C 
BRANCH  23  24
ATOM     24  N   UNL     1      48.949   6.784  18.550  0.00  0.00    +0.000 N 
ATOM     25  C   UNL     1      47.797   6.926  19.275  0.00  0.00    +0.000 C 
ATOM     26  O   UNL     1      47.069   5.980  19.553  0.00  0.00    +0.000 OA
ATOM     27  H   UNL     1      49.353   7.604  18.112  0.00  0.00    +0.000 HD
BRANCH  25  28
ATOM     28  C   UNL     1      47.509   8.286  19.739  0.00  0.00    +0.000 A 
ATOM     29  C   UNL     1      47.149   8.500  21.061  0.00  0.00    +0.000 A 
ATOM     30  S   UNL     1      46.884  10.143  21.432  0.00  0.00    +0.000 S 
ATOM     31  C   UNL     1      47.202  10.619  19.827  0.00  0.00    +0.000 A 
ATOM     32  N   UNL     1      47.117  11.923  19.454  0.00  0.00    +0.000 NA
ATOM     33  C   UNL     1      47.357  12.129  18.197  0.00  0.00    +0.000 A 
ATOM     34  N   UNL     1      47.682  11.163  17.294  0.00  0.00    +0.000 N 
ATOM     35  C   UNL     1      47.831   9.838  17.638  0.00  0.00    +0.000 A 
ATOM     36  O   UNL     1      48.225   9.004  16.824  0.00  0.00    +0.000 OA
ATOM     37  C   UNL     1      47.536   9.541  19.028  0.00  0.00    +0.000 A 
ATOM     38  H   UNL     1      47.888  11.391  16.333  0.00  0.00    +0.000 HD
ENDBRANCH  25  28
ENDBRANCH  23  24
ENDBRANCH   4  23
TORSDOF 10
ENDMDL
MODEL 4
REMARK VINA RESULT:    -6.703      4.208      9.601
REMARK INTER + INTRA:         -12.458
REMARK INTER:                 -10.222
REMARK INTRA:                  -2.236
REMARK UNBOUND:                -1.837
REMARK  Name = 
REMARK  13 active torsions:
REMARK  status: ('A' for Active; 'I' for Inactive)
REMARK    1  A    between atoms: C_1  and  C_2
REMARK    2  A    between atoms: C_2  and  C_3
REMARK    3  A    between atoms: C_2  and  N_4
REMARK    4  A    between atoms: N_4  and  C_5
REMARK    5  A    between atoms: C_5  and  C_6
REMARK    6  A    between atoms: C_6  and  C_7
REMARK    7  A    between atoms: C_6  and  N_13
REMARK    8  A    between atoms: N_13  and  C_14
REMARK    9  A    between atoms: N_13  and  C_15
REMARK   10  A    between atoms: C_15  and  C_16
REMARK   11  A    between atoms: C_19  and  C_20
REMARK   12  A    between atoms: C_20  and  N_21
REMARK   13  A    between atoms: C_22  and  C_24
REMARK                            x       y       z     vdW  Elec       q    Type
REMARK                         _______ _______ _______ _____ _____    ______ ____
ROOT
ATOM      1  C   UNL     1      48.840   7.824  16.274  0.00  0.00    +0.000 A 
ATOM      2  C   UNL     1      48.879   6.650  15.547  0.00  0.00    +0.000 A 
ATOM      3  C   UNL     1      48.640   6.712  14.175  0.00  0.00    +0.000 A 
ATOM      4  C   UNL     1      48.400   7.939  13.554  0.00  0.00    +0.000 A 
ATOM      5  C   UNL     1      48.348   9.055  14.360  0.00  0.00    +0.000 A 
ATOM      6  N   UNL     1      48.562   9.008  15.680  0.00  0.00    +0.000 NA
ENDROOT
BRANCH   1   7
ATOM      7  C   UNL     1      49.201   7.803  17.757  0.00  0.00    +0.000 C 
BRANCH   7   8
ATOM      8  N   UNL     1      48.186   7.262  18.696  0.00  0.00    +0.000 NA
ATOM      9  C   UNL     1      47.755   8.331  19.605  0.00  0.00    +0.000 C 
BRANCH   8  10
ATOM     10  C   UNL     1      48.686   6.048  19.422  0.00  0.00    +0.000 C 
BRANCH  10  11
ATOM     11  C   UNL     1      48.564   4.787  18.558  0.00  0.00    +0.000 A 
ATOM     12  C   UNL     1      47.357   4.477  17.918  0.00  0.00    +0.000 A 
ATOM     13  C   UNL     1      47.283   3.405  17.031  0.00  0.00    +0.000 A 
ATOM     14  C   UNL     1      48.415   2.638  16.759  0.00  0.00    +0.000 A 
ATOM     15  C   UNL     1      49.620   2.926  17.393  0.00  0.00    +0.000 A 
ATOM     16  C   UNL     1      49.690   3.983  18.299  0.00  0.00    +0.000 A 
ENDBRANCH  10  11
BRANCH  10  17
ATOM     17  C   UNL     1      47.969   5.867  20.785  0.00  0.00    +0.000 C 
BRANCH  17  18
ATOM     18  N   UNL     1      48.881   5.713  21.929  0.00  0.00    +0.000 NA
ATOM     19  H   UNL     1      48.557   6.318  22.686  0.00  0.00    +0.000 HD
BRANCH  18  21
ATOM     20  C   UNL     1      50.625   7.346  22.282  0.00  0.00    +0.000 C 
ATOM     21  C   UNL     1      50.261   6.048  21.568  0.00  0.00    +0.000 C 
ATOM     22  C   UNL     1      51.257   4.948  21.954  0.00  0.00    +0.000 C 
ENDBRANCH  18  21
ENDBRANCH  17  18
ENDBRANCH  10  17
ENDBRANCH   8  10
ENDBRANCH   7   8
ENDBRANCH   1   7
BRANCH   4  23
ATOM     23  C   UNL     1      48.207   8.083  12.079  0.00  0.00    +0.000 C 
BRANCH  23  24
ATOM     24  N   UNL     1      47.505   6.968  11.513  0.00  0.00    +0.000 N 
ATOM     25  C   UNL     1      46.139   6.928  11.434  0.00  0.00    +0.000 C 
ATOM     26  O   UNL     1      45.426   7.840  11.837  0.00  0.00    +0.000 OA
ATOM     27  H   UNL     1      48.023   6.100  11.436  0.00  0.00    +0.000 HD
BRANCH  25  28
ATOM     28  C   UNL     1      45.581   5.736  10.790  0.00  0.00    +0.000 A 
ATOM     29  C   UNL     1      45.768   5.537   9.431  0.00  0.00    +0.000 A 
ATOM     30  S   UNL     1      45.080   4.085   8.859  0.00  0.00    +0.000 S 
ATOM     31  C   UNL     1      44.473   3.695  10.402  0.00  0.00    +0.000 A 
ATOM     32  N   UNL     1      43.745   2.565  10.603  0.00  0.00    +0.000 NA
ATOM     33  C   UNL     1      43.326   2.416  11.820  0.00  0.00    +0.000 A 
ATOM     34  N   UNL     1      43.577   3.277  12.844  0.00  0.00    +0.000 N 
ATOM     35  C   UNL     1      44.353   4.404  12.699  0.00  0.00    +0.000 A 
ATOM     36  O   UNL     1      44.647   5.110  13.664  0.00  0.00    +0.000 OA
ATOM     37  C   UNL     1      44.819   4.644  11.346  0.00  0.00    +0.000 A 
ATOM     38  H   UNL     1      43.248   3.089  13.780  0.00  0.00    +0.000 HD
ENDBRANCH  25  28
ENDBRANCH  23  24
ENDBRANCH   4  23
TORSDOF 10
ENDMDL
MODEL 5
REMARK VINA RESULT:    -6.603      3.661      6.388
REMARK INTER + INTRA:         -12.300
REMARK INTER:                 -11.139
REMARK INTRA:                  -1.161
REMARK UNBOUND:                -1.837
REMARK  Name = 
REMARK  13 active torsions:
REMARK  status: ('A' for Active; 'I' for Inactive)
REMARK    1  A    between atoms: C_1  and  C_2
REMARK    2  A    between atoms: C_2  and  C_3
REMARK    3  A    between atoms: C_2  and  N_4
REMARK    4  A    between atoms: N_4  and  C_5
REMARK    5  A    between atoms: C_5  and  C_6
REMARK    6  A    between atoms: C_6  and  C_7
REMARK    7  A    between atoms: C_6  and  N_13
REMARK    8  A    between atoms: N_13  and  C_14
REMARK    9  A    between atoms: N_13  and  C_15
REMARK   10  A    between atoms: C_15  and  C_16
REMARK   11  A    between atoms: C_19  and  C_20
REMARK   12  A    between atoms: C_20  and  N_21
REMARK   13  A    between atoms: C_22  and  C_24
REMARK                            x       y       z     vdW  Elec       q    Type
REMARK                         _______ _______ _______ _____ _____    ______ ____
ROOT
ATOM      1  C   UNL     1      46.675   4.728  13.995  0.00  0.00    +0.000 A 
ATOM      2  C   UNL     1      47.507   5.830  13.974  0.00  0.00    +0.000 A 
ATOM      3  C   UNL     1      48.290   6.090  15.099  0.00  0.00    +0.000 A 
ATOM      4  C   UNL     1      48.251   5.234  16.200  0.00  0.00    +0.000 A 
ATOM      5  C   UNL     1      47.370   4.177  16.147  0.00  0.00    +0.000 A 
ATOM      6  N   UNL     1      46.603   3.923  15.080  0.00  0.00    +0.000 NA
ENDROOT
BRANCH   1   7
ATOM      7  C   UNL     1      45.886   4.357  12.742  0.00  0.00    +0.000 C 
BRANCH   7   8
ATOM      8  N   UNL     1      44.501   4.881  12.631  0.00  0.00    +0.000 NA
ATOM      9  C   UNL     1      43.559   3.841  13.060  0.00  0.00    +0.000 C 
BRANCH   8  10
ATOM     10  C   UNL     1      44.206   5.401  11.255  0.00  0.00    +0.000 C 
BRANCH  10  11
ATOM     11  C   UNL     1      44.782   4.480  10.173  0.00  0.00    +0.000 A 
ATOM     12  C   UNL     1      44.350   3.152  10.065  0.00  0.00    +0.000 A 
ATOM     13  C   UNL     1      44.776   2.356   9.003  0.00  0.00    +0.000 A 
ATOM     14  C   UNL     1      45.625   2.878   8.028  0.00  0.00    +0.000 A 
ATOM     15  C   UNL     1      46.071   4.193   8.125  0.00  0.00    +0.000 A 
ATOM     16  C   UNL     1      45.666   4.984   9.199  0.00  0.00    +0.000 A 
ENDBRANCH  10  11
BRANCH  10  17
ATOM     17  C   UNL     1      44.705   6.858  11.079  0.00  0.00    +0.000 C 
BRANCH  17  18
ATOM     18  N   UNL     1      44.740   7.638  12.326  0.00  0.00    +0.000 NA
ATOM     19  H   UNL     1      43.786   7.923  12.556  0.00  0.00    +0.000 HD
BRANCH  18  21
ATOM     20  C   UNL     1      44.705  10.030  11.995  0.00  0.00    +0.000 C 
ATOM     21  C   UNL     1      45.603   8.814  12.203  0.00  0.00    +0.000 C 
ATOM     22  C   UNL     1      46.488   9.030  13.437  0.00  0.00    +0.000 C 
ENDBRANCH  18  21
ENDBRANCH  17  18
ENDBRANCH  10  17
ENDBRANCH   8  10
ENDBRANCH   7   8
ENDBRANCH   1   7
BRANCH   4  23
ATOM     23  C   UNL     1      49.116   5.416  17.406  0.00  0.00    +0.000 C 
BRANCH  23  24
ATOM     24  N   UNL     1      48.830   6.639  18.097  0.00  0.00    +0.000 N 
ATOM     25  C   UNL     1      47.746   6.777  18.921  0.00  0.00    +0.000 C 
ATOM     26  O   UNL     1      46.950   5.868  19.125  0.00  0.00    +0.000 OA
ATOM     27  H   UNL     1      49.283   7.475  17.744  0.00  0.00    +0.000 HD
BRANCH  25  28
ATOM     28  C   UNL     1      47.621   8.077  19.585  0.00  0.00    +0.000 A 
ATOM     29  C   UNL     1      47.468   8.135  20.962  0.00  0.00    +0.000 A 
ATOM     30  S   UNL     1      47.372   9.727  21.565  0.00  0.00    +0.000 S 
ATOM     31  C   UNL     1      47.491  10.391  20.000  0.00  0.00    +0.000 A 
ATOM     32  N   UNL     1      47.444  11.736  19.805  0.00  0.00    +0.000 NA
ATOM     33  C   UNL     1      47.517  12.091  18.561  0.00  0.00    +0.000 A 
ATOM     34  N   UNL     1      47.644  11.236  17.510  0.00  0.00    +0.000 N 
ATOM     35  C   UNL     1      47.748   9.872  17.664  0.00  0.00    +0.000 A 
ATOM     36  O   UNL     1      47.965   9.132  16.705  0.00  0.00    +0.000 OA
ATOM     37  C   UNL     1      47.634   9.411  19.035  0.00  0.00    +0.000 A 
ATOM     38  H   UNL     1      47.728  11.577  16.564  0.00  0.00    +0.000 HD
ENDBRANCH  25  28
ENDBRANCH  23  24
ENDBRANCH   4  23
TORSDOF 10
ENDMDL
MODEL 6
REMARK VINA RESULT:    -6.506      3.779      9.879
REMARK INTER + INTRA:         -12.146
REMARK INTER:                 -10.739
REMARK INTRA:                  -1.407
REMARK UNBOUND:                -1.837
REMARK  Name = 
REMARK  13 active torsions:
REMARK  status: ('A' for Active; 'I' for Inactive)
REMARK    1  A    between atoms: C_1  and  C_2
REMARK    2  A    between atoms: C_2  and  C_3
REMARK    3  A    between atoms: C_2  and  N_4
REMARK    4  A    between atoms: N_4  and  C_5
REMARK    5  A    between atoms: C_5  and  C_6
REMARK    6  A    between atoms: C_6  and  C_7
REMARK    7  A    between atoms: C_6  and  N_13
REMARK    8  A    between atoms: N_13  and  C_14
REMARK    9  A    between atoms: N_13  and  C_15
REMARK   10  A    between atoms: C_15  and  C_16
REMARK   11  A    between atoms: C_19  and  C_20
REMARK   12  A    between atoms: C_20  and  N_21
REMARK   13  A    between atoms: C_22  and  C_24
REMARK                            x       y       z     vdW  Elec       q    Type
REMARK                         _______ _______ _______ _____ _____    ______ ____
ROOT
ATOM      1  C   UNL     1      50.433   7.214  15.527  0.00  0.00    +0.000 A 
ATOM      2  C   UNL     1      50.821   8.081  14.524  0.00  0.00    +0.000 A 
ATOM      3  C   UNL     1      49.996   8.213  13.407  0.00  0.00    +0.000 A 
ATOM      4  C   UNL     1      48.795   7.507  13.329  0.00  0.00    +0.000 A 
ATOM      5  C   UNL     1      48.503   6.641  14.360  0.00  0.00    +0.000 A 
ATOM      6  N   UNL     1      49.292   6.494  15.431  0.00  0.00    +0.000 NA
ENDROOT
BRANCH   1   7
ATOM      7  C   UNL     1      51.260   7.127  16.807  0.00  0.00    +0.000 C 
BRANCH   7   8
ATOM      8  N   UNL     1      50.578   6.614  18.023  0.00  0.00    +0.000 NA
ATOM      9  C   UNL     1      50.156   7.749  18.851  0.00  0.00    +0.000 C 
BRANCH   8  10
ATOM     10  C   UNL     1      51.431   5.633  18.772  0.00  0.00    +0.000 C 
BRANCH  10  11
ATOM     11  C   UNL     1      51.353   4.233  18.152  0.00  0.00    +0.000 A 
ATOM     12  C   UNL     1      52.458   3.374  18.194  0.00  0.00    +0.000 A 
ATOM     13  C   UNL     1      52.347   2.058  17.748  0.00  0.00    +0.000 A 
ATOM     14  C   UNL     1      51.129   1.578  17.268  0.00  0.00    +0.000 A 
ATOM     15  C   UNL     1      50.023   2.421  17.209  0.00  0.00    +0.000 A 
ATOM     16  C   UNL     1      50.138   3.744  17.633  0.00  0.00    +0.000 A 
ENDBRANCH  10  11
BRANCH  10  17
ATOM     17  C   UNL     1      51.068   5.601  20.279  0.00  0.00    +0.000 C 
BRANCH  17  18
ATOM     18  N   UNL     1      50.036   4.613  20.629  0.00  0.00    +0.000 NA
ATOM     19  H   UNL     1      49.589   4.292  19.768  0.00  0.00    +0.000 HD
BRANCH  18  21
ATOM     20  C   UNL     1      49.684   6.345  22.275  0.00  0.00    +0.000 C 
ATOM     21  C   UNL     1      49.036   5.177  21.539  0.00  0.00    +0.000 C 
ATOM     22  C   UNL     1      47.778   5.661  20.807  0.00  0.00    +0.000 C 
ENDBRANCH  18  21
ENDBRANCH  17  18
ENDBRANCH  10  17
ENDBRANCH   8  10
ENDBRANCH   7   8
ENDBRANCH   1   7
BRANCH   4  23
ATOM     23  C   UNL     1      47.833   7.657  12.194  0.00  0.00    +0.000 C 
BRANCH  23  24
ATOM     24  N   UNL     1      47.045   6.476  11.992  0.00  0.00    +0.000 N 
ATOM     25  C   UNL     1      45.680   6.513  11.912  0.00  0.00    +0.000 C 
ATOM     26  O   UNL     1      45.039   7.554  12.005  0.00  0.00    +0.000 OA
ATOM     27  H   UNL     1      47.498   5.591  12.193  0.00  0.00    +0.000 HD
BRANCH  25  28
ATOM     28  C   UNL     1      45.029   5.225  11.661  0.00  0.00    +0.000 A 
ATOM     29  C   UNL     1      44.310   4.608  12.675  0.00  0.00    +0.000 A 
ATOM     30  S   UNL     1      43.595   3.136  12.197  0.00  0.00    +0.000 S 
ATOM     31  C   UNL     1      44.256   3.253  10.631  0.00  0.00    +0.000 A 
ATOM     32  N   UNL     1      44.045   2.279   9.707  0.00  0.00    +0.000 NA
ATOM     33  C   UNL     1      44.634   2.491   8.572  0.00  0.00    +0.000 A 
ATOM     34  N   UNL     1      45.394   3.581   8.277  0.00  0.00    +0.000 N 
ATOM     35  C   UNL     1      45.591   4.616   9.163  0.00  0.00    +0.000 A 
ATOM     36  O   UNL     1      46.197   5.636   8.835  0.00  0.00    +0.000 OA
ATOM     37  C   UNL     1      44.986   4.416  10.467  0.00  0.00    +0.000 A 
ATOM     38  H   UNL     1      45.801   3.704   7.362  0.00  0.00    +0.000 HD
ENDBRANCH  25  28
ENDBRANCH  23  24
ENDBRANCH   4  23
TORSDOF 10
ENDMDL
MODEL 7
REMARK VINA RESULT:    -6.394      4.084      8.737
REMARK INTER + INTRA:         -11.968
REMARK INTER:                 -10.540
REMARK INTRA:                  -1.428
REMARK UNBOUND:                -1.837
REMARK  Name = 
REMARK  13 active torsions:
REMARK  status: ('A' for Active; 'I' for Inactive)
REMARK    1  A    between atoms: C_1  and  C_2
REMARK    2  A    between atoms: C_2  and  C_3
REMARK    3  A    between atoms: C_2  and  N_4
REMARK    4  A    between atoms: N_4  and  C_5
REMARK    5  A    between atoms: C_5  and  C_6
REMARK    6  A    between atoms: C_6  and  C_7
REMARK    7  A    between atoms: C_6  and  N_13
REMARK    8  A    between atoms: N_13  and  C_14
REMARK    9  A    between atoms: N_13  and  C_15
REMARK   10  A    between atoms: C_15  and  C_16
REMARK   11  A    between atoms: C_19  and  C_20
REMARK   12  A    between atoms: C_20  and  N_21
REMARK   13  A    between atoms: C_22  and  C_24
REMARK                            x       y       z     vdW  Elec       q    Type
REMARK                         _______ _______ _______ _____ _____    ______ ____
ROOT
ATOM      1  C   UNL     1      49.777   7.714  15.868  0.00  0.00    +0.000 A 
ATOM      2  C   UNL     1      50.706   7.827  14.852  0.00  0.00    +0.000 A 
ATOM      3  C   UNL     1      50.243   7.944  13.541  0.00  0.00    +0.000 A 
ATOM      4  C   UNL     1      48.873   7.979  13.277  0.00  0.00    +0.000 A 
ATOM      5  C   UNL     1      48.019   7.829  14.347  0.00  0.00    +0.000 A 
ATOM      6  N   UNL     1      48.449   7.702  15.608  0.00  0.00    +0.000 NA
ENDROOT
BRANCH   1   7
ATOM      7  C   UNL     1      50.249   7.691  17.319  0.00  0.00    +0.000 C 
BRANCH   7   8
ATOM      8  N   UNL     1      49.820   6.541  18.155  0.00  0.00    +0.000 NA
ATOM      9  C   UNL     1      50.435   5.314  17.634  0.00  0.00    +0.000 C 
BRANCH   8  10
ATOM     10  C   UNL     1      48.326   6.445  18.253  0.00  0.00    +0.000 C 
BRANCH  10  11
ATOM     11  C   UNL     1      47.773   7.383  19.333  0.00  0.00    +0.000 A 
ATOM     12  C   UNL     1      47.817   7.017  20.683  0.00  0.00    +0.000 A 
ATOM     13  C   UNL     1      47.436   7.920  21.673  0.00  0.00    +0.000 A 
ATOM     14  C   UNL     1      47.019   9.206  21.329  0.00  0.00    +0.000 A 
ATOM     15  C   UNL     1      46.960   9.584  19.991  0.00  0.00    +0.000 A 
ATOM     16  C   UNL     1      47.319   8.673  18.998  0.00  0.00    +0.000 A 
ENDBRANCH  10  11
BRANCH  10  17
ATOM     17  C   UNL     1      47.865   4.984  18.488  0.00  0.00    +0.000 C 
BRANCH  17  18
ATOM     18  N   UNL     1      46.702   4.583  17.680  0.00  0.00    +0.000 NA
ATOM     19  H   UNL     1      45.952   4.294  18.313  0.00  0.00    +0.000 HD
BRANCH  18  21
ATOM     20  C   UNL     1      47.325   4.111  15.395  0.00  0.00    +0.000 C 
ATOM     21  C   UNL     1      47.034   3.493  16.760  0.00  0.00    +0.000 C 
ATOM     22  C   UNL     1      48.245   2.674  17.225  0.00  0.00    +0.000 C 
ENDBRANCH  18  21
ENDBRANCH  17  18
ENDBRANCH  10  17
ENDBRANCH   8  10
ENDBRANCH   7   8
ENDBRANCH   1   7
BRANCH   4  23
ATOM     23  C   UNL     1      48.312   8.173  11.904  0.00  0.00    +0.000 C 
BRANCH  23  24
ATOM     24  N   UNL     1      47.591   7.021  11.446  0.00  0.00    +0.000 N 
ATOM     25  C   UNL     1      46.233   7.030  11.273  0.00  0.00    +0.000 C 
ATOM     26  O   UNL     1      45.544   8.019  11.496  0.00  0.00    +0.000 OA
ATOM     27  H   UNL     1      48.067   6.129  11.525  0.00  0.00    +0.000 HD
BRANCH  25  28
ATOM     28  C   UNL     1      45.657   5.785  10.758  0.00  0.00    +0.000 A 
ATOM     29  C   UNL     1      45.848   5.437   9.430  0.00  0.00    +0.000 A 
ATOM     30  S   UNL     1      45.137   3.944   9.013  0.00  0.00    +0.000 S 
ATOM     31  C   UNL     1      44.514   3.734  10.586  0.00  0.00    +0.000 A 
ATOM     32  N   UNL     1      43.765   2.645  10.902  0.00  0.00    +0.000 NA
ATOM     33  C   UNL     1      43.336   2.636  12.125  0.00  0.00    +0.000 A 
ATOM     34  N   UNL     1      43.598   3.598  13.052  0.00  0.00    +0.000 N 
ATOM     35  C   UNL     1      44.395   4.690  12.791  0.00  0.00    +0.000 A 
ATOM     36  O   UNL     1      44.697   5.490  13.676  0.00  0.00    +0.000 OA
ATOM     37  C   UNL     1      44.872   4.773  11.424  0.00  0.00    +0.000 A 
ATOM     38  H   UNL     1      43.260   3.518  14.000  0.00  0.00    +0.000 HD
ENDBRANCH  25  28
ENDBRANCH  23  24
ENDBRANCH   4  23
TORSDOF 10
ENDMDL
MODEL 8
REMARK VINA RESULT:    -6.262      3.823      9.548
REMARK INTER + INTRA:         -11.760
REMARK INTER:                 -10.340
REMARK INTRA:                  -1.420
REMARK UNBOUND:                -1.837
REMARK  Name = 
REMARK  13 active torsions:
REMARK  status: ('A' for Active; 'I' for Inactive)
REMARK    1  A    between atoms: C_1  and  C_2
REMARK    2  A    between atoms: C_2  and  C_3
REMARK    3  A    between atoms: C_2  and  N_4
REMARK    4  A    between atoms: N_4  and  C_5
REMARK    5  A    between atoms: C_5  and  C_6
REMARK    6  A    between atoms: C_6  and  C_7
REMARK    7  A    between atoms: C_6  and  N_13
REMARK    8  A    between atoms: N_13  and  C_14
REMARK    9  A    between atoms: N_13  and  C_15
REMARK   10  A    between atoms: C_15  and  C_16
REMARK   11  A    between atoms: C_19  and  C_20
REMARK   12  A    between atoms: C_20  and  N_21
REMARK   13  A    between atoms: C_22  and  C_24
REMARK                            x       y       z     vdW  Elec       q    Type
REMARK                         _______ _______ _______ _____ _____    ______ ____
ROOT
ATOM      1  C   UNL     1      50.547   6.636  15.949  0.00  0.00    +0.000 A 
ATOM      2  C   UNL     1      50.991   7.593  15.058  0.00  0.00    +0.000 A 
ATOM      3  C   UNL     1      50.118   8.024  14.059  0.00  0.00    +0.000 A 
ATOM      4  C   UNL     1      48.819   7.518  13.991  0.00  0.00    +0.000 A 
ATOM      5  C   UNL     1      48.472   6.544  14.900  0.00  0.00    +0.000 A 
ATOM      6  N   UNL     1      49.304   6.111  15.855  0.00  0.00    +0.000 NA
ENDROOT
BRANCH   1   7
ATOM      7  C   UNL     1      51.442   6.222  17.115  0.00  0.00    +0.000 C 
BRANCH   7   8
ATOM      8  N   UNL     1      50.954   6.522  18.485  0.00  0.00    +0.000 NA
ATOM      9  C   UNL     1      51.942   7.363  19.172  0.00  0.00    +0.000 C 
BRANCH   8  10
ATOM     10  C   UNL     1      50.623   5.274  19.249  0.00  0.00    +0.000 C 
BRANCH  10  11
ATOM     11  C   UNL     1      51.138   4.022  18.529  0.00  0.00    +0.000 A 
ATOM     12  C   UNL     1      52.449   3.574  18.731  0.00  0.00    +0.000 A 
ATOM     13  C   UNL     1      52.876   2.368  18.180  0.00  0.00    +0.000 A 
ATOM     14  C   UNL     1      51.996   1.585  17.433  0.00  0.00    +0.000 A 
ATOM     15  C   UNL     1      50.692   2.020  17.214  0.00  0.00    +0.000 A 
ATOM     16  C   UNL     1      50.271   3.238  17.744  0.00  0.00    +0.000 A 
ENDBRANCH  10  11
BRANCH  10  17
ATOM     17  C   UNL     1      49.103   5.171  19.537  0.00  0.00    +0.000 C 
BRANCH  17  18
ATOM     18  N   UNL     1      48.277   6.100  18.750  0.00  0.00    +0.000 NA
ATOM     19  H   UNL     1      48.896   6.724  18.231  0.00  0.00    +0.000 HD
BRANCH  18  21
ATOM     20  C   UNL     1      47.325   6.194  20.968  0.00  0.00    +0.000 C 
ATOM     21  C   UNL     1      47.376   6.877  19.605  0.00  0.00    +0.000 C 
ATOM     22  C   UNL     1      47.829   8.333  19.773  0.00  0.00    +0.000 C 
ENDBRANCH  18  21
ENDBRANCH  17  18
ENDBRANCH  10  17
ENDBRANCH   8  10
ENDBRANCH   7   8
ENDBRANCH   1   7
BRANCH   4  23
ATOM     23  C   UNL     1      47.812   7.989  12.991  0.00  0.00    +0.000 C 
BRANCH  23  24
ATOM     24  N   UNL     1      47.199   6.901  12.286  0.00  0.00    +0.000 N 
ATOM     25  C   UNL     1      46.005   7.034  11.631  0.00  0.00    +0.000 C 
ATOM     26  O   UNL     1      45.380   8.088  11.602  0.00  0.00    +0.000 OA
ATOM     27  H   UNL     1      47.525   5.970  12.520  0.00  0.00    +0.000 HD
BRANCH  25  28
ATOM     28  C   UNL     1      45.537   5.838  10.925  0.00  0.00    +0.000 A 
ATOM     29  C   UNL     1      45.814   5.685   9.575  0.00  0.00    +0.000 A 
ATOM     30  S   UNL     1      45.225   4.222   8.926  0.00  0.00    +0.000 S 
ATOM     31  C   UNL     1      44.543   3.765  10.420  0.00  0.00    +0.000 A 
ATOM     32  N   UNL     1      43.854   2.600  10.547  0.00  0.00    +0.000 NA
ATOM     33  C   UNL     1      43.369   2.401  11.732  0.00  0.00    +0.000 A 
ATOM     34  N   UNL     1      43.522   3.243  12.791  0.00  0.00    +0.000 N 
ATOM     35  C   UNL     1      44.256   4.405  12.722  0.00  0.00    +0.000 A 
ATOM     36  O   UNL     1      44.462   5.094  13.721  0.00  0.00    +0.000 OA
ATOM     37  C   UNL     1      44.791   4.701  11.406  0.00  0.00    +0.000 A 
ATOM     38  H   UNL     1      43.146   3.015  13.700  0.00  0.00    +0.000 HD
ENDBRANCH  25  28
ENDBRANCH  23  24
ENDBRANCH   4  23
TORSDOF 10
ENDMDL
MODEL 9
REMARK VINA RESULT:    -6.159      3.861      8.753
REMARK INTER + INTRA:         -11.596
REMARK INTER:                  -8.967
REMARK INTRA:                  -2.629
REMARK UNBOUND:                -1.837
REMARK  Name = 
REMARK  13 active torsions:
REMARK  status: ('A' for Active; 'I' for Inactive)
REMARK    1  A    between atoms: C_1  and  C_2
REMARK    2  A    between atoms: C_2  and  C_3
REMARK    3  A    between atoms: C_2  and  N_4
REMARK    4  A    between atoms: N_4  and  C_5
REMARK    5  A    between atoms: C_5  and  C_6
REMARK    6  A    between atoms: C_6  and  C_7
REMARK    7  A    between atoms: C_6  and  N_13
REMARK    8  A    between atoms: N_13  and  C_14
REMARK    9  A    between atoms: N_13  and  C_15
REMARK   10  A    between atoms: C_15  and  C_16
REMARK   11  A    between atoms: C_19  and  C_20
REMARK   12  A    between atoms: C_20  and  N_21
REMARK   13  A    between atoms: C_22  and  C_24
REMARK                            x       y       z     vdW  Elec       q    Type
REMARK                         _______ _______ _______ _____ _____    ______ ____
ROOT
ATOM      1  C   UNL     1      50.352   8.509  16.429  0.00  0.00    +0.000 A 
ATOM      2  C   UNL     1      50.968   8.060  15.277  0.00  0.00    +0.000 A 
ATOM      3  C   UNL     1      50.298   8.217  14.064  0.00  0.00    +0.000 A 
ATOM      4  C   UNL     1      49.052   8.843  14.021  0.00  0.00    +0.000 A 
ATOM      5  C   UNL     1      48.499   9.231  15.221  0.00  0.00    +0.000 A 
ATOM      6  N   UNL     1      49.124   9.074  16.394  0.00  0.00    +0.000 NA
ENDROOT
BRANCH   1   7
ATOM      7  C   UNL     1      51.104   8.447  17.756  0.00  0.00    +0.000 C 
BRANCH   7   8
ATOM      8  N   UNL     1      51.014   7.182  18.530  0.00  0.00    +0.000 NA
ATOM      9  C   UNL     1      52.225   6.388  18.291  0.00  0.00    +0.000 C 
BRANCH   8  10
ATOM     10  C   UNL     1      49.755   6.427  18.225  0.00  0.00    +0.000 C 
BRANCH  10  11
ATOM     11  C   UNL     1      48.952   6.137  19.499  0.00  0.00    +0.000 A 
ATOM     12  C   UNL     1      49.243   5.014  20.283  0.00  0.00    +0.000 A 
ATOM     13  C   UNL     1      48.603   4.820  21.505  0.00  0.00    +0.000 A 
ATOM     14  C   UNL     1      47.676   5.753  21.969  0.00  0.00    +0.000 A 
ATOM     15  C   UNL     1      47.367   6.870  21.198  0.00  0.00    +0.000 A 
ATOM     16  C   UNL     1      47.988   7.052  19.964  0.00  0.00    +0.000 A 
ENDBRANCH  10  11
BRANCH  10  17
ATOM     17  C   UNL     1      50.050   5.124  17.438  0.00  0.00    +0.000 C 
BRANCH  17  18
ATOM     18  N   UNL     1      49.066   4.819  16.387  0.00  0.00    +0.000 NA
ATOM     19  H   UNL     1      48.381   5.576  16.356  0.00  0.00    +0.000 HD
BRANCH  18  21
ATOM     20  C   UNL     1      49.367   2.646  17.399  0.00  0.00    +0.000 C 
ATOM     21  C   UNL     1      48.396   3.539  16.631  0.00  0.00    +0.000 C 
ATOM     22  C   UNL     1      47.096   3.695  17.429  0.00  0.00    +0.000 C 
ENDBRANCH  18  21
ENDBRANCH  17  18
ENDBRANCH  10  17
ENDBRANCH   8  10
ENDBRANCH   7   8
ENDBRANCH   1   7
BRANCH   4  23
ATOM     23  C   UNL     1      48.314   9.106  12.747  0.00  0.00    +0.000 C 
BRANCH  23  24
ATOM     24  N   UNL     1      47.435   8.027  12.399  0.00  0.00    +0.000 N 
ATOM     25  C   UNL     1      46.095   8.058  12.677  0.00  0.00    +0.000 C 
ATOM     26  O   UNL     1      45.557   9.006  13.238  0.00  0.00    +0.000 OA
ATOM     27  H   UNL     1      47.871   7.134  12.201  0.00  0.00    +0.000 HD
BRANCH  25  28
ATOM     28  C   UNL     1      45.330   6.897  12.216  0.00  0.00    +0.000 A 
ATOM     29  C   UNL     1      44.209   7.082  11.421  0.00  0.00    +0.000 A 
ATOM     30  S   UNL     1      43.464   5.622  10.953  0.00  0.00    +0.000 S 
ATOM     31  C   UNL     1      44.591   4.694  11.832  0.00  0.00    +0.000 A 
ATOM     32  N   UNL     1      44.501   3.339  11.873  0.00  0.00    +0.000 NA
ATOM     33  C   UNL     1      45.409   2.772  12.604  0.00  0.00    +0.000 A 
ATOM     34  N   UNL     1      46.393   3.429  13.278  0.00  0.00    +0.000 N 
ATOM     35  C   UNL     1      46.554   4.794  13.221  0.00  0.00    +0.000 A 
ATOM     36  O   UNL     1      47.512   5.351  13.757  0.00  0.00    +0.000 OA
ATOM     37  C   UNL     1      45.541   5.488  12.447  0.00  0.00    +0.000 A 
ATOM     38  H   UNL     1      47.091   2.927  13.806  0.00  0.00    +0.000 HD
ENDBRANCH  25  28
ENDBRANCH  23  24
ENDBRANCH   4  23
TORSDOF 10
ENDMDL
