MODEL 1
REMARK VINA RESULT:    -7.915      0.000      0.000
REMARK INTER + INTRA:         -10.440
REMARK INTER:                  -9.766
REMARK INTRA:                  -0.674
REMARK UNBOUND:                -0.674
REMARK  Name = 
REMARK  4 active torsions:
REMARK  status: ('A' for Active; 'I' for Inactive)
REMARK    1  A    between atoms: C_5  and  C_6
REMARK    2  A    between atoms: C_10  and  C_11
REMARK    3  A    between atoms: C_11  and  C_12
REMARK    4  A    between atoms: C_12  and  C_13
REMARK                            x       y       z     vdW  Elec       q    Type
REMARK                         _______ _______ _______ _____ _____    ______ ____
ROOT
ATOM      1  C   UNL     1      47.032   6.533  12.497  0.00  0.00    +0.000 A 
ATOM      2  C   UNL     1      47.675   5.690  13.401  0.00  0.00    +0.000 A 
ATOM      3  N   UNL     1      47.262   4.431  13.667  0.00  0.00    +0.000 NA
ATOM      4  C   UNL     1      46.146   4.049  13.006  0.00  0.00    +0.000 A 
ATOM      5  C   UNL     1      45.432   4.874  12.132  0.00  0.00    +0.000 A 
ATOM      6  N   UNL     1      45.895   6.127  11.871  0.00  0.00    +0.000 NA
ENDROOT
BRANCH   1  11
ATOM      7  F   UNL     1      48.852  11.642  11.222  0.00  0.00    +0.000 F 
ATOM      8  C   UNL     1      48.422  10.406  11.513  0.00  0.00    +0.000 A 
ATOM      9  C   UNL     1      49.310   9.355  11.409  0.00  0.00    +0.000 A 
ATOM     10  C   UNL     1      48.859   8.072  11.722  0.00  0.00    +0.000 A 
ATOM     11  C   UNL     1      47.533   7.866  12.132  0.00  0.00    +0.000 A 
ATOM     12  C   UNL     1      46.734   9.011  12.203  0.00  0.00    +0.000 A 
ATOM     13  N   UNL     1      47.140  10.267  11.902  0.00  0.00    +0.000 NA
ENDBRANCH   1  11
BRANCH   5  14
ATOM     14  C   UNL     1      44.137   4.399  11.471  0.00  0.00    +0.000 C 
ATOM     15  C   UNL     1      42.849   4.601  12.263  0.00  0.00    +0.000 C 
ATOM     16  C   UNL     1      43.379   3.216  12.062  0.00  0.00    +0.000 C 
BRANCH  14  17
ATOM     17  C   UNL     1      44.064   4.593   9.962  0.00  0.00    +0.000 C 
BRANCH  17  18
ATOM     18  C   UNL     1      45.025   3.740   9.155  0.00  0.00    +0.000 A 
ATOM     19  C   UNL     1      45.088   2.343   9.271  0.00  0.00    +0.000 A 
ATOM     20  C   UNL     1      45.917   1.592   8.432  0.00  0.00    +0.000 A 
ATOM     21  C   UNL     1      46.681   2.229   7.461  0.00  0.00    +0.000 A 
ATOM     22 CL   UNL     1      47.668   1.299   6.402  0.00  0.00    +0.000 Cl
ATOM     23  C   UNL     1      46.639   3.614   7.333  0.00  0.00    +0.000 A 
ATOM     24  C   UNL     1      45.815   4.364   8.175  0.00  0.00    +0.000 A 
ENDBRANCH  17  18
ENDBRANCH  14  17
ENDBRANCH   5  14
TORSDOF 4
ENDMDL
MODEL 2
REMARK VINA RESULT:    -7.883      2.829      4.212
REMARK INTER + INTRA:         -10.401
REMARK INTER:                  -9.910
REMARK INTRA:                  -0.490
REMARK UNBOUND:                -0.674
REMARK  Name = 
REMARK  4 active torsions:
REMARK  status: ('A' for Active; 'I' for Inactive)
REMARK    1  A    between atoms: C_5  and  C_6
REMARK    2  A    between atoms: C_10  and  C_11
REMARK    3  A    between atoms: C_11  and  C_12
REMARK    4  A    between atoms: C_12  and  C_13
REMARK                            x       y       z     vdW  Elec       q    Type
REMARK                         _______ _______ _______ _____ _____    ______ ____
ROOT
ATOM      1  C   UNL     1      47.001   5.345  13.656  0.00  0.00    +0.000 A 
ATOM      2  C   UNL     1      47.628   6.353  12.927  0.00  0.00    +0.000 A 
ATOM      3  N   UNL     1      47.144   6.842  11.764  0.00  0.00    +0.000 NA
ATOM      4  C   UNL     1      46.003   6.255  11.334  0.00  0.00    +0.000 A 
ATOM      5  C   UNL     1      45.365   5.204  11.998  0.00  0.00    +0.000 A 
ATOM      6  N   UNL     1      45.870   4.757  13.180  0.00  0.00    +0.000 NA
ENDROOT
BRANCH   1  11
ATOM      7  F   UNL     1      48.812   3.447  18.570  0.00  0.00    +0.000 F 
ATOM      8  C   UNL     1      48.370   3.920  17.397  0.00  0.00    +0.000 A 
ATOM      9  C   UNL     1      48.655   5.227  17.060  0.00  0.00    +0.000 A 
ATOM     10  C   UNL     1      48.199   5.710  15.832  0.00  0.00    +0.000 A 
ATOM     11  C   UNL     1      47.471   4.879  14.968  0.00  0.00    +0.000 A 
ATOM     12  C   UNL     1      47.252   3.574  15.421  0.00  0.00    +0.000 A 
ATOM     13  N   UNL     1      47.676   3.077  16.607  0.00  0.00    +0.000 NA
ENDBRANCH   1  11
BRANCH   5  14
ATOM     14  C   UNL     1      44.114   4.543  11.417  0.00  0.00    +0.000 C 
ATOM     15  C   UNL     1      42.828   4.677  12.228  0.00  0.00    +0.000 C 
ATOM     16  C   UNL     1      43.497   3.342  12.127  0.00  0.00    +0.000 C 
BRANCH  14  17
ATOM     17  C   UNL     1      43.988   4.598   9.900  0.00  0.00    +0.000 C 
BRANCH  17  18
ATOM     18  C   UNL     1      44.964   3.720   9.140  0.00  0.00    +0.000 A 
ATOM     19  C   UNL     1      45.006   2.325   9.283  0.00  0.00    +0.000 A 
ATOM     20  C   UNL     1      45.853   1.548   8.485  0.00  0.00    +0.000 A 
ATOM     21  C   UNL     1      46.656   2.159   7.528  0.00  0.00    +0.000 A 
ATOM     22 CL   UNL     1      47.665   1.198   6.518  0.00  0.00    +0.000 Cl
ATOM     23  C   UNL     1      46.635   3.541   7.374  0.00  0.00    +0.000 A 
ATOM     24  C   UNL     1      45.793   4.316   8.175  0.00  0.00    +0.000 A 
ENDBRANCH  17  18
ENDBRANCH  14  17
ENDBRANCH   5  14
TORSDOF 4
ENDMDL
MODEL 3
REMARK VINA RESULT:    -7.598      1.800      2.489
REMARK INTER + INTRA:         -10.048
REMARK INTER:                  -9.338
REMARK INTRA:                  -0.710
REMARK UNBOUND:                -0.674
REMARK  Name = 
REMARK  4 active torsions:
REMARK  status: ('A' for Active; 'I' for Inactive)
REMARK    1  A    between atoms: C_5  and  C_6
REMARK    2  A    between atoms: C_10  and  C_11
REMARK    3  A    between atoms: C_11  and  C_12
REMARK    4  A    between atoms: C_12  and  C_13
REMARK                            x       y       z     vdW  Elec       q    Type
REMARK                         _______ _______ _______ _____ _____    ______ ____
ROOT
ATOM      1  C   UNL     1      46.572   7.226  12.219  0.00  0.00    +0.000 A 
ATOM      2  C   UNL     1      45.707   8.263  11.877  0.00  0.00    +0.000 A 
ATOM      3  N   UNL     1      44.437   8.066  11.458  0.00  0.00    +0.000 NA
ATOM      4  C   UNL     1      44.067   6.769  11.364  0.00  0.00    +0.000 A 
ATOM      5  C   UNL     1      44.912   5.691  11.641  0.00  0.00    +0.000 A 
ATOM      6  N   UNL     1      46.175   5.931  12.086  0.00  0.00    +0.000 NA
ENDROOT
BRANCH   1  11
ATOM      7  F   UNL     1      51.680   7.894  14.340  0.00  0.00    +0.000 F 
ATOM      8  C   UNL     1      50.450   7.752  13.827  0.00  0.00    +0.000 A 
ATOM      9  C   UNL     1      50.149   8.392  12.642  0.00  0.00    +0.000 A 
ATOM     10  C   UNL     1      48.869   8.233  12.108  0.00  0.00    +0.000 A 
ATOM     11  C   UNL     1      47.919   7.439  12.767  0.00  0.00    +0.000 A 
ATOM     12  C   UNL     1      48.347   6.839  13.955  0.00  0.00    +0.000 A 
ATOM     13  N   UNL     1      49.578   6.978  14.502  0.00  0.00    +0.000 NA
ENDBRANCH   1  11
BRANCH   5  14
ATOM     14  C   UNL     1      44.445   4.247  11.448  0.00  0.00    +0.000 C 
ATOM     15  C   UNL     1      43.706   3.603  12.617  0.00  0.00    +0.000 C 
ATOM     16  C   UNL     1      45.083   3.132  12.269  0.00  0.00    +0.000 C 
BRANCH  14  17
ATOM     17  C   UNL     1      43.968   3.896  10.045  0.00  0.00    +0.000 C 
BRANCH  17  18
ATOM     18  C   UNL     1      45.041   3.366   9.113  0.00  0.00    +0.000 A 
ATOM     19  C   UNL     1      45.323   1.998   8.973  0.00  0.00    +0.000 A 
ATOM     20  C   UNL     1      46.249   1.552   8.025  0.00  0.00    +0.000 A 
ATOM     21  C   UNL     1      46.894   2.467   7.201  0.00  0.00    +0.000 A 
ATOM     22 CL   UNL     1      48.001   1.912   6.007  0.00  0.00    +0.000 Cl
ATOM     23  C   UNL     1      46.634   3.828   7.326  0.00  0.00    +0.000 A 
ATOM     24  C   UNL     1      45.712   4.274   8.277  0.00  0.00    +0.000 A 
ENDBRANCH  17  18
ENDBRANCH  14  17
ENDBRANCH   5  14
TORSDOF 4
ENDMDL
MODEL 4
REMARK VINA RESULT:    -7.357      2.730      3.383
REMARK INTER + INTRA:          -9.752
REMARK INTER:                  -9.069
REMARK INTRA:                  -0.683
REMARK UNBOUND:                -0.674
REMARK  Name = 
REMARK  4 active torsions:
REMARK  status: ('A' for Active; 'I' for Inactive)
REMARK    1  A    between atoms: C_5  and  C_6
REMARK    2  A    between atoms: C_10  and  C_11
REMARK    3  A    between atoms: C_11  and  C_12
REMARK    4  A    between atoms: C_12  and  C_13
REMARK                            x       y       z     vdW  Elec       q    Type
REMARK                         _______ _______ _______ _____ _____    ______ ____
ROOT
ATOM      1  C   UNL     1      44.895   8.462  11.578  0.00  0.00    +0.000 A 
ATOM      2  C   UNL     1      46.222   8.581  11.985  0.00  0.00    +0.000 A 
ATOM      3  N   UNL     1      47.031   7.520  12.207  0.00  0.00    +0.000 NA
ATOM      4  C   UNL     1      46.444   6.314  12.030  0.00  0.00    +0.000 A 
ATOM      5  C   UNL     1      45.103   6.139  11.677  0.00  0.00    +0.000 A 
ATOM      6  N   UNL     1      44.329   7.233  11.437  0.00  0.00    +0.000 NA
ENDROOT
BRANCH   1  11
ATOM      7  F   UNL     1      41.780  12.904  10.313  0.00  0.00    +0.000 F 
ATOM      8  C   UNL     1      42.513  11.825  10.619  0.00  0.00    +0.000 A 
ATOM      9  C   UNL     1      42.227  10.629   9.991  0.00  0.00    +0.000 A 
ATOM     10  C   UNL     1      43.001   9.512  10.308  0.00  0.00    +0.000 A 
ATOM     11  C   UNL     1      44.043   9.611  11.242  0.00  0.00    +0.000 A 
ATOM     12  C   UNL     1      44.236  10.876  11.804  0.00  0.00    +0.000 A 
ATOM     13  N   UNL     1      43.501  11.978  11.523  0.00  0.00    +0.000 NA
ENDBRANCH   1  11
BRANCH   5  14
ATOM     14  C   UNL     1      44.489   4.744  11.562  0.00  0.00    +0.000 C 
ATOM     15  C   UNL     1      43.711   4.235  12.772  0.00  0.00    +0.000 C 
ATOM     16  C   UNL     1      45.026   3.609  12.427  0.00  0.00    +0.000 C 
BRANCH  14  17
ATOM     17  C   UNL     1      43.950   4.378  10.185  0.00  0.00    +0.000 C 
BRANCH  17  18
ATOM     18  C   UNL     1      44.924   3.638   9.287  0.00  0.00    +0.000 A 
ATOM     19  C   UNL     1      45.009   2.239   9.242  0.00  0.00    +0.000 A 
ATOM     20  C   UNL     1      45.850   1.601   8.324  0.00  0.00    +0.000 A 
ATOM     21  C   UNL     1      46.604   2.357   7.434  0.00  0.00    +0.000 A 
ATOM     22 CL   UNL     1      47.605   1.571   6.277  0.00  0.00    +0.000 Cl
ATOM     23  C   UNL     1      46.540   3.747   7.465  0.00  0.00    +0.000 A 
ATOM     24  C   UNL     1      45.704   4.383   8.386  0.00  0.00    +0.000 A 
ENDBRANCH  17  18
ENDBRANCH  14  17
ENDBRANCH   5  14
TORSDOF 4
ENDMDL
MODEL 5
REMARK VINA RESULT:    -6.869      3.895      7.067
REMARK INTER + INTRA:          -9.149
REMARK INTER:                  -9.283
REMARK INTRA:                   0.134
REMARK UNBOUND:                -0.674
REMARK  Name = 
REMARK  4 active torsions:
REMARK  status: ('A' for Active; 'I' for Inactive)
REMARK    1  A    between atoms: C_5  and  C_6
REMARK    2  A    between atoms: C_10  and  C_11
REMARK    3  A    between atoms: C_11  and  C_12
REMARK    4  A    between atoms: C_12  and  C_13
REMARK                            x       y       z     vdW  Elec       q    Type
REMARK                         _______ _______ _______ _____ _____    ______ ____
ROOT
ATOM      1  C   UNL     1      44.951   4.556   9.939  0.00  0.00    +0.000 A 
ATOM      2  C   UNL     1      43.591   4.583  10.242  0.00  0.00    +0.000 A 
ATOM      3  N   UNL     1      43.023   5.519  11.033  0.00  0.00    +0.000 NA
ATOM      4  C   UNL     1      43.885   6.428  11.544  0.00  0.00    +0.000 A 
ATOM      5  C   UNL     1      45.264   6.413  11.318  0.00  0.00    +0.000 A 
ATOM      6  N   UNL     1      45.794   5.469  10.493  0.00  0.00    +0.000 NA
ENDROOT
BRANCH   1  11
ATOM      7  F   UNL     1      47.132   0.838   6.410  0.00  0.00    +0.000 F 
ATOM      8  C   UNL     1      46.623   1.742   7.258  0.00  0.00    +0.000 A 
ATOM      9  C   UNL     1      46.760   3.082   6.958  0.00  0.00    +0.000 A 
ATOM     10  C   UNL     1      46.220   4.019   7.841  0.00  0.00    +0.000 A 
ATOM     11  C   UNL     1      45.556   3.599   9.003  0.00  0.00    +0.000 A 
ATOM     12  C   UNL     1      45.479   2.216   9.192  0.00  0.00    +0.000 A 
ATOM     13  N   UNL     1      45.996   1.282   8.358  0.00  0.00    +0.000 NA
ENDBRANCH   1  11
BRANCH   5  14
ATOM     14  C   UNL     1      46.189   7.433  11.984  0.00  0.00    +0.000 C 
ATOM     15  C   UNL     1      45.548   8.384  12.990  0.00  0.00    +0.000 C 
ATOM     16  C   UNL     1      46.022   8.916  11.675  0.00  0.00    +0.000 C 
BRANCH  14  17
ATOM     17  C   UNL     1      47.596   6.937  12.293  0.00  0.00    +0.000 C 
BRANCH  17  18
ATOM     18  C   UNL     1      47.745   6.204  13.612  0.00  0.00    +0.000 A 
ATOM     19  C   UNL     1      48.504   6.704  14.681  0.00  0.00    +0.000 A 
ATOM     20  C   UNL     1      48.528   6.043  15.914  0.00  0.00    +0.000 A 
ATOM     21  C   UNL     1      47.784   4.882  16.092  0.00  0.00    +0.000 A 
ATOM     22 CL   UNL     1      47.781   4.093  17.621  0.00  0.00    +0.000 Cl
ATOM     23  C   UNL     1      47.030   4.364  15.043  0.00  0.00    +0.000 A 
ATOM     24  C   UNL     1      47.010   5.023  13.811  0.00  0.00    +0.000 A 
ENDBRANCH  17  18
ENDBRANCH  14  17
ENDBRANCH   5  14
TORSDOF 4
ENDMDL
MODEL 6
REMARK VINA RESULT:    -6.792      3.701      6.648
REMARK INTER + INTRA:          -9.054
REMARK INTER:                  -8.375
REMARK INTRA:                  -0.679
REMARK UNBOUND:                -0.674
REMARK  Name = 
REMARK  4 active torsions:
REMARK  status: ('A' for Active; 'I' for Inactive)
REMARK    1  A    between atoms: C_5  and  C_6
REMARK    2  A    between atoms: C_10  and  C_11
REMARK    3  A    between atoms: C_11  and  C_12
REMARK    4  A    between atoms: C_12  and  C_13
REMARK                            x       y       z     vdW  Elec       q    Type
REMARK                         _______ _______ _______ _____ _____    ______ ____
ROOT
ATOM      1  C   UNL     1      44.821   3.175   9.648  0.00  0.00    +0.000 A 
ATOM      2  C   UNL     1      44.065   2.197  10.291  0.00  0.00    +0.000 A 
ATOM      3  N   UNL     1      43.249   2.456  11.337  0.00  0.00    +0.000 NA
ATOM      4  C   UNL     1      43.237   3.747  11.740  0.00  0.00    +0.000 A 
ATOM      5  C   UNL     1      44.017   4.755  11.166  0.00  0.00    +0.000 A 
ATOM      6  N   UNL     1      44.807   4.459  10.098  0.00  0.00    +0.000 NA
ENDROOT
BRANCH   1  11
ATOM      7  F   UNL     1      47.958   2.326   5.123  0.00  0.00    +0.000 F 
ATOM      8  C   UNL     1      47.194   2.514   6.208  0.00  0.00    +0.000 A 
ATOM      9  C   UNL     1      47.012   1.460   7.080  0.00  0.00    +0.000 A 
ATOM     10  C   UNL     1      46.223   1.665   8.213  0.00  0.00    +0.000 A 
ATOM     11  C   UNL     1      45.634   2.916   8.451  0.00  0.00    +0.000 A 
ATOM     12  C   UNL     1      45.898   3.903   7.497  0.00  0.00    +0.000 A 
ATOM     13  N   UNL     1      46.654   3.735   6.386  0.00  0.00    +0.000 NA
ENDBRANCH   1  11
BRANCH   5  14
ATOM     14  C   UNL     1      44.004   6.181  11.718  0.00  0.00    +0.000 C 
ATOM     15  C   UNL     1      42.675   6.927  11.659  0.00  0.00    +0.000 C 
ATOM     16  C   UNL     1      43.799   7.355  10.769  0.00  0.00    +0.000 C 
BRANCH  14  17
ATOM     17  C   UNL     1      44.880   6.416  12.942  0.00  0.00    +0.000 C 
BRANCH  17  18
ATOM     18  C   UNL     1      46.141   7.221  12.688  0.00  0.00    +0.000 A 
ATOM     19  C   UNL     1      47.232   6.721  11.961  0.00  0.00    +0.000 A 
ATOM     20  C   UNL     1      48.329   7.536  11.665  0.00  0.00    +0.000 A 
ATOM     21  C   UNL     1      48.340   8.862  12.082  0.00  0.00    +0.000 A 
ATOM     22 CL   UNL     1      49.671   9.876  11.679  0.00  0.00    +0.000 Cl
ATOM     23  C   UNL     1      47.271   9.377  12.809  0.00  0.00    +0.000 A 
ATOM     24  C   UNL     1      46.178   8.561  13.109  0.00  0.00    +0.000 A 
ENDBRANCH  17  18
ENDBRANCH  14  17
ENDBRANCH   5  14
TORSDOF 4
ENDMDL
MODEL 7
REMARK VINA RESULT:    -6.285      4.786      7.792
REMARK INTER + INTRA:          -8.429
REMARK INTER:                  -7.783
REMARK INTRA:                  -0.645
REMARK UNBOUND:                -0.674
REMARK  Name = 
REMARK  4 active torsions:
REMARK  status: ('A' for Active; 'I' for Inactive)
REMARK    1  A    between atoms: C_5  and  C_6
REMARK    2  A    between atoms: C_10  and  C_11
REMARK    3  A    between atoms: C_11  and  C_12
REMARK    4  A    between atoms: C_12  and  C_13
REMARK                            x       y       z     vdW  Elec       q    Type
REMARK                         _______ _______ _______ _____ _____    ______ ____
ROOT
ATOM      1  C   UNL     1      47.825   6.236  13.356  0.00  0.00    +0.000 A 
ATOM      2  C   UNL     1      48.795   6.891  12.601  0.00  0.00    +0.000 A 
ATOM      3  N   UNL     1      49.835   7.561  13.146  0.00  0.00    +0.000 NA
ATOM      4  C   UNL     1      49.851   7.578  14.499  0.00  0.00    +0.000 A 
ATOM      5  C   UNL     1      48.873   6.985  15.302  0.00  0.00    +0.000 A 
ATOM      6  N   UNL     1      47.856   6.297  14.715  0.00  0.00    +0.000 NA
ENDROOT
BRANCH   1  11
ATOM      7  F   UNL     1      43.700   3.133  11.260  0.00  0.00    +0.000 F 
ATOM      8  C   UNL     1      44.700   3.880  11.747  0.00  0.00    +0.000 A 
ATOM      9  C   UNL     1      45.060   5.027  11.068  0.00  0.00    +0.000 A 
ATOM     10  C   UNL     1      46.097   5.806  11.586  0.00  0.00    +0.000 A 
ATOM     11  C   UNL     1      46.749   5.425  12.768  0.00  0.00    +0.000 A 
ATOM     12  C   UNL     1      46.288   4.247  13.364  0.00  0.00    +0.000 A 
ATOM     13  N   UNL     1      45.290   3.467  12.885  0.00  0.00    +0.000 NA
ENDBRANCH   1  11
BRANCH   5  14
ATOM     14  C   UNL     1      48.919   7.102  16.826  0.00  0.00    +0.000 C 
ATOM     15  C   UNL     1      48.542   8.455  17.421  0.00  0.00    +0.000 C 
ATOM     16  C   UNL     1      49.965   7.996  17.482  0.00  0.00    +0.000 C 
BRANCH  14  17
ATOM     17  C   UNL     1      48.483   5.859  17.591  0.00  0.00    +0.000 C 
BRANCH  17  18
ATOM     18  C   UNL     1      49.409   4.664  17.461  0.00  0.00    +0.000 A 
ATOM     19  C   UNL     1      50.776   4.721  17.769  0.00  0.00    +0.000 A 
ATOM     20  C   UNL     1      51.568   3.568  17.732  0.00  0.00    +0.000 A 
ATOM     21  C   UNL     1      50.996   2.346  17.399  0.00  0.00    +0.000 A 
ATOM     22 CL   UNL     1      51.961   0.921  17.396  0.00  0.00    +0.000 Cl
ATOM     23  C   UNL     1      49.643   2.267  17.083  0.00  0.00    +0.000 A 
ATOM     24  C   UNL     1      48.855   3.420  17.115  0.00  0.00    +0.000 A 
ENDBRANCH  17  18
ENDBRANCH  14  17
ENDBRANCH   5  14
TORSDOF 4
ENDMDL
MODEL 8
REMARK VINA RESULT:    -6.209      5.258      7.960
REMARK INTER + INTRA:          -8.334
REMARK INTER:                  -8.072
REMARK INTRA:                  -0.262
REMARK UNBOUND:                -0.674
REMARK  Name = 
REMARK  4 active torsions:
REMARK  status: ('A' for Active; 'I' for Inactive)
REMARK    1  A    between atoms: C_5  and  C_6
REMARK    2  A    between atoms: C_10  and  C_11
REMARK    3  A    between atoms: C_11  and  C_12
REMARK    4  A    between atoms: C_12  and  C_13
REMARK                            x       y       z     vdW  Elec       q    Type
REMARK                         _______ _______ _______ _____ _____    ______ ____
ROOT
ATOM      1  C   UNL     1      47.302   5.571  13.835  0.00  0.00    +0.000 A 
ATOM      2  C   UNL     1      48.198   6.615  13.617  0.00  0.00    +0.000 A 
ATOM      3  N   UNL     1      49.121   7.005  14.524  0.00  0.00    +0.000 NA
ATOM      4  C   UNL     1      49.095   6.319  15.689  0.00  0.00    +0.000 A 
ATOM      5  C   UNL     1      48.181   5.302  15.980  0.00  0.00    +0.000 A 
ATOM      6  N   UNL     1      47.284   4.920  15.030  0.00  0.00    +0.000 NA
ENDROOT
BRANCH   1  11
ATOM      7  F   UNL     1      43.825   3.775   9.870  0.00  0.00    +0.000 F 
ATOM      8  C   UNL     1      44.649   4.201  10.837  0.00  0.00    +0.000 A 
ATOM      9  C   UNL     1      44.915   3.359  11.898  0.00  0.00    +0.000 A 
ATOM     10  C   UNL     1      45.782   3.806  12.897  0.00  0.00    +0.000 A 
ATOM     11  C   UNL     1      46.363   5.080  12.816  0.00  0.00    +0.000 A 
ATOM     12  C   UNL     1      46.019   5.834  11.690  0.00  0.00    +0.000 A 
ATOM     13  N   UNL     1      45.179   5.433  10.707  0.00  0.00    +0.000 NA
ENDBRANCH   1  11
BRANCH   5  14
ATOM     14  C   UNL     1      48.166   4.614  17.346  0.00  0.00    +0.000 C 
ATOM     15  C   UNL     1      47.060   5.031  18.311  0.00  0.00    +0.000 C 
ATOM     16  C   UNL     1      48.475   5.424  18.600  0.00  0.00    +0.000 C 
BRANCH  14  17
ATOM     17  C   UNL     1      48.571   3.146  17.344  0.00  0.00    +0.000 C 
BRANCH  17  18
ATOM     18  C   UNL     1      50.062   2.888  17.450  0.00  0.00    +0.000 A 
ATOM     19  C   UNL     1      50.984   3.878  17.824  0.00  0.00    +0.000 A 
ATOM     20  C   UNL     1      52.335   3.567  18.007  0.00  0.00    +0.000 A 
ATOM     21  C   UNL     1      52.775   2.260  17.830  0.00  0.00    +0.000 A 
ATOM     22 CL   UNL     1      54.429   1.870  18.097  0.00  0.00    +0.000 Cl
ATOM     23  C   UNL     1      51.880   1.263  17.452  0.00  0.00    +0.000 A 
ATOM     24  C   UNL     1      50.532   1.577  17.265  0.00  0.00    +0.000 A 
ENDBRANCH  17  18
ENDBRANCH  14  17
ENDBRANCH   5  14
TORSDOF 4
ENDMDL
MODEL 9
REMARK VINA RESULT:    -5.871      6.000      9.153
REMARK INTER + INTRA:          -7.918
REMARK INTER:                  -7.260
REMARK INTRA:                  -0.657
REMARK UNBOUND:                -0.674
REMARK  Name = 
REMARK  4 active torsions:
REMARK  status: ('A' for Active; 'I' for Inactive)
REMARK    1  A    between atoms: C_5  and  C_6
REMARK    2  A    between atoms: C_10  and  C_11
REMARK    3  A    between atoms: C_11  and  C_12
REMARK    4  A    between atoms: C_12  and  C_13
REMARK                            x       y       z     vdW  Elec       q    Type
REMARK                         _______ _______ _______ _____ _____    ______ ____
ROOT
ATOM      1  C   UNL     1      47.587   5.897  13.819  0.00  0.00    +0.000 A 
ATOM      2  C   UNL     1      48.376   6.961  13.385  0.00  0.00    +0.000 A 
ATOM      3  N   UNL     1      49.344   7.526  14.141  0.00  0.00    +0.000 NA
ATOM      4  C   UNL     1      49.478   6.996  15.378  0.00  0.00    +0.000 A 
ATOM      5  C   UNL     1      48.677   5.967  15.881  0.00  0.00    +0.000 A 
ATOM      6  N   UNL     1      47.730   5.407  15.080  0.00  0.00    +0.000 NA
ENDROOT
BRANCH   1  11
ATOM      7  F   UNL     1      43.788   3.265  10.709  0.00  0.00    +0.000 F 
ATOM      8  C   UNL     1      44.711   3.903  11.441  0.00  0.00    +0.000 A 
ATOM      9  C   UNL     1      45.104   5.168  11.055  0.00  0.00    +0.000 A 
ATOM     10  C   UNL     1      46.060   5.831  11.827  0.00  0.00    +0.000 A 
ATOM     11  C   UNL     1      46.601   5.218  12.967  0.00  0.00    +0.000 A 
ATOM     12  C   UNL     1      46.118   3.938  13.256  0.00  0.00    +0.000 A 
ATOM     13  N   UNL     1      45.196   3.267  12.525  0.00  0.00    +0.000 NA
ENDBRANCH   1  11
BRANCH   5  14
ATOM     14  C   UNL     1      48.840   5.464  17.316  0.00  0.00    +0.000 C 
ATOM     15  C   UNL     1      49.108   3.972  17.492  0.00  0.00    +0.000 C 
ATOM     16  C   UNL     1      47.788   4.537  17.914  0.00  0.00    +0.000 C 
BRANCH  14  17
ATOM     17  C   UNL     1      49.555   6.416  18.266  0.00  0.00    +0.000 C 
BRANCH  17  18
ATOM     18  C   UNL     1      48.654   7.154  19.238  0.00  0.00    +0.000 A 
ATOM     19  C   UNL     1      48.566   6.824  20.599  0.00  0.00    +0.000 A 
ATOM     20  C   UNL     1      47.799   7.599  21.475  0.00  0.00    +0.000 A 
ATOM     21  C   UNL     1      47.123   8.717  21.002  0.00  0.00    +0.000 A 
ATOM     22 CL   UNL     1      46.216   9.694  22.089  0.00  0.00    +0.000 Cl
ATOM     23  C   UNL     1      47.191   9.059  19.654  0.00  0.00    +0.000 A 
ATOM     24  C   UNL     1      47.953   8.282  18.779  0.00  0.00    +0.000 A 
ENDBRANCH  17  18
ENDBRANCH  14  17
ENDBRANCH   5  14
TORSDOF 4
ENDMDL
