MODEL 1
REMARK VINA RESULT:    -7.325      0.000      0.000
REMARK INTER + INTRA:         -11.378
REMARK INTER:                 -10.323
REMARK INTRA:                  -1.055
REMARK UNBOUND:                -1.055
REMARK  Name = 
REMARK  9 active torsions:
REMARK  status: ('A' for Active; 'I' for Inactive)
REMARK    1  A    between atoms: C_1  and  O_2
REMARK    2  A    between atoms: O_2  and  C_3
REMARK    3  A    between atoms: N_10  and  C_11
REMARK    4  A    between atoms: C_11  and  C_12
REMARK    5  A    between atoms: C_12  and  C_13
REMARK    6  A    between atoms: C_12  and  C_14
REMARK    7  A    between atoms: C_17  and  O_18
REMARK    8  A    between atoms: O_18  and  C_19
REMARK    9  A    between atoms: C_19  and  C_20
REMARK                            x       y       z     vdW  Elec       q    Type
REMARK                         _______ _______ _______ _____ _____    ______ ____
ROOT
ATOM      1  C   UNL     1      46.994   6.834  13.406  0.00  0.00    +0.000 C 
ATOM      2  C   UNL     1      46.593   8.289  13.119  0.00  0.00    +0.000 C 
ENDROOT
BRANCH   1   3
ATOM      3  C   UNL     1      46.240   5.891  12.488  0.00  0.00    +0.000 A 
ATOM      4  C   UNL     1      46.055   6.270  11.154  0.00  0.00    +0.000 A 
ATOM      5  C   UNL     1      45.418   5.423  10.252  0.00  0.00    +0.000 A 
ATOM      6  C   UNL     1      44.977   4.164  10.664  0.00  0.00    +0.000 A 
ATOM      7  C   UNL     1      45.104   3.797  12.004  0.00  0.00    +0.000 A 
ATOM      8  C   UNL     1      45.734   4.653  12.914  0.00  0.00    +0.000 A 
BRANCH   6   9
ATOM      9  O   UNL     1      44.424   3.226   9.834  0.00  0.00    +0.000 OA
BRANCH   9  10
ATOM     10  C   UNL     1      44.583   3.505   8.441  0.00  0.00    +0.000 C 
BRANCH  10  11
ATOM     11  C   UNL     1      45.787   2.773   7.913  0.00  0.00    +0.000 A 
ATOM     12  C   UNL     1      45.964   1.412   8.162  0.00  0.00    +0.000 A 
ATOM     13  C   UNL     1      47.078   0.784   7.627  0.00  0.00    +0.000 A 
ATOM     14  N   UNL     1      48.007   1.411   6.874  0.00  0.00    +0.000 NA
ATOM     15  C   UNL     1      47.821   2.729   6.655  0.00  0.00    +0.000 A 
ATOM     16  C   UNL     1      46.742   3.447   7.147  0.00  0.00    +0.000 A 
ENDBRANCH  10  11
ENDBRANCH   9  10
ENDBRANCH   6   9
ENDBRANCH   1   3
BRANCH   1  17
ATOM     17  C   UNL     1      48.521   6.676  13.347  0.00  0.00    +0.000 C 
BRANCH  17  25
ATOM     18  C   UNL     1      48.759   5.711  16.498  0.00  0.00    +0.000 A 
ATOM     19  C   UNL     1      49.069   5.717  17.864  0.00  0.00    +0.000 A 
ATOM     20  N   UNL     1      49.776   6.668  18.520  0.00  0.00    +0.000 NA
ATOM     21  C   UNL     1      50.263   7.709  17.805  0.00  0.00    +0.000 A 
ATOM     22  C   UNL     1      50.056   7.782  16.424  0.00  0.00    +0.000 A 
ATOM     23  N   UNL     1      50.486   8.738  15.540  0.00  0.00    +0.000 NA
ATOM     24  C   UNL     1      50.022   8.356  14.377  0.00  0.00    +0.000 A 
ATOM     25  N   UNL     1      49.278   7.205  14.468  0.00  0.00    +0.000 N 
ATOM     26  C   UNL     1      49.299   6.791  15.783  0.00  0.00    +0.000 A 
BRANCH  18  28
ATOM     27  C   UNL     1      47.264   3.893  16.705  0.00  0.00    +0.000 C 
ATOM     28  O   UNL     1      48.017   4.759  15.855  0.00  0.00    +0.000 OA
ENDBRANCH  18  28
ENDBRANCH  17  25
ENDBRANCH   1  17
TORSDOF 7
ENDMDL
MODEL 2
REMARK VINA RESULT:    -7.134      1.283      1.490
REMARK INTER + INTRA:         -11.108
REMARK INTER:                  -9.928
REMARK INTRA:                  -1.179
REMARK UNBOUND:                -1.055
REMARK  Name = 
REMARK  9 active torsions:
REMARK  status: ('A' for Active; 'I' for Inactive)
REMARK    1  A    between atoms: C_1  and  O_2
REMARK    2  A    between atoms: O_2  and  C_3
REMARK    3  A    between atoms: N_10  and  C_11
REMARK    4  A    between atoms: C_11  and  C_12
REMARK    5  A    between atoms: C_12  and  C_13
REMARK    6  A    between atoms: C_12  and  C_14
REMARK    7  A    between atoms: C_17  and  O_18
REMARK    8  A    between atoms: O_18  and  C_19
REMARK    9  A    between atoms: C_19  and  C_20
REMARK                            x       y       z     vdW  Elec       q    Type
REMARK                         _______ _______ _______ _____ _____    ______ ____
ROOT
ATOM      1  C   UNL     1      47.869   7.380  13.579  0.00  0.00    +0.000 C 
ATOM      2  C   UNL     1      48.693   8.161  12.543  0.00  0.00    +0.000 C 
ENDROOT
BRANCH   1   3
ATOM      3  C   UNL     1      46.896   6.449  12.882  0.00  0.00    +0.000 A 
ATOM      4  C   UNL     1      46.309   6.876  11.685  0.00  0.00    +0.000 A 
ATOM      5  C   UNL     1      45.450   6.044  10.974  0.00  0.00    +0.000 A 
ATOM      6  C   UNL     1      45.183   4.754  11.434  0.00  0.00    +0.000 A 
ATOM      7  C   UNL     1      45.715   4.337  12.654  0.00  0.00    +0.000 A 
ATOM      8  C   UNL     1      46.570   5.177  13.376  0.00  0.00    +0.000 A 
BRANCH   6   9
ATOM      9  O   UNL     1      44.428   3.831  10.761  0.00  0.00    +0.000 OA
BRANCH   9  10
ATOM     10  C   UNL     1      44.298   4.084   9.361  0.00  0.00    +0.000 C 
BRANCH  10  11
ATOM     11  C   UNL     1      45.317   3.275   8.605  0.00  0.00    +0.000 A 
ATOM     12  C   UNL     1      45.432   1.899   8.807  0.00  0.00    +0.000 A 
ATOM     13  C   UNL     1      46.370   1.201   8.063  0.00  0.00    +0.000 A 
ATOM     14  N   UNL     1      47.183   1.772   7.147  0.00  0.00    +0.000 NA
ATOM     15  C   UNL     1      47.062   3.105   6.976  0.00  0.00    +0.000 A 
ATOM     16  C   UNL     1      46.157   3.891   7.672  0.00  0.00    +0.000 A 
ENDBRANCH  10  11
ENDBRANCH   9  10
ENDBRANCH   6   9
ENDBRANCH   1   3
BRANCH   1  17
ATOM     17  C   UNL     1      48.796   6.680  14.584  0.00  0.00    +0.000 C 
BRANCH  17  25
ATOM     18  C   UNL     1      48.707   5.074  17.470  0.00  0.00    +0.000 A 
ATOM     19  C   UNL     1      48.572   4.824  18.842  0.00  0.00    +0.000 A 
ATOM     20  N   UNL     1      48.364   5.752  19.808  0.00  0.00    +0.000 NA
ATOM     21  C   UNL     1      48.303   7.053  19.442  0.00  0.00    +0.000 A 
ATOM     22  C   UNL     1      48.473   7.424  18.104  0.00  0.00    +0.000 A 
ATOM     23  N   UNL     1      48.465   8.679  17.553  0.00  0.00    +0.000 NA
ATOM     24  C   UNL     1      48.654   8.487  16.271  0.00  0.00    +0.000 A 
ATOM     25  N   UNL     1      48.753   7.155  15.956  0.00  0.00    +0.000 N 
ATOM     26  C   UNL     1      48.664   6.435  17.129  0.00  0.00    +0.000 A 
BRANCH  18  28
ATOM     27  C   UNL     1      47.798   3.215  16.331  0.00  0.00    +0.000 C 
ATOM     28  O   UNL     1      48.885   4.124  16.503  0.00  0.00    +0.000 OA
ENDBRANCH  18  28
ENDBRANCH  17  25
ENDBRANCH   1  17
TORSDOF 7
ENDMDL
MODEL 3
REMARK VINA RESULT:    -7.018      1.441      2.575
REMARK INTER + INTRA:         -10.945
REMARK INTER:                  -9.905
REMARK INTRA:                  -1.040
REMARK UNBOUND:                -1.055
REMARK  Name = 
REMARK  9 active torsions:
REMARK  status: ('A' for Active; 'I' for Inactive)
REMARK    1  A    between atoms: C_1  and  O_2
REMARK    2  A    between atoms: O_2  and  C_3
REMARK    3  A    between atoms: N_10  and  C_11
REMARK    4  A    between atoms: C_11  and  C_12
REMARK    5  A    between atoms: C_12  and  C_13
REMARK    6  A    between atoms: C_12  and  C_14
REMARK    7  A    between atoms: C_17  and  O_18
REMARK    8  A    between atoms: O_18  and  C_19
REMARK    9  A    between atoms: C_19  and  C_20
REMARK                            x       y       z     vdW  Elec       q    Type
REMARK                         _______ _______ _______ _____ _____    ______ ____
ROOT
ATOM      1  C   UNL     1      47.007   6.299  13.840  0.00  0.00    +0.000 C 
ATOM      2  C   UNL     1      47.541   7.656  13.355  0.00  0.00    +0.000 C 
ENDROOT
BRANCH   1   3
ATOM      3  C   UNL     1      46.323   5.566  12.702  0.00  0.00    +0.000 A 
ATOM      4  C   UNL     1      45.946   4.232  12.904  0.00  0.00    +0.000 A 
ATOM      5  C   UNL     1      45.268   3.525  11.916  0.00  0.00    +0.000 A 
ATOM      6  C   UNL     1      44.929   4.148  10.715  0.00  0.00    +0.000 A 
ATOM      7  C   UNL     1      45.348   5.457  10.478  0.00  0.00    +0.000 A 
ATOM      8  C   UNL     1      46.040   6.166  11.466  0.00  0.00    +0.000 A 
BRANCH   6   9
ATOM      9  O   UNL     1      44.185   3.567   9.722  0.00  0.00    +0.000 OA
BRANCH   9  10
ATOM     10  C   UNL     1      44.581   3.933   8.399  0.00  0.00    +0.000 C 
BRANCH  10  11
ATOM     11  C   UNL     1      45.707   3.044   7.944  0.00  0.00    +0.000 A 
ATOM     12  C   UNL     1      45.743   1.695   8.301  0.00  0.00    +0.000 A 
ATOM     13  C   UNL     1      46.790   0.918   7.830  0.00  0.00    +0.000 A 
ATOM     14  N   UNL     1      47.782   1.387   7.042  0.00  0.00    +0.000 NA
ATOM     15  C   UNL     1      47.732   2.696   6.719  0.00  0.00    +0.000 A 
ATOM     16  C   UNL     1      46.730   3.555   7.140  0.00  0.00    +0.000 A 
ENDBRANCH  10  11
ENDBRANCH   9  10
ENDBRANCH   6   9
ENDBRANCH   1   3
BRANCH   1  17
ATOM     17  C   UNL     1      48.125   5.495  14.520  0.00  0.00    +0.000 C 
BRANCH  17  25
ATOM     18  C   UNL     1      49.543   6.472  17.340  0.00  0.00    +0.000 A 
ATOM     19  C   UNL     1      49.909   6.515  18.692  0.00  0.00    +0.000 A 
ATOM     20  N   UNL     1      49.446   5.703  19.673  0.00  0.00    +0.000 NA
ATOM     21  C   UNL     1      48.523   4.769  19.347  0.00  0.00    +0.000 A 
ATOM     22  C   UNL     1      48.047   4.667  18.036  0.00  0.00    +0.000 A 
ATOM     23  N   UNL     1      47.107   3.808  17.527  0.00  0.00    +0.000 NA
ATOM     24  C   UNL     1      47.029   4.106  16.254  0.00  0.00    +0.000 A 
ATOM     25  N   UNL     1      47.904   5.104  15.902  0.00  0.00    +0.000 N 
ATOM     26  C   UNL     1      48.565   5.510  17.042  0.00  0.00    +0.000 A 
BRANCH  18  28
ATOM     27  C   UNL     1      49.458   8.579  16.276  0.00  0.00    +0.000 C 
ATOM     28  O   UNL     1      50.041   7.278  16.355  0.00  0.00    +0.000 OA
ENDBRANCH  18  28
ENDBRANCH  17  25
ENDBRANCH   1  17
TORSDOF 7
ENDMDL
MODEL 4
REMARK VINA RESULT:    -6.858      2.833      8.130
REMARK INTER + INTRA:         -10.719
REMARK INTER:                  -9.596
REMARK INTRA:                  -1.122
REMARK UNBOUND:                -1.055
REMARK  Name = 
REMARK  9 active torsions:
REMARK  status: ('A' for Active; 'I' for Inactive)
REMARK    1  A    between atoms: C_1  and  O_2
REMARK    2  A    between atoms: O_2  and  C_3
REMARK    3  A    between atoms: N_10  and  C_11
REMARK    4  A    between atoms: C_11  and  C_12
REMARK    5  A    between atoms: C_12  and  C_13
REMARK    6  A    between atoms: C_12  and  C_14
REMARK    7  A    between atoms: C_17  and  O_18
REMARK    8  A    between atoms: O_18  and  C_19
REMARK    9  A    between atoms: C_19  and  C_20
REMARK                            x       y       z     vdW  Elec       q    Type
REMARK                         _______ _______ _______ _____ _____    ______ ____
ROOT
ATOM      1  C   UNL     1      47.400   6.704  12.187  0.00  0.00    +0.000 C 
ATOM      2  C   UNL     1      47.921   8.142  12.039  0.00  0.00    +0.000 C 
ENDROOT
BRANCH   1   3
ATOM      3  C   UNL     1      47.629   6.204  13.600  0.00  0.00    +0.000 A 
ATOM      4  C   UNL     1      47.000   5.017  13.994  0.00  0.00    +0.000 A 
ATOM      5  C   UNL     1      47.214   4.482  15.260  0.00  0.00    +0.000 A 
ATOM      6  C   UNL     1      48.087   5.110  16.149  0.00  0.00    +0.000 A 
ATOM      7  C   UNL     1      48.676   6.323  15.791  0.00  0.00    +0.000 A 
ATOM      8  C   UNL     1      48.451   6.869  14.522  0.00  0.00    +0.000 A 
BRANCH   6   9
ATOM      9  O   UNL     1      48.433   4.614  17.378  0.00  0.00    +0.000 OA
BRANCH   9  10
ATOM     10  C   UNL     1      48.627   3.199  17.409  0.00  0.00    +0.000 C 
BRANCH  10  11
ATOM     11  C   UNL     1      50.089   2.893  17.586  0.00  0.00    +0.000 A 
ATOM     12  C   UNL     1      50.604   1.638  17.255  0.00  0.00    +0.000 A 
ATOM     13  C   UNL     1      51.963   1.422  17.414  0.00  0.00    +0.000 A 
ATOM     14  N   UNL     1      52.827   2.355  17.869  0.00  0.00    +0.000 NA
ATOM     15  C   UNL     1      52.307   3.557  18.193  0.00  0.00    +0.000 A 
ATOM     16  C   UNL     1      50.962   3.870  18.072  0.00  0.00    +0.000 A 
ENDBRANCH  10  11
ENDBRANCH   9  10
ENDBRANCH   6   9
ENDBRANCH   1   3
BRANCH   1  17
ATOM     17  C   UNL     1      45.940   6.611  11.719  0.00  0.00    +0.000 C 
BRANCH  17  25
ATOM     18  C   UNL     1      44.219   3.797  11.521  0.00  0.00    +0.000 A 
ATOM     19  C   UNL     1      43.701   2.595  11.022  0.00  0.00    +0.000 A 
ATOM     20  N   UNL     1      43.911   2.086   9.784  0.00  0.00    +0.000 NA
ATOM     21  C   UNL     1      44.668   2.800   8.920  0.00  0.00    +0.000 A 
ATOM     22  C   UNL     1      45.197   4.039   9.294  0.00  0.00    +0.000 A 
ATOM     23  N   UNL     1      45.961   4.906   8.555  0.00  0.00    +0.000 NA
ATOM     24  C   UNL     1      46.208   5.909   9.359  0.00  0.00    +0.000 A 
ATOM     25  N   UNL     1      45.664   5.721  10.606  0.00  0.00    +0.000 N 
ATOM     26  C   UNL     1      44.978   4.524  10.591  0.00  0.00    +0.000 A 
BRANCH  18  28
ATOM     27  C   UNL     1      42.861   5.094  12.954  0.00  0.00    +0.000 C 
ATOM     28  O   UNL     1      44.024   4.284  12.784  0.00  0.00    +0.000 OA
ENDBRANCH  18  28
ENDBRANCH  17  25
ENDBRANCH   1  17
TORSDOF 7
ENDMDL
MODEL 5
REMARK VINA RESULT:    -6.460      5.241      8.261
REMARK INTER + INTRA:         -10.158
REMARK INTER:                  -9.165
REMARK INTRA:                  -0.993
REMARK UNBOUND:                -1.055
REMARK  Name = 
REMARK  9 active torsions:
REMARK  status: ('A' for Active; 'I' for Inactive)
REMARK    1  A    between atoms: C_1  and  O_2
REMARK    2  A    between atoms: O_2  and  C_3
REMARK    3  A    between atoms: N_10  and  C_11
REMARK    4  A    between atoms: C_11  and  C_12
REMARK    5  A    between atoms: C_12  and  C_13
REMARK    6  A    between atoms: C_12  and  C_14
REMARK    7  A    between atoms: C_17  and  O_18
REMARK    8  A    between atoms: O_18  and  C_19
REMARK    9  A    between atoms: C_19  and  C_20
REMARK                            x       y       z     vdW  Elec       q    Type
REMARK                         _______ _______ _______ _____ _____    ______ ____
ROOT
ATOM      1  C   UNL     1      47.005   7.972  12.348  0.00  0.00    +0.000 C 
ATOM      2  C   UNL     1      48.378   8.659  12.292  0.00  0.00    +0.000 C 
ENDROOT
BRANCH   1   3
ATOM      3  C   UNL     1      45.922   8.918  11.866  0.00  0.00    +0.000 A 
ATOM      4  C   UNL     1      44.722   8.370  11.398  0.00  0.00    +0.000 A 
ATOM      5  C   UNL     1      43.673   9.190  10.993  0.00  0.00    +0.000 A 
ATOM      6  C   UNL     1      43.795  10.577  11.076  0.00  0.00    +0.000 A 
ATOM      7  C   UNL     1      45.005  11.137  11.486  0.00  0.00    +0.000 A 
ATOM      8  C   UNL     1      46.065  10.314  11.882  0.00  0.00    +0.000 A 
BRANCH   6   9
ATOM      9  O   UNL     1      42.790  11.463  10.789  0.00  0.00    +0.000 OA
BRANCH   9  10
ATOM     10  C   UNL     1      41.937  11.059   9.716  0.00  0.00    +0.000 C 
BRANCH  10  11
ATOM     11  C   UNL     1      40.506  11.060  10.180  0.00  0.00    +0.000 A 
ATOM     12  C   UNL     1      40.077  10.189  11.182  0.00  0.00    +0.000 A 
ATOM     13  C   UNL     1      38.754  10.253  11.589  0.00  0.00    +0.000 A 
ATOM     14  N   UNL     1      37.848  11.113  11.074  0.00  0.00    +0.000 NA
ATOM     15  C   UNL     1      38.282  11.939  10.099  0.00  0.00    +0.000 A 
ATOM     16  C   UNL     1      39.583  11.950   9.623  0.00  0.00    +0.000 A 
ENDBRANCH  10  11
ENDBRANCH   9  10
ENDBRANCH   6   9
ENDBRANCH   1   3
BRANCH   1  17
ATOM     17  C   UNL     1      47.044   6.632  11.597  0.00  0.00    +0.000 C 
BRANCH  17  25
ATOM     18  C   UNL     1      44.985   4.474  10.174  0.00  0.00    +0.000 A 
ATOM     19  C   UNL     1      44.009   3.482  10.018  0.00  0.00    +0.000 A 
ATOM     20  N   UNL     1      43.393   2.801  11.015  0.00  0.00    +0.000 NA
ATOM     21  C   UNL     1      43.757   3.069  12.291  0.00  0.00    +0.000 A 
ATOM     22  C   UNL     1      44.757   4.007  12.563  0.00  0.00    +0.000 A 
ATOM     23  N   UNL     1      45.268   4.391  13.776  0.00  0.00    +0.000 NA
ATOM     24  C   UNL     1      46.168   5.300  13.493  0.00  0.00    +0.000 A 
ATOM     25  N   UNL     1      46.244   5.550  12.144  0.00  0.00    +0.000 N 
ATOM     26  C   UNL     1      45.357   4.709  11.507  0.00  0.00    +0.000 A 
BRANCH  18  28
ATOM     27  C   UNL     1      46.021   4.390   8.052  0.00  0.00    +0.000 C 
ATOM     28  O   UNL     1      45.576   5.175   9.159  0.00  0.00    +0.000 OA
ENDBRANCH  18  28
ENDBRANCH  17  25
ENDBRANCH   1  17
TORSDOF 7
ENDMDL
MODEL 6
REMARK VINA RESULT:    -6.329      1.561      2.322
REMARK INTER + INTRA:          -9.974
REMARK INTER:                  -8.999
REMARK INTRA:                  -0.975
REMARK UNBOUND:                -1.055
REMARK  Name = 
REMARK  9 active torsions:
REMARK  status: ('A' for Active; 'I' for Inactive)
REMARK    1  A    between atoms: C_1  and  O_2
REMARK    2  A    between atoms: O_2  and  C_3
REMARK    3  A    between atoms: N_10  and  C_11
REMARK    4  A    between atoms: C_11  and  C_12
REMARK    5  A    between atoms: C_12  and  C_13
REMARK    6  A    between atoms: C_12  and  C_14
REMARK    7  A    between atoms: C_17  and  O_18
REMARK    8  A    between atoms: O_18  and  C_19
REMARK    9  A    between atoms: C_19  and  C_20
REMARK                            x       y       z     vdW  Elec       q    Type
REMARK                         _______ _______ _______ _____ _____    ______ ____
ROOT
ATOM      1  C   UNL     1      47.716   5.323  14.358  0.00  0.00    +0.000 C 
ATOM      2  C   UNL     1      47.305   4.503  15.590  0.00  0.00    +0.000 C 
ENDROOT
BRANCH   1   3
ATOM      3  C   UNL     1      46.740   5.090  13.221  0.00  0.00    +0.000 A 
ATOM      4  C   UNL     1      46.664   6.050  12.204  0.00  0.00    +0.000 A 
ATOM      5  C   UNL     1      45.826   5.865  11.109  0.00  0.00    +0.000 A 
ATOM      6  C   UNL     1      45.067   4.700  10.995  0.00  0.00    +0.000 A 
ATOM      7  C   UNL     1      45.090   3.763  12.028  0.00  0.00    +0.000 A 
ATOM      8  C   UNL     1      45.923   3.953  13.135  0.00  0.00    +0.000 A 
BRANCH   6   9
ATOM      9  O   UNL     1      44.286   4.385   9.915  0.00  0.00    +0.000 OA
BRANCH   9  10
ATOM     10  C   UNL     1      44.315   3.004   9.550  0.00  0.00    +0.000 C 
BRANCH  10  11
ATOM     11  C   UNL     1      45.384   2.776   8.516  0.00  0.00    +0.000 A 
ATOM     12  C   UNL     1      45.807   3.812   7.683  0.00  0.00    +0.000 A 
ATOM     13  C   UNL     1      46.814   3.551   6.768  0.00  0.00    +0.000 A 
ATOM     14  N   UNL     1      47.417   2.350   6.631  0.00  0.00    +0.000 NA
ATOM     15  C   UNL     1      46.984   1.360   7.439  0.00  0.00    +0.000 A 
ATOM     16  C   UNL     1      45.983   1.520   8.384  0.00  0.00    +0.000 A 
ENDBRANCH  10  11
ENDBRANCH   9  10
ENDBRANCH   6   9
ENDBRANCH   1   3
BRANCH   1  17
ATOM     17  C   UNL     1      47.896   6.802  14.733  0.00  0.00    +0.000 C 
BRANCH  17  25
ATOM     18  C   UNL     1      50.915   6.610  16.063  0.00  0.00    +0.000 A 
ATOM     19  C   UNL     1      52.261   6.887  16.336  0.00  0.00    +0.000 A 
ATOM     20  N   UNL     1      53.035   7.803  15.704  0.00  0.00    +0.000 NA
ATOM     21  C   UNL     1      52.484   8.514  14.693  0.00  0.00    +0.000 A 
ATOM     22  C   UNL     1      51.161   8.287  14.301  0.00  0.00    +0.000 A 
ATOM     23  N   UNL     1      50.448   8.888  13.296  0.00  0.00    +0.000 NA
ATOM     24  C   UNL     1      49.260   8.336  13.348  0.00  0.00    +0.000 A 
ATOM     25  N   UNL     1      49.158   7.422  14.367  0.00  0.00    +0.000 N 
ATOM     26  C   UNL     1      50.384   7.347  14.993  0.00  0.00    +0.000 A 
BRANCH  18  28
ATOM     27  C   UNL     1      50.701   5.189  17.938  0.00  0.00    +0.000 C 
ATOM     28  O   UNL     1      50.139   5.704  16.731  0.00  0.00    +0.000 OA
ENDBRANCH  18  28
ENDBRANCH  17  25
ENDBRANCH   1  17
TORSDOF 7
ENDMDL
MODEL 7
REMARK VINA RESULT:    -6.131      2.603      8.986
REMARK INTER + INTRA:          -9.694
REMARK INTER:                  -8.570
REMARK INTRA:                  -1.124
REMARK UNBOUND:                -1.055
REMARK  Name = 
REMARK  9 active torsions:
REMARK  status: ('A' for Active; 'I' for Inactive)
REMARK    1  A    between atoms: C_1  and  O_2
REMARK    2  A    between atoms: O_2  and  C_3
REMARK    3  A    between atoms: N_10  and  C_11
REMARK    4  A    between atoms: C_11  and  C_12
REMARK    5  A    between atoms: C_12  and  C_13
REMARK    6  A    between atoms: C_12  and  C_14
REMARK    7  A    between atoms: C_17  and  O_18
REMARK    8  A    between atoms: O_18  and  C_19
REMARK    9  A    between atoms: C_19  and  C_20
REMARK                            x       y       z     vdW  Elec       q    Type
REMARK                         _______ _______ _______ _____ _____    ______ ____
ROOT
ATOM      1  C   UNL     1      47.409   6.752  12.310  0.00  0.00    +0.000 C 
ATOM      2  C   UNL     1      47.901   8.198  12.145  0.00  0.00    +0.000 C 
ENDROOT
BRANCH   1   3
ATOM      3  C   UNL     1      47.687   6.258  13.716  0.00  0.00    +0.000 A 
ATOM      4  C   UNL     1      47.041   5.095  14.151  0.00  0.00    +0.000 A 
ATOM      5  C   UNL     1      47.297   4.565  15.412  0.00  0.00    +0.000 A 
ATOM      6  C   UNL     1      48.227   5.175  16.253  0.00  0.00    +0.000 A 
ATOM      7  C   UNL     1      48.835   6.366  15.856  0.00  0.00    +0.000 A 
ATOM      8  C   UNL     1      48.570   6.906  14.593  0.00  0.00    +0.000 A 
BRANCH   6   9
ATOM      9  O   UNL     1      48.614   4.680  17.470  0.00  0.00    +0.000 OA
BRANCH   9  10
ATOM     10  C   UNL     1      47.590   4.698  18.466  0.00  0.00    +0.000 C 
BRANCH  10  11
ATOM     11  C   UNL     1      47.870   5.793  19.459  0.00  0.00    +0.000 A 
ATOM     12  C   UNL     1      48.579   5.533  20.633  0.00  0.00    +0.000 A 
ATOM     13  C   UNL     1      48.830   6.586  21.497  0.00  0.00    +0.000 A 
ATOM     14  N   UNL     1      48.433   7.857  21.273  0.00  0.00    +0.000 NA
ATOM     15  C   UNL     1      47.740   8.084  20.138  0.00  0.00    +0.000 A 
ATOM     16  C   UNL     1      47.436   7.099  19.212  0.00  0.00    +0.000 A 
ENDBRANCH  10  11
ENDBRANCH   9  10
ENDBRANCH   6   9
ENDBRANCH   1   3
BRANCH   1  17
ATOM     17  C   UNL     1      45.937   6.634  11.885  0.00  0.00    +0.000 C 
BRANCH  17  25
ATOM     18  C   UNL     1      44.229   3.819  11.609  0.00  0.00    +0.000 A 
ATOM     19  C   UNL     1      43.711   2.632  11.075  0.00  0.00    +0.000 A 
ATOM     20  N   UNL     1      43.906   2.169   9.816  0.00  0.00    +0.000 NA
ATOM     21  C   UNL     1      44.647   2.918   8.968  0.00  0.00    +0.000 A 
ATOM     22  C   UNL     1      45.175   4.146   9.379  0.00  0.00    +0.000 A 
ATOM     23  N   UNL     1      45.923   5.044   8.661  0.00  0.00    +0.000 NA
ATOM     24  C   UNL     1      46.176   6.020   9.497  0.00  0.00    +0.000 A 
ATOM     25  N   UNL     1      45.650   5.783  10.744  0.00  0.00    +0.000 N 
ATOM     26  C   UNL     1      44.971   4.583  10.696  0.00  0.00    +0.000 A 
BRANCH  18  28
ATOM     27  C   UNL     1      42.911   5.095  13.097  0.00  0.00    +0.000 C 
ATOM     28  O   UNL     1      44.049   4.258  12.891  0.00  0.00    +0.000 OA
ENDBRANCH  18  28
ENDBRANCH  17  25
ENDBRANCH   1  17
TORSDOF 7
ENDMDL
MODEL 8
REMARK VINA RESULT:    -6.124      2.404      3.822
REMARK INTER + INTRA:          -9.684
REMARK INTER:                  -8.259
REMARK INTRA:                  -1.425
REMARK UNBOUND:                -1.055
REMARK  Name = 
REMARK  9 active torsions:
REMARK  status: ('A' for Active; 'I' for Inactive)
REMARK    1  A    between atoms: C_1  and  O_2
REMARK    2  A    between atoms: O_2  and  C_3
REMARK    3  A    between atoms: N_10  and  C_11
REMARK    4  A    between atoms: C_11  and  C_12
REMARK    5  A    between atoms: C_12  and  C_13
REMARK    6  A    between atoms: C_12  and  C_14
REMARK    7  A    between atoms: C_17  and  O_18
REMARK    8  A    between atoms: O_18  and  C_19
REMARK    9  A    between atoms: C_19  and  C_20
REMARK                            x       y       z     vdW  Elec       q    Type
REMARK                         _______ _______ _______ _____ _____    ______ ____
ROOT
ATOM      1  C   UNL     1      49.942   8.320  14.283  0.00  0.00    +0.000 C 
ATOM      2  C   UNL     1      51.108   8.510  13.300  0.00  0.00    +0.000 C 
ENDROOT
BRANCH   1   3
ATOM      3  C   UNL     1      48.649   8.086  13.527  0.00  0.00    +0.000 A 
ATOM      4  C   UNL     1      48.659   7.183  12.458  0.00  0.00    +0.000 A 
ATOM      5  C   UNL     1      47.491   6.888  11.762  0.00  0.00    +0.000 A 
ATOM      6  C   UNL     1      46.282   7.472  12.140  0.00  0.00    +0.000 A 
ATOM      7  C   UNL     1      46.268   8.417  13.166  0.00  0.00    +0.000 A 
ATOM      8  C   UNL     1      47.444   8.724  13.860  0.00  0.00    +0.000 A 
BRANCH   6   9
ATOM      9  O   UNL     1      45.068   7.177  11.579  0.00  0.00    +0.000 OA
BRANCH   9  10
ATOM     10  C   UNL     1      44.242   6.326  12.375  0.00  0.00    +0.000 C 
BRANCH  10  11
ATOM     11  C   UNL     1      44.075   4.998  11.690  0.00  0.00    +0.000 A 
ATOM     12  C   UNL     1      44.553   4.795  10.395  0.00  0.00    +0.000 A 
ATOM     13  C   UNL     1      44.395   3.542   9.823  0.00  0.00    +0.000 A 
ATOM     14  N   UNL     1      43.806   2.498  10.446  0.00  0.00    +0.000 NA
ATOM     15  C   UNL     1      43.342   2.720  11.693  0.00  0.00    +0.000 A 
ATOM     16  C   UNL     1      43.449   3.936  12.349  0.00  0.00    +0.000 A 
ENDBRANCH  10  11
ENDBRANCH   9  10
ENDBRANCH   6   9
ENDBRANCH   1   3
BRANCH   1  17
ATOM     17  C   UNL     1      50.276   7.222  15.305  0.00  0.00    +0.000 C 
BRANCH  17  25
ATOM     18  C   UNL     1      48.115   5.409  17.024  0.00  0.00    +0.000 A 
ATOM     19  C   UNL     1      47.213   5.019  18.023  0.00  0.00    +0.000 A 
ATOM     20  N   UNL     1      46.916   5.713  19.149  0.00  0.00    +0.000 NA
ATOM     21  C   UNL     1      47.557   6.885  19.364  0.00  0.00    +0.000 A 
ATOM     22  C   UNL     1      48.514   7.349  18.456  0.00  0.00    +0.000 A 
ATOM     23  N   UNL     1      49.273   8.490  18.516  0.00  0.00    +0.000 NA
ATOM     24  C   UNL     1      50.000   8.471  17.426  0.00  0.00    +0.000 A 
ATOM     25  N   UNL     1      49.724   7.380  16.640  0.00  0.00    +0.000 N 
ATOM     26  C   UNL     1      48.779   6.615  17.291  0.00  0.00    +0.000 A 
BRANCH  18  28
ATOM     27  C   UNL     1      47.337   4.714  14.905  0.00  0.00    +0.000 C 
ATOM     28  O   UNL     1      48.381   4.712  15.879  0.00  0.00    +0.000 OA
ENDBRANCH  18  28
ENDBRANCH  17  25
ENDBRANCH   1  17
TORSDOF 7
ENDMDL
MODEL 9
REMARK VINA RESULT:    -6.053      3.723      5.664
REMARK INTER + INTRA:          -9.584
REMARK INTER:                  -8.885
REMARK INTRA:                  -0.699
REMARK UNBOUND:                -1.055
REMARK  Name = 
REMARK  9 active torsions:
REMARK  status: ('A' for Active; 'I' for Inactive)
REMARK    1  A    between atoms: C_1  and  O_2
REMARK    2  A    between atoms: O_2  and  C_3
REMARK    3  A    between atoms: N_10  and  C_11
REMARK    4  A    between atoms: C_11  and  C_12
REMARK    5  A    between atoms: C_12  and  C_13
REMARK    6  A    between atoms: C_12  and  C_14
REMARK    7  A    between atoms: C_17  and  O_18
REMARK    8  A    between atoms: O_18  and  C_19
REMARK    9  A    between atoms: C_19  and  C_20
REMARK                            x       y       z     vdW  Elec       q    Type
REMARK                         _______ _______ _______ _____ _____    ______ ____
ROOT
ATOM      1  C   UNL     1      48.752   4.930  17.845  0.00  0.00    +0.000 C 
ATOM      2  C   UNL     1      48.335   6.062  18.796  0.00  0.00    +0.000 C 
ENDROOT
BRANCH   1   3
ATOM      3  C   UNL     1      48.214   5.190  16.451  0.00  0.00    +0.000 A 
ATOM      4  C   UNL     1      48.633   6.347  15.783  0.00  0.00    +0.000 A 
ATOM      5  C   UNL     1      48.215   6.612  14.483  0.00  0.00    +0.000 A 
ATOM      6  C   UNL     1      47.391   5.707  13.813  0.00  0.00    +0.000 A 
ATOM      7  C   UNL     1      46.920   4.579  14.486  0.00  0.00    +0.000 A 
ATOM      8  C   UNL     1      47.330   4.318  15.798  0.00  0.00    +0.000 A 
BRANCH   6   9
ATOM      9  O   UNL     1      47.002   5.832  12.506  0.00  0.00    +0.000 OA
BRANCH   9  10
ATOM     10  C   UNL     1      45.627   6.178  12.330  0.00  0.00    +0.000 C 
BRANCH  10  11
ATOM     11  C   UNL     1      44.894   5.031  11.690  0.00  0.00    +0.000 A 
ATOM     12  C   UNL     1      45.081   4.724  10.342  0.00  0.00    +0.000 A 
ATOM     13  C   UNL     1      44.400   3.640   9.813  0.00  0.00    +0.000 A 
ATOM     14  N   UNL     1      43.564   2.854  10.525  0.00  0.00    +0.000 NA
ATOM     15  C   UNL     1      43.390   3.175  11.824  0.00  0.00    +0.000 A 
ATOM     16  C   UNL     1      44.023   4.240  12.445  0.00  0.00    +0.000 A 
ENDBRANCH  10  11
ENDBRANCH   9  10
ENDBRANCH   6   9
ENDBRANCH   1   3
BRANCH   1  17
ATOM     17  C   UNL     1      50.272   4.716  17.899  0.00  0.00    +0.000 C 
BRANCH  17  25
ATOM     18  C   UNL     1      53.055   3.255  18.918  0.00  0.00    +0.000 A 
ATOM     19  C   UNL     1      54.067   2.299  19.075  0.00  0.00    +0.000 A 
ATOM     20  N   UNL     1      54.074   1.048  18.554  0.00  0.00    +0.000 NA
ATOM     21  C   UNL     1      53.001   0.651  17.832  0.00  0.00    +0.000 A 
ATOM     22  C   UNL     1      51.909   1.505  17.652  0.00  0.00    +0.000 A 
ATOM     23  N   UNL     1      50.738   1.273  16.978  0.00  0.00    +0.000 NA
ATOM     24  C   UNL     1      50.055   2.385  17.091  0.00  0.00    +0.000 A 
ATOM     25  N   UNL     1      50.746   3.348  17.785  0.00  0.00    +0.000 N 
ATOM     26  C   UNL     1      51.947   2.801  18.186  0.00  0.00    +0.000 A 
BRANCH  18  28
ATOM     27  C   UNL     1      53.383   4.624  20.815  0.00  0.00    +0.000 C 
ATOM     28  O   UNL     1      53.075   4.525  19.424  0.00  0.00    +0.000 OA
ENDBRANCH  18  28
ENDBRANCH  17  25
ENDBRANCH   1  17
TORSDOF 7
ENDMDL
