MODEL 1
REMARK VINA RESULT:    -7.094      0.000      0.000
REMARK INTER + INTRA:          -9.627
REMARK INTER:                  -9.167
REMARK INTRA:                  -0.461
REMARK UNBOUND:                -0.461
REMARK  Name = 
REMARK  5 active torsions:
REMARK  status: ('A' for Active; 'I' for Inactive)
REMARK    1  A    between atoms: C_2  and  C_4
REMARK    2  A    between atoms: C_6  and  C_7
REMARK    3  A    between atoms: C_7  and  C_8
REMARK    4  A    between atoms: C_8  and  N_9
REMARK    5  A    between atoms: C_14  and  C_15
REMARK                            x       y       z     vdW  Elec       q    Type
REMARK                         _______ _______ _______ _____ _____    ______ ____
ROOT
ATOM      1  C   UNL     1      47.636   6.043  12.885  0.00  0.00    +0.000 C 
ENDROOT
BRANCH   1   2
ATOM      2  N   UNL     1      48.291   6.993  13.792  0.00  0.00    +0.000 N 
ATOM      3  C   UNL     1      48.453   6.493  15.101  0.00  0.00    +0.000 A 
ATOM      4  C   UNL     1      49.039   7.295  16.087  0.00  0.00    +0.000 A 
ATOM      5  N   UNL     1      49.230   6.901  17.373  0.00  0.00    +0.000 NA
ATOM      6  C   UNL     1      48.808   5.643  17.652  0.00  0.00    +0.000 A 
ATOM      7  C   UNL     1      48.236   4.829  16.690  0.00  0.00    +0.000 A 
ATOM      8  N   UNL     1      48.068   5.235  15.400  0.00  0.00    +0.000 NA
ATOM      9  H   UNL     1      47.792   7.879  13.843  0.00  0.00    +0.000 HD
BRANCH   7  10
ATOM     10  C   UNL     1      47.751   3.435  16.968  0.00  0.00    +0.000 C 
ATOM     11  N   UNL     1      46.617   3.130  17.518  0.00  0.00    +0.000 NA
ATOM     12  N   UNL     1      48.562   2.386  16.638  0.00  0.00    +0.000 N 
ATOM     13  H   UNL     1      46.036   3.937  17.741  0.00  0.00    +0.000 HD
ATOM     14  H   UNL     1      49.550   2.613  16.562  0.00  0.00    +0.000 HD
ATOM     15  H   UNL     1      48.345   1.531  17.135  0.00  0.00    +0.000 HD
ENDBRANCH   7  10
ENDBRANCH   1   2
BRANCH   1  16
ATOM     16  C   UNL     1      46.860   6.783  11.788  0.00  0.00    +0.000 C 
BRANCH  16  19
ATOM     17  C   UNL     1      44.066   4.298  11.172  0.00  0.00    +0.000 A 
ATOM     18  C   UNL     1      45.339   4.802  11.411  0.00  0.00    +0.000 A 
ATOM     19  C   UNL     1      45.492   6.180  11.581  0.00  0.00    +0.000 A 
ATOM     20  C   UNL     1      44.352   6.987  11.506  0.00  0.00    +0.000 A 
ATOM     21  C   UNL     1      43.121   6.391  11.261  0.00  0.00    +0.000 A 
ATOM     22  N   UNL     1      42.946   5.065  11.077  0.00  0.00    +0.000 NA
BRANCH  17  24
ATOM     23  N   UNL     1      43.073   2.152  11.757  0.00  0.00    +0.000 NA
ATOM     24  C   UNL     1      43.853   2.824  10.969  0.00  0.00    +0.000 C 
ATOM     25  N   UNL     1      44.507   2.188   9.950  0.00  0.00    +0.000 N 
ATOM     26  H   UNL     1      43.034   1.184  11.429  0.00  0.00    +0.000 HD
ATOM     27  H   UNL     1      44.770   1.226  10.117  0.00  0.00    +0.000 HD
ATOM     28  H   UNL     1      45.269   2.746   9.563  0.00  0.00    +0.000 HD
ENDBRANCH  17  24
ENDBRANCH  16  19
ENDBRANCH   1  16
TORSDOF 5
ENDMDL
MODEL 2
REMARK VINA RESULT:    -6.810      1.751      2.720
REMARK INTER + INTRA:          -9.262
REMARK INTER:                  -8.737
REMARK INTRA:                  -0.524
REMARK UNBOUND:                -0.461
REMARK  Name = 
REMARK  5 active torsions:
REMARK  status: ('A' for Active; 'I' for Inactive)
REMARK    1  A    between atoms: C_2  and  C_4
REMARK    2  A    between atoms: C_6  and  C_7
REMARK    3  A    between atoms: C_7  and  C_8
REMARK    4  A    between atoms: C_8  and  N_9
REMARK    5  A    between atoms: C_14  and  C_15
REMARK                            x       y       z     vdW  Elec       q    Type
REMARK                         _______ _______ _______ _____ _____    ______ ____
ROOT
ATOM      1  C   UNL     1      48.644   6.630  14.617  0.00  0.00    +0.000 C 
ENDROOT
BRANCH   1   2
ATOM      2  N   UNL     1      48.342   7.025  15.998  0.00  0.00    +0.000 N 
ATOM      3  C   UNL     1      48.555   5.990  16.933  0.00  0.00    +0.000 A 
ATOM      4  C   UNL     1      48.285   6.208  18.288  0.00  0.00    +0.000 A 
ATOM      5  N   UNL     1      48.454   5.270  19.257  0.00  0.00    +0.000 NA
ATOM      6  C   UNL     1      48.915   4.073  18.817  0.00  0.00    +0.000 A 
ATOM      7  C   UNL     1      49.199   3.840  17.484  0.00  0.00    +0.000 A 
ATOM      8  N   UNL     1      49.040   4.799  16.527  0.00  0.00    +0.000 NA
ATOM      9  H   UNL     1      47.387   7.362  16.099  0.00  0.00    +0.000 HD
BRANCH   7  10
ATOM     10  C   UNL     1      49.704   2.525  16.963  0.00  0.00    +0.000 C 
ATOM     11  N   UNL     1      49.231   1.893  15.934  0.00  0.00    +0.000 NA
ATOM     12  N   UNL     1      50.736   1.917  17.622  0.00  0.00    +0.000 N 
ATOM     13  H   UNL     1      48.470   2.381  15.464  0.00  0.00    +0.000 HD
ATOM     14  H   UNL     1      50.853   2.199  18.591  0.00  0.00    +0.000 HD
ATOM     15  H   UNL     1      50.804   0.923  17.442  0.00  0.00    +0.000 HD
ENDBRANCH   7  10
ENDBRANCH   1   2
BRANCH   1  16
ATOM     16  C   UNL     1      47.582   7.173  13.651  0.00  0.00    +0.000 C 
BRANCH  16  19
ATOM     17  C   UNL     1      44.728   5.323  11.978  0.00  0.00    +0.000 A 
ATOM     18  C   UNL     1      45.557   6.366  12.374  0.00  0.00    +0.000 A 
ATOM     19  C   UNL     1      46.681   6.070  13.149  0.00  0.00    +0.000 A 
ATOM     20  C   UNL     1      46.920   4.734  13.487  0.00  0.00    +0.000 A 
ATOM     21  C   UNL     1      46.031   3.760  13.045  0.00  0.00    +0.000 A 
ATOM     22  N   UNL     1      44.930   4.019  12.308  0.00  0.00    +0.000 NA
BRANCH  17  24
ATOM     23  N   UNL     1      43.410   5.159   9.935  0.00  0.00    +0.000 NA
ATOM     24  C   UNL     1      43.501   5.593  11.154  0.00  0.00    +0.000 C 
ATOM     25  N   UNL     1      42.477   6.322  11.697  0.00  0.00    +0.000 N 
ATOM     26  H   UNL     1      42.490   5.413   9.567  0.00  0.00    +0.000 HD
ATOM     27  H   UNL     1      41.952   6.903  11.059  0.00  0.00    +0.000 HD
ATOM     28  H   UNL     1      42.754   6.814  12.547  0.00  0.00    +0.000 HD
ENDBRANCH  17  24
ENDBRANCH  16  19
ENDBRANCH   1  16
TORSDOF 5
ENDMDL
MODEL 3
REMARK VINA RESULT:    -6.717      4.749      6.954
REMARK INTER + INTRA:          -9.140
REMARK INTER:                  -8.783
REMARK INTRA:                  -0.358
REMARK UNBOUND:                -0.461
REMARK  Name = 
REMARK  5 active torsions:
REMARK  status: ('A' for Active; 'I' for Inactive)
REMARK    1  A    between atoms: C_2  and  C_4
REMARK    2  A    between atoms: C_6  and  C_7
REMARK    3  A    between atoms: C_7  and  C_8
REMARK    4  A    between atoms: C_8  and  N_9
REMARK    5  A    between atoms: C_14  and  C_15
REMARK                            x       y       z     vdW  Elec       q    Type
REMARK                         _______ _______ _______ _____ _____    ______ ____
ROOT
ATOM      1  C   UNL     1      45.775   4.224   8.212  0.00  0.00    +0.000 C 
ENDROOT
BRANCH   1   2
ATOM      2  N   UNL     1      46.062   5.461   8.947  0.00  0.00    +0.000 N 
ATOM      3  C   UNL     1      45.496   5.486  10.239  0.00  0.00    +0.000 A 
ATOM      4  C   UNL     1      45.661   6.614  11.052  0.00  0.00    +0.000 A 
ATOM      5  N   UNL     1      45.148   6.729  12.304  0.00  0.00    +0.000 NA
ATOM      6  C   UNL     1      44.445   5.651  12.734  0.00  0.00    +0.000 A 
ATOM      7  C   UNL     1      44.279   4.523  11.951  0.00  0.00    +0.000 A 
ATOM      8  N   UNL     1      44.816   4.417  10.703  0.00  0.00    +0.000 NA
ATOM      9  H   UNL     1      45.750   6.288   8.441  0.00  0.00    +0.000 HD
BRANCH   7  10
ATOM     10  C   UNL     1      43.501   3.317  12.394  0.00  0.00    +0.000 C 
ATOM     11  N   UNL     1      43.093   2.360  11.619  0.00  0.00    +0.000 NA
ATOM     12  N   UNL     1      43.170   3.204  13.715  0.00  0.00    +0.000 N 
ATOM     13  H   UNL     1      43.366   2.474  10.644  0.00  0.00    +0.000 HD
ATOM     14  H   UNL     1      43.155   4.079  14.231  0.00  0.00    +0.000 HD
ATOM     15  H   UNL     1      42.393   2.579  13.888  0.00  0.00    +0.000 HD
ENDBRANCH   7  10
ENDBRANCH   1   2
BRANCH   1  16
ATOM     16  C   UNL     1      46.619   4.142   6.933  0.00  0.00    +0.000 C 
BRANCH  16  19
ATOM     17  C   UNL     1      46.835   1.011   4.808  0.00  0.00    +0.000 A 
ATOM     18  C   UNL     1      46.692   2.350   5.154  0.00  0.00    +0.000 A 
ATOM     19  C   UNL     1      46.820   2.711   6.498  0.00  0.00    +0.000 A 
ATOM     20  C   UNL     1      47.089   1.704   7.431  0.00  0.00    +0.000 A 
ATOM     21  C   UNL     1      47.213   0.393   6.989  0.00  0.00    +0.000 A 
ATOM     22  N   UNL     1      47.080   0.013   5.700  0.00  0.00    +0.000 NA
BRANCH  17  24
ATOM     23  N   UNL     1      47.631  -0.109   2.797  0.00  0.00    +0.000 NA
ATOM     24  C   UNL     1      46.693   0.573   3.378  0.00  0.00    +0.000 C 
ATOM     25  N   UNL     1      45.566   0.916   2.681  0.00  0.00    +0.000 N 
ATOM     26  H   UNL     1      47.326  -0.339   1.848  0.00  0.00    +0.000 HD
ATOM     27  H   UNL     1      45.684   1.080   1.691  0.00  0.00    +0.000 HD
ATOM     28  H   UNL     1      45.026   1.647   3.145  0.00  0.00    +0.000 HD
ENDBRANCH  17  24
ENDBRANCH  16  19
ENDBRANCH   1  16
TORSDOF 5
ENDMDL
MODEL 4
REMARK VINA RESULT:    -6.702      1.832      2.472
REMARK INTER + INTRA:          -9.121
REMARK INTER:                  -8.233
REMARK INTRA:                  -0.888
REMARK UNBOUND:                -0.461
REMARK  Name = 
REMARK  5 active torsions:
REMARK  status: ('A' for Active; 'I' for Inactive)
REMARK    1  A    between atoms: C_2  and  C_4
REMARK    2  A    between atoms: C_6  and  C_7
REMARK    3  A    between atoms: C_7  and  C_8
REMARK    4  A    between atoms: C_8  and  N_9
REMARK    5  A    between atoms: C_14  and  C_15
REMARK                            x       y       z     vdW  Elec       q    Type
REMARK                         _______ _______ _______ _____ _____    ______ ____
ROOT
ATOM      1  C   UNL     1      48.233   8.503  14.892  0.00  0.00    +0.000 C 
ENDROOT
BRANCH   1   2
ATOM      2  N   UNL     1      49.604   8.048  15.154  0.00  0.00    +0.000 N 
ATOM      3  C   UNL     1      49.661   6.885  15.951  0.00  0.00    +0.000 A 
ATOM      4  C   UNL     1      50.902   6.345  16.308  0.00  0.00    +0.000 A 
ATOM      5  N   UNL     1      51.054   5.234  17.075  0.00  0.00    +0.000 NA
ATOM      6  C   UNL     1      49.895   4.660  17.484  0.00  0.00    +0.000 A 
ATOM      7  C   UNL     1      48.659   5.171  17.134  0.00  0.00    +0.000 A 
ATOM      8  N   UNL     1      48.524   6.278  16.348  0.00  0.00    +0.000 NA
ATOM      9  H   UNL     1      50.169   8.771  15.595  0.00  0.00    +0.000 HD
BRANCH   7  10
ATOM     10  C   UNL     1      47.357   4.565  17.576  0.00  0.00    +0.000 C 
ATOM     11  N   UNL     1      46.568   5.058  18.480  0.00  0.00    +0.000 NA
ATOM     12  N   UNL     1      46.959   3.389  17.004  0.00  0.00    +0.000 N 
ATOM     13  H   UNL     1      46.894   5.938  18.876  0.00  0.00    +0.000 HD
ATOM     14  H   UNL     1      47.707   2.834  16.597  0.00  0.00    +0.000 HD
ATOM     15  H   UNL     1      46.282   2.877  17.556  0.00  0.00    +0.000 HD
ENDBRANCH   7  10
ENDBRANCH   1   2
BRANCH   1  16
ATOM     16  C   UNL     1      47.930   8.478  13.388  0.00  0.00    +0.000 C 
BRANCH  16  19
ATOM     17  C   UNL     1      46.098   5.189  12.959  0.00  0.00    +0.000 A 
ATOM     18  C   UNL     1      47.080   6.100  13.327  0.00  0.00    +0.000 A 
ATOM     19  C   UNL     1      46.870   7.455  13.059  0.00  0.00    +0.000 A 
ATOM     20  C   UNL     1      45.675   7.829  12.435  0.00  0.00    +0.000 A 
ATOM     21  C   UNL     1      44.753   6.844  12.103  0.00  0.00    +0.000 A 
ATOM     22  N   UNL     1      44.936   5.527  12.336  0.00  0.00    +0.000 NA
BRANCH  17  24
ATOM     23  N   UNL     1      47.236   3.296  13.987  0.00  0.00    +0.000 NA
ATOM     24  C   UNL     1      46.284   3.719  13.215  0.00  0.00    +0.000 C 
ATOM     25  N   UNL     1      45.445   2.823  12.610  0.00  0.00    +0.000 N 
ATOM     26  H   UNL     1      47.166   2.278  14.060  0.00  0.00    +0.000 HD
ATOM     27  H   UNL     1      45.846   1.928  12.366  0.00  0.00    +0.000 HD
ATOM     28  H   UNL     1      44.910   3.240  11.847  0.00  0.00    +0.000 HD
ENDBRANCH  17  24
ENDBRANCH  16  19
ENDBRANCH   1  16
TORSDOF 5
ENDMDL
MODEL 5
REMARK VINA RESULT:    -6.658      1.745      2.297
REMARK INTER + INTRA:          -9.064
REMARK INTER:                  -8.723
REMARK INTRA:                  -0.341
REMARK UNBOUND:                -0.461
REMARK  Name = 
REMARK  5 active torsions:
REMARK  status: ('A' for Active; 'I' for Inactive)
REMARK    1  A    between atoms: C_2  and  C_4
REMARK    2  A    between atoms: C_6  and  C_7
REMARK    3  A    between atoms: C_7  and  C_8
REMARK    4  A    between atoms: C_8  and  N_9
REMARK    5  A    between atoms: C_14  and  C_15
REMARK                            x       y       z     vdW  Elec       q    Type
REMARK                         _______ _______ _______ _____ _____    ______ ____
ROOT
ATOM      1  C   UNL     1      47.214   4.484  15.008  0.00  0.00    +0.000 C 
ENDROOT
BRANCH   1   2
ATOM      2  N   UNL     1      47.366   5.393  16.150  0.00  0.00    +0.000 N 
ATOM      3  C   UNL     1      48.387   5.003  17.041  0.00  0.00    +0.000 A 
ATOM      4  C   UNL     1      48.634   5.757  18.194  0.00  0.00    +0.000 A 
ATOM      5  N   UNL     1      49.591   5.454  19.110  0.00  0.00    +0.000 NA
ATOM      6  C   UNL     1      50.317   4.343  18.829  0.00  0.00    +0.000 A 
ATOM      7  C   UNL     1      50.097   3.590  17.690  0.00  0.00    +0.000 A 
ATOM      8  N   UNL     1      49.144   3.918  16.773  0.00  0.00    +0.000 NA
ATOM      9  H   UNL     1      46.499   5.494  16.676  0.00  0.00    +0.000 HD
BRANCH   7  10
ATOM     10  C   UNL     1      50.878   2.352  17.354  0.00  0.00    +0.000 C 
ATOM     11  N   UNL     1      50.533   1.460  16.478  0.00  0.00    +0.000 NA
ATOM     12  N   UNL     1      52.045   2.116  18.026  0.00  0.00    +0.000 N 
ATOM     13  H   UNL     1      49.664   1.675  15.992  0.00  0.00    +0.000 HD
ATOM     14  H   UNL     1      52.125   2.581  18.926  0.00  0.00    +0.000 HD
ATOM     15  H   UNL     1      52.338   1.147  18.005  0.00  0.00    +0.000 HD
ENDBRANCH   7  10
ENDBRANCH   1   2
BRANCH   1  16
ATOM     16  C   UNL     1      47.303   5.255  13.684  0.00  0.00    +0.000 C 
BRANCH  16  19
ATOM     17  C   UNL     1      44.381   3.971  11.640  0.00  0.00    +0.000 A 
ATOM     18  C   UNL     1      45.558   3.976  12.380  0.00  0.00    +0.000 A 
ATOM     19  C   UNL     1      46.003   5.186  12.920  0.00  0.00    +0.000 A 
ATOM     20  C   UNL     1      45.238   6.334  12.692  0.00  0.00    +0.000 A 
ATOM     21  C   UNL     1      44.076   6.229  11.937  0.00  0.00    +0.000 A 
ATOM     22  N   UNL     1      43.630   5.078  11.391  0.00  0.00    +0.000 NA
BRANCH  17  24
ATOM     23  N   UNL     1      42.926   2.017  11.603  0.00  0.00    +0.000 NA
ATOM     24  C   UNL     1      43.869   2.697  11.028  0.00  0.00    +0.000 C 
ATOM     25  N   UNL     1      44.420   2.247   9.860  0.00  0.00    +0.000 N 
ATOM     26  H   UNL     1      42.698   1.214  11.012  0.00  0.00    +0.000 HD
ATOM     27  H   UNL     1      44.464   1.245   9.741  0.00  0.00    +0.000 HD
ATOM     28  H   UNL     1      45.301   2.713   9.637  0.00  0.00    +0.000 HD
ENDBRANCH  17  24
ENDBRANCH  16  19
ENDBRANCH   1  16
TORSDOF 5
ENDMDL
MODEL 6
REMARK VINA RESULT:    -6.606      1.923      6.206
REMARK INTER + INTRA:          -8.997
REMARK INTER:                  -8.075
REMARK INTRA:                  -0.922
REMARK UNBOUND:                -0.461
REMARK  Name = 
REMARK  5 active torsions:
REMARK  status: ('A' for Active; 'I' for Inactive)
REMARK    1  A    between atoms: C_2  and  C_4
REMARK    2  A    between atoms: C_6  and  C_7
REMARK    3  A    between atoms: C_7  and  C_8
REMARK    4  A    between atoms: C_8  and  N_9
REMARK    5  A    between atoms: C_14  and  C_15
REMARK                            x       y       z     vdW  Elec       q    Type
REMARK                         _______ _______ _______ _____ _____    ______ ____
ROOT
ATOM      1  C   UNL     1      49.418   7.439  13.363  0.00  0.00    +0.000 C 
ENDROOT
BRANCH   1   2
ATOM      2  N   UNL     1      48.202   8.118  12.899  0.00  0.00    +0.000 N 
ATOM      3  C   UNL     1      47.097   7.252  12.762  0.00  0.00    +0.000 A 
ATOM      4  C   UNL     1      45.873   7.750  12.303  0.00  0.00    +0.000 A 
ATOM      5  N   UNL     1      44.759   6.990  12.135  0.00  0.00    +0.000 NA
ATOM      6  C   UNL     1      44.909   5.680  12.452  0.00  0.00    +0.000 A 
ATOM      7  C   UNL     1      46.107   5.169  12.918  0.00  0.00    +0.000 A 
ATOM      8  N   UNL     1      47.211   5.950  13.098  0.00  0.00    +0.000 NA
ATOM      9  H   UNL     1      48.348   8.599  12.013  0.00  0.00    +0.000 HD
BRANCH   7  10
ATOM     10  C   UNL     1      46.309   3.723  13.271  0.00  0.00    +0.000 C 
ATOM     11  N   UNL     1      47.227   3.265  14.064  0.00  0.00    +0.000 NA
ATOM     12  N   UNL     1      45.479   2.794  12.708  0.00  0.00    +0.000 N 
ATOM     13  H   UNL     1      47.819   3.987  14.471  0.00  0.00    +0.000 HD
ATOM     14  H   UNL     1      45.030   3.085  11.844  0.00  0.00    +0.000 HD
ATOM     15  H   UNL     1      45.858   1.855  12.711  0.00  0.00    +0.000 HD
ENDBRANCH   7  10
ENDBRANCH   1   2
BRANCH   1  16
ATOM     16  C   UNL     1      49.825   7.942  14.754  0.00  0.00    +0.000 C 
BRANCH  16  19
ATOM     17  C   UNL     1      48.602   5.287  17.166  0.00  0.00    +0.000 A 
ATOM     18  C   UNL     1      48.582   6.276  16.190  0.00  0.00    +0.000 A 
ATOM     19  C   UNL     1      49.797   6.827  15.771  0.00  0.00    +0.000 A 
ATOM     20  C   UNL     1      50.976   6.351  16.354  0.00  0.00    +0.000 A 
ATOM     21  C   UNL     1      50.893   5.360  17.325  0.00  0.00    +0.000 A 
ATOM     22  N   UNL     1      49.734   4.821  17.760  0.00  0.00    +0.000 NA
BRANCH  17  24
ATOM     23  N   UNL     1      46.876   3.567  17.148  0.00  0.00    +0.000 NA
ATOM     24  C   UNL     1      47.321   4.673  17.658  0.00  0.00    +0.000 C 
ATOM     25  N   UNL     1      46.613   5.305  18.644  0.00  0.00    +0.000 N 
ATOM     26  H   UNL     1      46.022   3.301  17.643  0.00  0.00    +0.000 HD
ATOM     27  H   UNL     1      45.607   5.208  18.605  0.00  0.00    +0.000 HD
ATOM     28  H   UNL     1      46.915   6.269  18.788  0.00  0.00    +0.000 HD
ENDBRANCH  17  24
ENDBRANCH  16  19
ENDBRANCH   1  16
TORSDOF 5
ENDMDL
MODEL 7
REMARK VINA RESULT:    -6.582      1.560      2.148
REMARK INTER + INTRA:          -8.967
REMARK INTER:                  -8.583
REMARK INTRA:                  -0.384
REMARK UNBOUND:                -0.461
REMARK  Name = 
REMARK  5 active torsions:
REMARK  status: ('A' for Active; 'I' for Inactive)
REMARK    1  A    between atoms: C_2  and  C_4
REMARK    2  A    between atoms: C_6  and  C_7
REMARK    3  A    between atoms: C_7  and  C_8
REMARK    4  A    between atoms: C_8  and  N_9
REMARK    5  A    between atoms: C_14  and  C_15
REMARK                            x       y       z     vdW  Elec       q    Type
REMARK                         _______ _______ _______ _____ _____    ______ ____
ROOT
ATOM      1  C   UNL     1      47.101   5.201  13.583  0.00  0.00    +0.000 C 
ENDROOT
BRANCH   1   2
ATOM      2  N   UNL     1      47.722   6.393  14.171  0.00  0.00    +0.000 N 
ATOM      3  C   UNL     1      48.279   6.161  15.446  0.00  0.00    +0.000 A 
ATOM      4  C   UNL     1      48.884   7.211  16.145  0.00  0.00    +0.000 A 
ATOM      5  N   UNL     1      49.440   7.082  17.378  0.00  0.00    +0.000 NA
ATOM      6  C   UNL     1      49.373   5.835  17.906  0.00  0.00    +0.000 A 
ATOM      7  C   UNL     1      48.789   4.780  17.227  0.00  0.00    +0.000 A 
ATOM      8  N   UNL     1      48.252   4.924  15.983  0.00  0.00    +0.000 NA
ATOM      9  H   UNL     1      47.068   7.171  14.240  0.00  0.00    +0.000 HD
BRANCH   7  10
ATOM     10  C   UNL     1      48.692   3.390  17.786  0.00  0.00    +0.000 C 
ATOM     11  N   UNL     1      48.442   3.093  19.024  0.00  0.00    +0.000 NA
ATOM     12  N   UNL     1      48.896   2.333  16.943  0.00  0.00    +0.000 N 
ATOM     13  H   UNL     1      48.286   3.905  19.619  0.00  0.00    +0.000 HD
ATOM     14  H   UNL     1      49.435   2.547  16.109  0.00  0.00    +0.000 HD
ATOM     15  H   UNL     1      49.146   1.475  17.419  0.00  0.00    +0.000 HD
ENDBRANCH   7  10
ENDBRANCH   1   2
BRANCH   1  16
ATOM     16  C   UNL     1      45.570   5.302  13.636  0.00  0.00    +0.000 C 
BRANCH  16  19
ATOM     17  C   UNL     1      44.650   4.009  10.194  0.00  0.00    +0.000 A 
ATOM     18  C   UNL     1      45.305   4.722  11.191  0.00  0.00    +0.000 A 
ATOM     19  C   UNL     1      44.929   4.512  12.521  0.00  0.00    +0.000 A 
ATOM     20  C   UNL     1      43.913   3.587  12.783  0.00  0.00    +0.000 A 
ATOM     21  C   UNL     1      43.316   2.924  11.718  0.00  0.00    +0.000 A 
ATOM     22  N   UNL     1      43.648   3.118  10.424  0.00  0.00    +0.000 NA
BRANCH  17  24
ATOM     23  N   UNL     1      45.871   5.115   8.399  0.00  0.00    +0.000 NA
ATOM     24  C   UNL     1      45.010   4.211   8.749  0.00  0.00    +0.000 C 
ATOM     25  N   UNL     1      44.405   3.439   7.795  0.00  0.00    +0.000 N 
ATOM     26  H   UNL     1      46.003   5.064   7.386  0.00  0.00    +0.000 HD
ATOM     27  H   UNL     1      44.246   3.876   6.898  0.00  0.00    +0.000 HD
ATOM     28  H   UNL     1      43.582   2.950   8.150  0.00  0.00    +0.000 HD
ENDBRANCH  17  24
ENDBRANCH  16  19
ENDBRANCH   1  16
TORSDOF 5
ENDMDL
MODEL 8
REMARK VINA RESULT:    -6.442      1.743      7.253
REMARK INTER + INTRA:          -8.786
REMARK INTER:                  -8.544
REMARK INTRA:                  -0.242
REMARK UNBOUND:                -0.461
REMARK  Name = 
REMARK  5 active torsions:
REMARK  status: ('A' for Active; 'I' for Inactive)
REMARK    1  A    between atoms: C_2  and  C_4
REMARK    2  A    between atoms: C_6  and  C_7
REMARK    3  A    between atoms: C_7  and  C_8
REMARK    4  A    between atoms: C_8  and  N_9
REMARK    5  A    between atoms: C_14  and  C_15
REMARK                            x       y       z     vdW  Elec       q    Type
REMARK                         _______ _______ _______ _____ _____    ______ ____
ROOT
ATOM      1  C   UNL     1      47.115   5.233  13.449  0.00  0.00    +0.000 C 
ENDROOT
BRANCH   1   2
ATOM      2  N   UNL     1      45.706   5.426  13.810  0.00  0.00    +0.000 N 
ATOM      3  C   UNL     1      44.821   5.233  12.729  0.00  0.00    +0.000 A 
ATOM      4  C   UNL     1      43.445   5.409  12.913  0.00  0.00    +0.000 A 
ATOM      5  N   UNL     1      42.521   5.250  11.929  0.00  0.00    +0.000 NA
ATOM      6  C   UNL     1      43.028   4.897  10.722  0.00  0.00    +0.000 A 
ATOM      7  C   UNL     1      44.383   4.708  10.521  0.00  0.00    +0.000 A 
ATOM      8  N   UNL     1      45.296   4.854  11.524  0.00  0.00    +0.000 NA
ATOM      9  H   UNL     1      45.536   6.349  14.206  0.00  0.00    +0.000 HD
BRANCH   7  10
ATOM     10  C   UNL     1      44.978   4.325   9.196  0.00  0.00    +0.000 C 
ATOM     11  N   UNL     1      45.838   5.028   8.527  0.00  0.00    +0.000 NA
ATOM     12  N   UNL     1      44.582   3.150   8.620  0.00  0.00    +0.000 N 
ATOM     13  H   UNL     1      46.116   5.891   8.992  0.00  0.00    +0.000 HD
ATOM     14  H   UNL     1      43.681   2.800   8.933  0.00  0.00    +0.000 HD
ATOM     15  H   UNL     1      44.745   3.111   7.622  0.00  0.00    +0.000 HD
ENDBRANCH   7  10
ENDBRANCH   1   2
BRANCH   1  16
ATOM     16  C   UNL     1      47.980   6.373  14.000  0.00  0.00    +0.000 C 
BRANCH  16  19
ATOM     17  C   UNL     1      48.490   4.724  17.374  0.00  0.00    +0.000 A 
ATOM     18  C   UNL     1      48.009   4.956  16.090  0.00  0.00    +0.000 A 
ATOM     19  C   UNL     1      48.510   6.046  15.375  0.00  0.00    +0.000 A 
ATOM     20  C   UNL     1      49.478   6.850  15.985  0.00  0.00    +0.000 A 
ATOM     21  C   UNL     1      49.896   6.539  17.274  0.00  0.00    +0.000 A 
ATOM     22  N   UNL     1      49.418   5.502  17.994  0.00  0.00    +0.000 NA
BRANCH  17  24
ATOM     23  N   UNL     1      48.462   3.313  19.360  0.00  0.00    +0.000 NA
ATOM     24  C   UNL     1      47.971   3.572  18.187  0.00  0.00    +0.000 C 
ATOM     25  N   UNL     1      46.982   2.780  17.671  0.00  0.00    +0.000 N 
ATOM     26  H   UNL     1      47.951   2.523  19.759  0.00  0.00    +0.000 HD
ATOM     27  H   UNL     1      47.004   1.805  17.936  0.00  0.00    +0.000 HD
ATOM     28  H   UNL     1      46.853   2.917  16.668  0.00  0.00    +0.000 HD
ENDBRANCH  17  24
ENDBRANCH  16  19
ENDBRANCH   1  16
TORSDOF 5
ENDMDL
MODEL 9
REMARK VINA RESULT:    -6.379      2.247      7.528
REMARK INTER + INTRA:          -8.705
REMARK INTER:                  -8.334
REMARK INTRA:                  -0.371
REMARK UNBOUND:                -0.461
REMARK  Name = 
REMARK  5 active torsions:
REMARK  status: ('A' for Active; 'I' for Inactive)
REMARK    1  A    between atoms: C_2  and  C_4
REMARK    2  A    between atoms: C_6  and  C_7
REMARK    3  A    between atoms: C_7  and  C_8
REMARK    4  A    between atoms: C_8  and  N_9
REMARK    5  A    between atoms: C_14  and  C_15
REMARK                            x       y       z     vdW  Elec       q    Type
REMARK                         _______ _______ _______ _____ _____    ______ ____
ROOT
ATOM      1  C   UNL     1      47.290   4.220  14.871  0.00  0.00    +0.000 C 
ENDROOT
BRANCH   1   2
ATOM      2  N   UNL     1      46.941   5.557  14.376  0.00  0.00    +0.000 N 
ATOM      3  C   UNL     1      45.991   5.536  13.334  0.00  0.00    +0.000 A 
ATOM      4  C   UNL     1      45.578   6.734  12.742  0.00  0.00    +0.000 A 
ATOM      5  N   UNL     1      44.674   6.810  11.730  0.00  0.00    +0.000 NA
ATOM      6  C   UNL     1      44.179   5.616  11.318  0.00  0.00    +0.000 A 
ATOM      7  C   UNL     1      44.565   4.421  11.897  0.00  0.00    +0.000 A 
ATOM      8  N   UNL     1      45.460   4.365  12.924  0.00  0.00    +0.000 NA
ATOM      9  H   UNL     1      47.760   6.072  14.058  0.00  0.00    +0.000 HD
BRANCH   7  10
ATOM     10  C   UNL     1      44.041   3.083  11.460  0.00  0.00    +0.000 C 
ATOM     11  N   UNL     1      43.972   2.668  10.233  0.00  0.00    +0.000 NA
ATOM     12  N   UNL     1      43.579   2.221  12.415  0.00  0.00    +0.000 N 
ATOM     13  H   UNL     1      44.333   3.333   9.552  0.00  0.00    +0.000 HD
ATOM     14  H   UNL     1      43.293   2.658  13.287  0.00  0.00    +0.000 HD
ATOM     15  H   UNL     1      42.954   1.511  12.054  0.00  0.00    +0.000 HD
ENDBRANCH   7  10
ENDBRANCH   1   2
BRANCH   1  16
ATOM     16  C   UNL     1      47.152   4.150  16.397  0.00  0.00    +0.000 C 
BRANCH  16  19
ATOM     17  C   UNL     1      50.565   3.173  17.724  0.00  0.00    +0.000 A 
ATOM     18  C   UNL     1      49.355   3.097  17.044  0.00  0.00    +0.000 A 
ATOM     19  C   UNL     1      48.501   4.202  17.073  0.00  0.00    +0.000 A 
ATOM     20  C   UNL     1      48.908   5.336  17.784  0.00  0.00    +0.000 A 
ATOM     21  C   UNL     1      50.136   5.316  18.435  0.00  0.00    +0.000 A 
ATOM     22  N   UNL     1      50.975   4.257  18.437  0.00  0.00    +0.000 NA
BRANCH  17  24
ATOM     23  N   UNL     1      51.254   0.937  17.045  0.00  0.00    +0.000 NA
ATOM     24  C   UNL     1      51.511   2.005  17.733  0.00  0.00    +0.000 C 
ATOM     25  N   UNL     1      52.648   2.071  18.492  0.00  0.00    +0.000 N 
ATOM     26  H   UNL     1      52.033   0.284  17.154  0.00  0.00    +0.000 HD
ATOM     27  H   UNL     1      52.973   1.201  18.889  0.00  0.00    +0.000 HD
ATOM     28  H   UNL     1      52.623   2.833  19.171  0.00  0.00    +0.000 HD
ENDBRANCH  17  24
ENDBRANCH  16  19
ENDBRANCH   1  16
TORSDOF 5
ENDMDL
