MODEL 1
REMARK VINA RESULT:    -7.854      0.000      0.000
REMARK INTER + INTRA:         -11.397
REMARK INTER:                 -10.609
REMARK INTRA:                  -0.789
REMARK UNBOUND:                -0.789
REMARK  Name = 
REMARK  7 active torsions:
REMARK  status: ('A' for Active; 'I' for Inactive)
REMARK    1  A    between atoms: C_1  and  C_2
REMARK    2  A    between atoms: N_4  and  C_5
REMARK    3  A    between atoms: C_9  and  C_10
REMARK    4  A    between atoms: C_10  and  C_11
REMARK    5  A    between atoms: C_11  and  O_12
REMARK    6  A    between atoms: O_12  and  C_13
REMARK    7  A    between atoms: C_16  and  C_17
REMARK                            x       y       z     vdW  Elec       q    Type
REMARK                         _______ _______ _______ _____ _____    ______ ____
ROOT
ATOM      1  C   UNL     1      47.619   5.375  15.110  0.00  0.00    +0.000 A 
ATOM      2  C   UNL     1      48.244   6.403  14.393  0.00  0.00    +0.000 A 
ATOM      3  C   UNL     1      47.882   6.706  13.078  0.00  0.00    +0.000 A 
ATOM      4  C   UNL     1      46.892   5.966  12.436  0.00  0.00    +0.000 A 
ATOM      5  C   UNL     1      46.260   4.915  13.103  0.00  0.00    +0.000 A 
ATOM      6  C   UNL     1      46.608   4.661  14.442  0.00  0.00    +0.000 A 
ENDROOT
BRANCH   1  10
ATOM      7  C   UNL     1      48.827   2.059  16.437  0.00  0.00    +0.000 C 
ATOM      8  C   UNL     1      48.418   2.949  17.615  0.00  0.00    +0.000 C 
ATOM      9  C   UNL     1      47.376   4.018  17.195  0.00  0.00    +0.000 C 
ATOM     10  N   UNL     1      47.993   5.093  16.411  0.00  0.00    +0.000 N 
ATOM     11  C   UNL     1      49.209   5.687  16.993  0.00  0.00    +0.000 C 
ATOM     12  C   UNL     1      50.203   4.590  17.441  0.00  0.00    +0.000 C 
ATOM     13  N   UNL     1      49.606   3.535  18.288  0.00  0.00    +0.000 NA
ATOM     14  H   UNL     1      49.278   3.987  19.143  0.00  0.00    +0.000 HD
ENDBRANCH   1  10
BRANCH   5  15
ATOM     15  C   UNL     1      45.236   4.045  12.404  0.00  0.00    +0.000 C 
BRANCH  15  16
ATOM     16  C   UNL     1      44.452   4.799  11.337  0.00  0.00    +0.000 C 
BRANCH  16  17
ATOM     17  O   UNL     1      43.914   3.899  10.357  0.00  0.00    +0.000 OA
BRANCH  17  18
ATOM     18  C   UNL     1      44.818   3.469   9.420  0.00  0.00    +0.000 A 
ATOM     19  C   UNL     1      45.494   4.294   8.520  0.00  0.00    +0.000 A 
ATOM     20  C   UNL     1      46.392   3.752   7.612  0.00  0.00    +0.000 A 
ATOM     21  C   UNL     1      46.596   2.380   7.625  0.00  0.00    +0.000 A 
ATOM     22  N   UNL     1      45.960   1.530   8.479  0.00  0.00    +0.000 NA
ATOM     23  C   UNL     1      45.088   2.100   9.352  0.00  0.00    +0.000 A 
BRANCH  21  24
ATOM     24  C   UNL     1      47.567   1.788   6.651  0.00  0.00    +0.000 C 
ATOM     25  N   UNL     1      48.608   2.598   6.295  0.00  0.00    +0.000 N 
ATOM     26  O   UNL     1      47.452   0.659   6.200  0.00  0.00    +0.000 OA
ATOM     27  H   UNL     1      48.682   3.526   6.695  0.00  0.00    +0.000 HD
ATOM     28  H   UNL     1      49.305   2.256   5.649  0.00  0.00    +0.000 HD
ENDBRANCH  21  24
ENDBRANCH  17  18
ENDBRANCH  16  17
ENDBRANCH  15  16
ENDBRANCH   5  15
TORSDOF 6
ENDMDL
MODEL 2
REMARK VINA RESULT:    -7.790      2.738      4.250
REMARK INTER + INTRA:         -11.311
REMARK INTER:                 -10.306
REMARK INTRA:                  -1.005
REMARK UNBOUND:                -0.789
REMARK  Name = 
REMARK  7 active torsions:
REMARK  status: ('A' for Active; 'I' for Inactive)
REMARK    1  A    between atoms: C_1  and  C_2
REMARK    2  A    between atoms: N_4  and  C_5
REMARK    3  A    between atoms: C_9  and  C_10
REMARK    4  A    between atoms: C_10  and  C_11
REMARK    5  A    between atoms: C_11  and  O_12
REMARK    6  A    between atoms: O_12  and  C_13
REMARK    7  A    between atoms: C_16  and  C_17
REMARK                            x       y       z     vdW  Elec       q    Type
REMARK                         _______ _______ _______ _____ _____    ______ ____
ROOT
ATOM      1  C   UNL     1      46.269   6.672  13.298  0.00  0.00    +0.000 A 
ATOM      2  C   UNL     1      47.289   5.756  13.588  0.00  0.00    +0.000 A 
ATOM      3  C   UNL     1      47.095   4.378  13.465  0.00  0.00    +0.000 A 
ATOM      4  C   UNL     1      45.858   3.878  13.068  0.00  0.00    +0.000 A 
ATOM      5  C   UNL     1      44.804   4.752  12.794  0.00  0.00    +0.000 A 
ATOM      6  C   UNL     1      45.038   6.136  12.878  0.00  0.00    +0.000 A 
ENDROOT
BRANCH   1  10
ATOM      7  C   UNL     1      49.008   8.683  11.664  0.00  0.00    +0.000 C 
ATOM      8  C   UNL     1      48.406   9.500  12.812  0.00  0.00    +0.000 C 
ATOM      9  C   UNL     1      47.759   8.590  13.888  0.00  0.00    +0.000 C 
ATOM     10  N   UNL     1      46.483   8.031  13.426  0.00  0.00    +0.000 N 
ATOM     11  C   UNL     1      45.531   9.004  12.860  0.00  0.00    +0.000 C 
ATOM     12  C   UNL     1      46.224   9.921  11.826  0.00  0.00    +0.000 C 
ATOM     13  N   UNL     1      47.478  10.543  12.305  0.00  0.00    +0.000 NA
ATOM     14  H   UNL     1      47.233  11.141  13.096  0.00  0.00    +0.000 HD
ENDBRANCH   1  10
BRANCH   5  15
ATOM     15  C   UNL     1      43.427   4.232  12.436  0.00  0.00    +0.000 C 
BRANCH  15  16
ATOM     16  C   UNL     1      43.439   3.326  11.212  0.00  0.00    +0.000 C 
BRANCH  16  17
ATOM     17  O   UNL     1      43.762   4.064  10.024  0.00  0.00    +0.000 OA
BRANCH  17  18
ATOM     18  C   UNL     1      44.689   3.463   9.213  0.00  0.00    +0.000 A 
ATOM     19  C   UNL     1      45.009   2.105   9.229  0.00  0.00    +0.000 A 
ATOM     20  C   UNL     1      45.965   1.601   8.359  0.00  0.00    +0.000 A 
ATOM     21  C   UNL     1      46.586   2.476   7.481  0.00  0.00    +0.000 A 
ATOM     22  N   UNL     1      46.314   3.810   7.426  0.00  0.00    +0.000 NA
ATOM     23  C   UNL     1      45.372   4.265   8.296  0.00  0.00    +0.000 A 
BRANCH  21  24
ATOM     24  C   UNL     1      47.615   1.938   6.536  0.00  0.00    +0.000 C 
ATOM     25  N   UNL     1      48.709   2.734   6.344  0.00  0.00    +0.000 N 
ATOM     26  O   UNL     1      47.499   0.862   5.970  0.00  0.00    +0.000 OA
ATOM     27  H   UNL     1      48.780   3.616   6.837  0.00  0.00    +0.000 HD
ATOM     28  H   UNL     1      49.446   2.425   5.727  0.00  0.00    +0.000 HD
ENDBRANCH  21  24
ENDBRANCH  17  18
ENDBRANCH  16  17
ENDBRANCH  15  16
ENDBRANCH   5  15
TORSDOF 6
ENDMDL
MODEL 3
REMARK VINA RESULT:    -7.696      2.215      3.234
REMARK INTER + INTRA:         -11.184
REMARK INTER:                 -10.315
REMARK INTRA:                  -0.869
REMARK UNBOUND:                -0.789
REMARK  Name = 
REMARK  7 active torsions:
REMARK  status: ('A' for Active; 'I' for Inactive)
REMARK    1  A    between atoms: C_1  and  C_2
REMARK    2  A    between atoms: N_4  and  C_5
REMARK    3  A    between atoms: C_9  and  C_10
REMARK    4  A    between atoms: C_10  and  C_11
REMARK    5  A    between atoms: C_11  and  O_12
REMARK    6  A    between atoms: O_12  and  C_13
REMARK    7  A    between atoms: C_16  and  C_17
REMARK                            x       y       z     vdW  Elec       q    Type
REMARK                         _______ _______ _______ _____ _____    ______ ____
ROOT
ATOM      1  C   UNL     1      46.528   6.384  12.804  0.00  0.00    +0.000 A 
ATOM      2  C   UNL     1      46.084   7.473  12.042  0.00  0.00    +0.000 A 
ATOM      3  C   UNL     1      44.795   7.517  11.507  0.00  0.00    +0.000 A 
ATOM      4  C   UNL     1      43.917   6.454  11.705  0.00  0.00    +0.000 A 
ATOM      5  C   UNL     1      44.325   5.336  12.435  0.00  0.00    +0.000 A 
ATOM      6  C   UNL     1      45.611   5.336  13.004  0.00  0.00    +0.000 A 
ENDROOT
BRANCH   1  10
ATOM      7  C   UNL     1      48.904   9.300  13.064  0.00  0.00    +0.000 C 
ATOM      8  C   UNL     1      49.691   7.998  13.238  0.00  0.00    +0.000 C 
ATOM      9  C   UNL     1      48.980   6.800  12.558  0.00  0.00    +0.000 C 
ATOM     10  N   UNL     1      47.808   6.362  13.324  0.00  0.00    +0.000 N 
ATOM     11  C   UNL     1      48.036   6.141  14.763  0.00  0.00    +0.000 C 
ATOM     12  C   UNL     1      48.787   7.337  15.396  0.00  0.00    +0.000 C 
ATOM     13  N   UNL     1      50.008   7.744  14.668  0.00  0.00    +0.000 NA
ATOM     14  H   UNL     1      50.654   6.954  14.699  0.00  0.00    +0.000 HD
ENDBRANCH   1  10
BRANCH   5  15
ATOM     15  C   UNL     1      43.420   4.133  12.598  0.00  0.00    +0.000 C 
BRANCH  15  16
ATOM     16  C   UNL     1      43.680   3.054  11.554  0.00  0.00    +0.000 C 
BRANCH  16  17
ATOM     17  O   UNL     1      43.488   3.563  10.226  0.00  0.00    +0.000 OA
BRANCH  17  18
ATOM     18  C   UNL     1      44.470   3.218   9.334  0.00  0.00    +0.000 A 
ATOM     19  C   UNL     1      45.110   4.103   8.466  0.00  0.00    +0.000 A 
ATOM     20  C   UNL     1      46.096   3.647   7.603  0.00  0.00    +0.000 A 
ATOM     21  C   UNL     1      46.425   2.299   7.630  0.00  0.00    +0.000 A 
ATOM     22  N   UNL     1      45.830   1.393   8.455  0.00  0.00    +0.000 NA
ATOM     23  C   UNL     1      44.868   1.880   9.284  0.00  0.00    +0.000 A 
BRANCH  21  24
ATOM     24  C   UNL     1      47.492   1.801   6.706  0.00  0.00    +0.000 C 
ATOM     25  N   UNL     1      48.543   2.650   6.509  0.00  0.00    +0.000 N 
ATOM     26  O   UNL     1      47.441   0.709   6.159  0.00  0.00    +0.000 OA
ATOM     27  H   UNL     1      48.561   3.544   6.986  0.00  0.00    +0.000 HD
ATOM     28  H   UNL     1      49.303   2.371   5.905  0.00  0.00    +0.000 HD
ENDBRANCH  21  24
ENDBRANCH  17  18
ENDBRANCH  16  17
ENDBRANCH  15  16
ENDBRANCH   5  15
TORSDOF 6
ENDMDL
MODEL 4
REMARK VINA RESULT:    -7.000      3.693      7.863
REMARK INTER + INTRA:         -10.243
REMARK INTER:                  -9.244
REMARK INTRA:                  -0.999
REMARK UNBOUND:                -0.789
REMARK  Name = 
REMARK  7 active torsions:
REMARK  status: ('A' for Active; 'I' for Inactive)
REMARK    1  A    between atoms: C_1  and  C_2
REMARK    2  A    between atoms: N_4  and  C_5
REMARK    3  A    between atoms: C_9  and  C_10
REMARK    4  A    between atoms: C_10  and  C_11
REMARK    5  A    between atoms: C_11  and  O_12
REMARK    6  A    between atoms: O_12  and  C_13
REMARK    7  A    between atoms: C_16  and  C_17
REMARK                            x       y       z     vdW  Elec       q    Type
REMARK                         _______ _______ _______ _____ _____    ______ ____
ROOT
ATOM      1  C   UNL     1      46.021   6.594  11.700  0.00  0.00    +0.000 A 
ATOM      2  C   UNL     1      45.099   7.644  11.805  0.00  0.00    +0.000 A 
ATOM      3  C   UNL     1      45.507   8.955  12.065  0.00  0.00    +0.000 A 
ATOM      4  C   UNL     1      46.857   9.245  12.249  0.00  0.00    +0.000 A 
ATOM      5  C   UNL     1      47.809   8.226  12.179  0.00  0.00    +0.000 A 
ATOM      6  C   UNL     1      47.378   6.923  11.869  0.00  0.00    +0.000 A 
ENDROOT
BRANCH   1  10
ATOM      7  C   UNL     1      42.873   4.964  12.985  0.00  0.00    +0.000 C 
ATOM      8  C   UNL     1      43.822   3.878  12.469  0.00  0.00    +0.000 C 
ATOM      9  C   UNL     1      45.302   4.342  12.509  0.00  0.00    +0.000 C 
ATOM     10  N   UNL     1      45.594   5.305  11.442  0.00  0.00    +0.000 N 
ATOM     11  C   UNL     1      45.162   4.908  10.090  0.00  0.00    +0.000 C 
ATOM     12  C   UNL     1      43.697   4.410  10.100  0.00  0.00    +0.000 C 
ATOM     13  N   UNL     1      43.407   3.388  11.129  0.00  0.00    +0.000 NA
ATOM     14  H   UNL     1      43.983   2.573  10.914  0.00  0.00    +0.000 HD
ENDBRANCH   1  10
BRANCH   5  15
ATOM     15  C   UNL     1      49.273   8.499  12.453  0.00  0.00    +0.000 C 
BRANCH  15  16
ATOM     16  C   UNL     1      49.843   7.609  13.550  0.00  0.00    +0.000 C 
BRANCH  16  17
ATOM     17  O   UNL     1      49.326   7.979  14.837  0.00  0.00    +0.000 OA
BRANCH  17  18
ATOM     18  C   UNL     1      48.953   6.923  15.628  0.00  0.00    +0.000 A 
ATOM     19  C   UNL     1      49.253   6.793  16.985  0.00  0.00    +0.000 A 
ATOM     20  C   UNL     1      48.823   5.680  17.693  0.00  0.00    +0.000 A 
ATOM     21  C   UNL     1      48.093   4.711  17.020  0.00  0.00    +0.000 A 
ATOM     22  N   UNL     1      47.775   4.787  15.697  0.00  0.00    +0.000 NA
ATOM     23  C   UNL     1      48.217   5.893  15.039  0.00  0.00    +0.000 A 
BRANCH  21  24
ATOM     24  C   UNL     1      47.621   3.510  17.779  0.00  0.00    +0.000 C 
ATOM     25  N   UNL     1      48.360   3.183  18.880  0.00  0.00    +0.000 N 
ATOM     26  O   UNL     1      46.641   2.858  17.449  0.00  0.00    +0.000 OA
ATOM     27  H   UNL     1      49.160   3.750  19.133  0.00  0.00    +0.000 HD
ATOM     28  H   UNL     1      48.089   2.390  19.443  0.00  0.00    +0.000 HD
ENDBRANCH  21  24
ENDBRANCH  17  18
ENDBRANCH  16  17
ENDBRANCH  15  16
ENDBRANCH   5  15
TORSDOF 6
ENDMDL
MODEL 5
REMARK VINA RESULT:    -6.751      2.790      3.943
REMARK INTER + INTRA:          -9.908
REMARK INTER:                  -9.055
REMARK INTRA:                  -0.853
REMARK UNBOUND:                -0.789
REMARK  Name = 
REMARK  7 active torsions:
REMARK  status: ('A' for Active; 'I' for Inactive)
REMARK    1  A    between atoms: C_1  and  C_2
REMARK    2  A    between atoms: N_4  and  C_5
REMARK    3  A    between atoms: C_9  and  C_10
REMARK    4  A    between atoms: C_10  and  C_11
REMARK    5  A    between atoms: C_11  and  O_12
REMARK    6  A    between atoms: O_12  and  C_13
REMARK    7  A    between atoms: C_16  and  C_17
REMARK                            x       y       z     vdW  Elec       q    Type
REMARK                         _______ _______ _______ _____ _____    ______ ____
ROOT
ATOM      1  C   UNL     1      48.916   6.272  16.473  0.00  0.00    +0.000 A 
ATOM      2  C   UNL     1      50.025   7.065  16.795  0.00  0.00    +0.000 A 
ATOM      3  C   UNL     1      50.662   7.859  15.839  0.00  0.00    +0.000 A 
ATOM      4  C   UNL     1      50.215   7.861  14.520  0.00  0.00    +0.000 A 
ATOM      5  C   UNL     1      49.130   7.066  14.147  0.00  0.00    +0.000 A 
ATOM      6  C   UNL     1      48.475   6.312  15.138  0.00  0.00    +0.000 A 
ENDROOT
BRANCH   1  10
ATOM      7  C   UNL     1      49.750   2.701  17.353  0.00  0.00    +0.000 C 
ATOM      8  C   UNL     1      48.370   3.047  17.923  0.00  0.00    +0.000 C 
ATOM      9  C   UNL     1      47.692   4.195  17.131  0.00  0.00    +0.000 C 
ATOM     10  N   UNL     1      48.301   5.494  17.436  0.00  0.00    +0.000 N 
ATOM     11  C   UNL     1      48.451   5.806  18.868  0.00  0.00    +0.000 C 
ATOM     12  C   UNL     1      49.089   4.620  19.631  0.00  0.00    +0.000 C 
ATOM     13  N   UNL     1      48.440   3.315  19.382  0.00  0.00    +0.000 NA
ATOM     14  H   UNL     1      47.480   3.388  19.723  0.00  0.00    +0.000 HD
ENDBRANCH   1  10
BRANCH   5  15
ATOM     15  C   UNL     1      48.672   6.989  12.705  0.00  0.00    +0.000 C 
BRANCH  15  16
ATOM     16  C   UNL     1      47.503   7.920  12.408  0.00  0.00    +0.000 C 
BRANCH  16  17
ATOM     17  O   UNL     1      46.306   7.473  13.062  0.00  0.00    +0.000 OA
BRANCH  17  18
ATOM     18  C   UNL     1      45.721   6.372  12.493  0.00  0.00    +0.000 A 
ATOM     19  C   UNL     1      45.410   6.240  11.139  0.00  0.00    +0.000 A 
ATOM     20  C   UNL     1      44.819   5.076  10.667  0.00  0.00    +0.000 A 
ATOM     21  C   UNL     1      44.550   4.059  11.571  0.00  0.00    +0.000 A 
ATOM     22  N   UNL     1      44.831   4.138  12.902  0.00  0.00    +0.000 NA
ATOM     23  C   UNL     1      45.409   5.294  13.324  0.00  0.00    +0.000 A 
BRANCH  21  24
ATOM     24  C   UNL     1      43.917   2.799  11.068  0.00  0.00    +0.000 C 
ATOM     25  N   UNL     1      44.535   2.219   9.996  0.00  0.00    +0.000 N 
ATOM     26  O   UNL     1      42.919   2.309  11.574  0.00  0.00    +0.000 OA
ATOM     27  H   UNL     1      45.367   2.644   9.607  0.00  0.00    +0.000 HD
ATOM     28  H   UNL     1      44.165   1.360   9.614  0.00  0.00    +0.000 HD
ENDBRANCH  21  24
ENDBRANCH  17  18
ENDBRANCH  16  17
ENDBRANCH  15  16
ENDBRANCH   5  15
TORSDOF 6
ENDMDL
MODEL 6
REMARK VINA RESULT:    -6.644      3.997      6.195
REMARK INTER + INTRA:          -9.762
REMARK INTER:                  -9.066
REMARK INTRA:                  -0.697
REMARK UNBOUND:                -0.789
REMARK  Name = 
REMARK  7 active torsions:
REMARK  status: ('A' for Active; 'I' for Inactive)
REMARK    1  A    between atoms: C_1  and  C_2
REMARK    2  A    between atoms: N_4  and  C_5
REMARK    3  A    between atoms: C_9  and  C_10
REMARK    4  A    between atoms: C_10  and  C_11
REMARK    5  A    between atoms: C_11  and  O_12
REMARK    6  A    between atoms: O_12  and  C_13
REMARK    7  A    between atoms: C_16  and  C_17
REMARK                            x       y       z     vdW  Elec       q    Type
REMARK                         _______ _______ _______ _____ _____    ______ ____
ROOT
ATOM      1  C   UNL     1      45.200   8.867  11.865  0.00  0.00    +0.000 A 
ATOM      2  C   UNL     1      46.261   9.095  12.751  0.00  0.00    +0.000 A 
ATOM      3  C   UNL     1      47.065   8.052  13.217  0.00  0.00    +0.000 A 
ATOM      4  C   UNL     1      46.809   6.741  12.823  0.00  0.00    +0.000 A 
ATOM      5  C   UNL     1      45.745   6.463  11.962  0.00  0.00    +0.000 A 
ATOM      6  C   UNL     1      44.981   7.536  11.469  0.00  0.00    +0.000 A 
ENDROOT
BRANCH   1  10
ATOM      7  C   UNL     1      46.313  11.734   9.684  0.00  0.00    +0.000 C 
ATOM      8  C   UNL     1      44.979  12.097  10.343  0.00  0.00    +0.000 C 
ATOM      9  C   UNL     1      44.760  11.319  11.666  0.00  0.00    +0.000 C 
ATOM     10  N   UNL     1      44.418   9.915  11.417  0.00  0.00    +0.000 N 
ATOM     11  C   UNL     1      43.336   9.688  10.442  0.00  0.00    +0.000 C 
ATOM     12  C   UNL     1      43.567  10.515   9.155  0.00  0.00    +0.000 C 
ATOM     13  N   UNL     1      43.847  11.947   9.392  0.00  0.00    +0.000 NA
ATOM     14  H   UNL     1      43.020  12.344   9.841  0.00  0.00    +0.000 HD
ENDBRANCH   1  10
BRANCH   5  15
ATOM     15  C   UNL     1      45.396   5.040  11.580  0.00  0.00    +0.000 C 
BRANCH  15  16
ATOM     16  C   UNL     1      43.940   4.883  11.158  0.00  0.00    +0.000 C 
BRANCH  16  17
ATOM     17  O   UNL     1      43.812   4.894   9.729  0.00  0.00    +0.000 OA
BRANCH  17  18
ATOM     18  C   UNL     1      44.658   4.038   9.073  0.00  0.00    +0.000 A 
ATOM     19  C   UNL     1      45.652   4.425   8.173  0.00  0.00    +0.000 A 
ATOM     20  C   UNL     1      46.456   3.471   7.566  0.00  0.00    +0.000 A 
ATOM     21  C   UNL     1      46.246   2.136   7.875  0.00  0.00    +0.000 A 
ATOM     22  N   UNL     1      45.288   1.704   8.743  0.00  0.00    +0.000 NA
ATOM     23  C   UNL     1      44.521   2.669   9.317  0.00  0.00    +0.000 A 
BRANCH  21  24
ATOM     24  C   UNL     1      47.113   1.102   7.227  0.00  0.00    +0.000 C 
ATOM     25  N   UNL     1      46.801  -0.195   7.524  0.00  0.00    +0.000 N 
ATOM     26  O   UNL     1      48.038   1.383   6.480  0.00  0.00    +0.000 OA
ATOM     27  H   UNL     1      46.022  -0.395   8.138  0.00  0.00    +0.000 HD
ATOM     28  H   UNL     1      47.341  -0.942   7.111  0.00  0.00    +0.000 HD
ENDBRANCH  21  24
ENDBRANCH  17  18
ENDBRANCH  16  17
ENDBRANCH  15  16
ENDBRANCH   5  15
TORSDOF 6
ENDMDL
MODEL 7
REMARK VINA RESULT:    -6.567      3.769      5.185
REMARK INTER + INTRA:          -9.659
REMARK INTER:                  -8.640
REMARK INTRA:                  -1.019
REMARK UNBOUND:                -0.789
REMARK  Name = 
REMARK  7 active torsions:
REMARK  status: ('A' for Active; 'I' for Inactive)
REMARK    1  A    between atoms: C_1  and  C_2
REMARK    2  A    between atoms: N_4  and  C_5
REMARK    3  A    between atoms: C_9  and  C_10
REMARK    4  A    between atoms: C_10  and  C_11
REMARK    5  A    between atoms: C_11  and  O_12
REMARK    6  A    between atoms: O_12  and  C_13
REMARK    7  A    between atoms: C_16  and  C_17
REMARK                            x       y       z     vdW  Elec       q    Type
REMARK                         _______ _______ _______ _____ _____    ______ ____
ROOT
ATOM      1  C   UNL     1      48.283   6.946  17.809  0.00  0.00    +0.000 A 
ATOM      2  C   UNL     1      48.144   8.229  18.354  0.00  0.00    +0.000 A 
ATOM      3  C   UNL     1      48.589   9.366  17.676  0.00  0.00    +0.000 A 
ATOM      4  C   UNL     1      49.210   9.244  16.435  0.00  0.00    +0.000 A 
ATOM      5  C   UNL     1      49.394   7.983  15.865  0.00  0.00    +0.000 A 
ATOM      6  C   UNL     1      48.894   6.857  16.545  0.00  0.00    +0.000 A 
ENDROOT
BRANCH   1  10
ATOM      7  C   UNL     1      49.849   3.516  17.810  0.00  0.00    +0.000 C 
ATOM      8  C   UNL     1      48.419   3.412  18.351  0.00  0.00    +0.000 C 
ATOM      9  C   UNL     1      47.522   4.565  17.832  0.00  0.00    +0.000 C 
ATOM     10  N   UNL     1      47.835   5.834  18.498  0.00  0.00    +0.000 N 
ATOM     11  C   UNL     1      47.894   5.782  19.969  0.00  0.00    +0.000 C 
ATOM     12  C   UNL     1      48.760   4.594  20.448  0.00  0.00    +0.000 C 
ATOM     13  N   UNL     1      48.408   3.296  19.833  0.00  0.00    +0.000 NA
ATOM     14  H   UNL     1      47.450   3.080  20.112  0.00  0.00    +0.000 HD
ENDBRANCH   1  10
BRANCH   5  15
ATOM     15  C   UNL     1      50.135   7.814  14.555  0.00  0.00    +0.000 C 
BRANCH  15  16
ATOM     16  C   UNL     1      49.200   7.587  13.374  0.00  0.00    +0.000 C 
BRANCH  16  17
ATOM     17  O   UNL     1      48.969   6.187  13.159  0.00  0.00    +0.000 OA
BRANCH  17  18
ATOM     18  C   UNL     1      47.653   5.844  12.987  0.00  0.00    +0.000 A 
ATOM     19  C   UNL     1      46.820   6.340  11.983  0.00  0.00    +0.000 A 
ATOM     20  C   UNL     1      45.500   5.922  11.899  0.00  0.00    +0.000 A 
ATOM     21  C   UNL     1      45.037   5.006  12.832  0.00  0.00    +0.000 A 
ATOM     22  N   UNL     1      45.806   4.493  13.833  0.00  0.00    +0.000 NA
ATOM     23  C   UNL     1      47.094   4.929  13.881  0.00  0.00    +0.000 A 
BRANCH  21  24
ATOM     24  C   UNL     1      43.615   4.547  12.745  0.00  0.00    +0.000 C 
ATOM     25  N   UNL     1      42.674   5.486  13.061  0.00  0.00    +0.000 N 
ATOM     26  O   UNL     1      43.301   3.414  12.412  0.00  0.00    +0.000 OA
ATOM     27  H   UNL     1      42.966   6.420  13.323  0.00  0.00    +0.000 HD
ATOM     28  H   UNL     1      41.695   5.245  13.013  0.00  0.00    +0.000 HD
ENDBRANCH  21  24
ENDBRANCH  17  18
ENDBRANCH  16  17
ENDBRANCH  15  16
ENDBRANCH   5  15
TORSDOF 6
ENDMDL
MODEL 8
REMARK VINA RESULT:    -6.492      3.401      5.096
REMARK INTER + INTRA:          -9.557
REMARK INTER:                  -8.761
REMARK INTRA:                  -0.797
REMARK UNBOUND:                -0.789
REMARK  Name = 
REMARK  7 active torsions:
REMARK  status: ('A' for Active; 'I' for Inactive)
REMARK    1  A    between atoms: C_1  and  C_2
REMARK    2  A    between atoms: N_4  and  C_5
REMARK    3  A    between atoms: C_9  and  C_10
REMARK    4  A    between atoms: C_10  and  C_11
REMARK    5  A    between atoms: C_11  and  O_12
REMARK    6  A    between atoms: O_12  and  C_13
REMARK    7  A    between atoms: C_16  and  C_17
REMARK                            x       y       z     vdW  Elec       q    Type
REMARK                         _______ _______ _______ _____ _____    ______ ____
ROOT
ATOM      1  C   UNL     1      51.013   5.555  17.311  0.00  0.00    +0.000 A 
ATOM      2  C   UNL     1      52.383   5.811  17.166  0.00  0.00    +0.000 A 
ATOM      3  C   UNL     1      52.859   6.763  16.263  0.00  0.00    +0.000 A 
ATOM      4  C   UNL     1      51.971   7.474  15.459  0.00  0.00    +0.000 A 
ATOM      5  C   UNL     1      50.598   7.233  15.551  0.00  0.00    +0.000 A 
ATOM      6  C   UNL     1      50.139   6.303  16.502  0.00  0.00    +0.000 A 
ENDROOT
BRANCH   1  10
ATOM      7  C   UNL     1      47.980   5.822  19.535  0.00  0.00    +0.000 C 
ATOM      8  C   UNL     1      48.880   4.696  20.053  0.00  0.00    +0.000 C 
ATOM      9  C   UNL     1      50.359   4.903  19.634  0.00  0.00    +0.000 C 
ATOM     10  N   UNL     1      50.564   4.607  18.212  0.00  0.00    +0.000 N 
ATOM     11  C   UNL     1      50.019   3.320  17.746  0.00  0.00    +0.000 C 
ATOM     12  C   UNL     1      48.559   3.130  18.221  0.00  0.00    +0.000 C 
ATOM     13  N   UNL     1      48.354   3.361  19.668  0.00  0.00    +0.000 NA
ATOM     14  H   UNL     1      48.907   2.662  20.165  0.00  0.00    +0.000 HD
ENDBRANCH   1  10
BRANCH   5  15
ATOM     15  C   UNL     1      49.616   7.933  14.635  0.00  0.00    +0.000 C 
BRANCH  15  16
ATOM     16  C   UNL     1      48.337   7.133  14.421  0.00  0.00    +0.000 C 
BRANCH  16  17
ATOM     17  O   UNL     1      48.476   6.219  13.324  0.00  0.00    +0.000 OA
BRANCH  17  18
ATOM     18  C   UNL     1      47.308   5.623  12.925  0.00  0.00    +0.000 A 
ATOM     19  C   UNL     1      46.468   6.100  11.917  0.00  0.00    +0.000 A 
ATOM     20  C   UNL     1      45.307   5.414  11.591  0.00  0.00    +0.000 A 
ATOM     21  C   UNL     1      45.008   4.253  12.288  0.00  0.00    +0.000 A 
ATOM     22  N   UNL     1      45.791   3.746  13.282  0.00  0.00    +0.000 NA
ATOM     23  C   UNL     1      46.919   4.448  13.572  0.00  0.00    +0.000 A 
BRANCH  21  24
ATOM     24  C   UNL     1      43.759   3.505  11.938  0.00  0.00    +0.000 C 
ATOM     25  N   UNL     1      43.658   2.250  12.469  0.00  0.00    +0.000 N 
ATOM     26  O   UNL     1      42.880   3.973  11.231  0.00  0.00    +0.000 OA
ATOM     27  H   UNL     1      44.400   1.895  13.061  0.00  0.00    +0.000 HD
ATOM     28  H   UNL     1      42.836   1.696  12.281  0.00  0.00    +0.000 HD
ENDBRANCH  21  24
ENDBRANCH  17  18
ENDBRANCH  16  17
ENDBRANCH  15  16
ENDBRANCH   5  15
TORSDOF 6
ENDMDL
MODEL 9
REMARK VINA RESULT:    -6.424      3.160      4.080
REMARK INTER + INTRA:          -9.466
REMARK INTER:                  -8.867
REMARK INTRA:                  -0.599
REMARK UNBOUND:                -0.789
REMARK  Name = 
REMARK  7 active torsions:
REMARK  status: ('A' for Active; 'I' for Inactive)
REMARK    1  A    between atoms: C_1  and  C_2
REMARK    2  A    between atoms: N_4  and  C_5
REMARK    3  A    between atoms: C_9  and  C_10
REMARK    4  A    between atoms: C_10  and  C_11
REMARK    5  A    between atoms: C_11  and  O_12
REMARK    6  A    between atoms: O_12  and  C_13
REMARK    7  A    between atoms: C_16  and  C_17
REMARK                            x       y       z     vdW  Elec       q    Type
REMARK                         _______ _______ _______ _____ _____    ______ ____
ROOT
ATOM      1  C   UNL     1      48.249   7.705  12.796  0.00  0.00    +0.000 A 
ATOM      2  C   UNL     1      47.494   8.855  13.064  0.00  0.00    +0.000 A 
ATOM      3  C   UNL     1      46.105   8.872  12.914  0.00  0.00    +0.000 A 
ATOM      4  C   UNL     1      45.434   7.735  12.469  0.00  0.00    +0.000 A 
ATOM      5  C   UNL     1      46.149   6.574  12.165  0.00  0.00    +0.000 A 
ATOM      6  C   UNL     1      47.540   6.567  12.369  0.00  0.00    +0.000 A 
ENDROOT
BRANCH   1  10
ATOM      7  C   UNL     1      50.593  10.546  11.991  0.00  0.00    +0.000 C 
ATOM      8  C   UNL     1      51.404   9.255  12.131  0.00  0.00    +0.000 C 
ATOM      9  C   UNL     1      50.541   7.999  11.845  0.00  0.00    +0.000 C 
ATOM     10  N   UNL     1      49.622   7.711  12.951  0.00  0.00    +0.000 N 
ATOM     11  C   UNL     1      50.232   7.684  14.293  0.00  0.00    +0.000 C 
ATOM     12  C   UNL     1      51.120   8.929  14.524  0.00  0.00    +0.000 C 
ATOM     13  N   UNL     1      52.097   9.191  13.444  0.00  0.00    +0.000 NA
ATOM     14  H   UNL     1      52.731   8.391  13.413  0.00  0.00    +0.000 HD
ENDBRANCH   1  10
BRANCH   5  15
ATOM     15  C   UNL     1      45.455   5.351  11.604  0.00  0.00    +0.000 C 
BRANCH  15  16
ATOM     16  C   UNL     1      44.244   5.701  10.747  0.00  0.00    +0.000 C 
BRANCH  16  17
ATOM     17  O   UNL     1      43.685   4.528  10.139  0.00  0.00    +0.000 OA
BRANCH  17  18
ATOM     18  C   UNL     1      44.569   3.795   9.390  0.00  0.00    +0.000 A 
ATOM     19  C   UNL     1      45.439   4.323   8.434  0.00  0.00    +0.000 A 
ATOM     20  C   UNL     1      46.297   3.488   7.733  0.00  0.00    +0.000 A 
ATOM     21  C   UNL     1      46.266   2.129   8.007  0.00  0.00    +0.000 A 
ATOM     22  N   UNL     1      45.435   1.562   8.926  0.00  0.00    +0.000 NA
ATOM     23  C   UNL     1      44.609   2.414   9.591  0.00  0.00    +0.000 A 
BRANCH  21  24
ATOM     24  C   UNL     1      47.193   1.223   7.258  0.00  0.00    +0.000 C 
ATOM     25  N   UNL     1      46.957  -0.114   7.409  0.00  0.00    +0.000 N 
ATOM     26  O   UNL     1      48.101   1.636   6.552  0.00  0.00    +0.000 OA
ATOM     27  H   UNL     1      46.189  -0.425   7.992  0.00  0.00    +0.000 HD
ATOM     28  H   UNL     1      47.539  -0.780   6.922  0.00  0.00    +0.000 HD
ENDBRANCH  21  24
ENDBRANCH  17  18
ENDBRANCH  16  17
ENDBRANCH  15  16
ENDBRANCH   5  15
TORSDOF 6
ENDMDL
