MODEL 1
REMARK VINA RESULT:    -7.882      0.000      0.000
REMARK INTER + INTRA:         -11.521
REMARK INTER:                 -10.647
REMARK INTRA:                  -0.874
REMARK UNBOUND:                -0.874
REMARK  Name = 
REMARK  7 active torsions:
REMARK  status: ('A' for Active; 'I' for Inactive)
REMARK    1  A    between atoms: C_1  and  O_2
REMARK    2  A    between atoms: O_2  and  C_3
REMARK    3  A    between atoms: C_5  and  C_6
REMARK    4  A    between atoms: C_6  and  O_7
REMARK    5  A    between atoms: O_7  and  C_8
REMARK    6  A    between atoms: C_12  and  C_13
REMARK    7  A    between atoms: C_17  and  C_18
REMARK                            x       y       z     vdW  Elec       q    Type
REMARK                         _______ _______ _______ _____ _____    ______ ____
ROOT
ATOM      1  C   UNL     1      46.698   4.008  13.606  0.00  0.00    +0.000 A 
ATOM      2  C   UNL     1      45.666   3.443  12.871  0.00  0.00    +0.000 A 
ATOM      3  C   UNL     1      44.954   4.252  11.992  0.00  0.00    +0.000 A 
ATOM      4  N   UNL     1      45.225   5.572  11.834  0.00  0.00    +0.000 NA
ATOM      5  C   UNL     1      46.226   6.123  12.568  0.00  0.00    +0.000 A 
ATOM      6  C   UNL     1      46.964   5.366  13.473  0.00  0.00    +0.000 A 
ENDROOT
BRANCH   5   7
ATOM      7  C   UNL     1      46.489   7.555  12.325  0.00  0.00    +0.000 A 
ATOM      8  C   UNL     1      47.806   8.050  12.263  0.00  0.00    +0.000 A 
ATOM      9  C   UNL     1      48.069   9.406  12.040  0.00  0.00    +0.000 A 
ATOM     10  C   UNL     1      47.014  10.301  11.879  0.00  0.00    +0.000 A 
ATOM     11  C   UNL     1      45.705   9.836  11.944  0.00  0.00    +0.000 A 
ATOM     12 CL   UNL     1      44.395  10.936  11.760  0.00  0.00    +0.000 Cl
ATOM     13  C   UNL     1      45.442   8.483  12.164  0.00  0.00    +0.000 A 
ENDBRANCH   5   7
BRANCH   1  15
ATOM     14  C   UNL     1      47.425   3.809  15.844  0.00  0.00    +0.000 C 
ATOM     15  O   UNL     1      47.488   3.339  14.501  0.00  0.00    +0.000 OA
ENDBRANCH   1  15
BRANCH   3  16
ATOM     16  C   UNL     1      43.840   3.658  11.162  0.00  0.00    +0.000 C 
BRANCH  16  17
ATOM     17  O   UNL     1      43.920   4.150   9.823  0.00  0.00    +0.000 OA
BRANCH  17  18
ATOM     18  C   UNL     1      44.902   3.626   9.031  0.00  0.00    +0.000 A 
ATOM     19  C   UNL     1      45.643   4.538   8.285  0.00  0.00    +0.000 A 
ATOM     20  N   UNL     1      46.636   4.198   7.426  0.00  0.00    +0.000 NA
ATOM     21  C   UNL     1      46.906   2.880   7.304  0.00  0.00    +0.000 A 
ATOM     22  C   UNL     1      46.233   1.893   8.005  0.00  0.00    +0.000 A 
ATOM     23  C   UNL     1      45.216   2.276   8.887  0.00  0.00    +0.000 A 
BRANCH  22  24
ATOM     24  C   UNL     1      46.565   0.516   7.818  0.00  0.00    +0.000 C 
ATOM     25  N   UNL     1      46.839  -0.601   7.681  0.00  0.00    +0.000 NA
ENDBRANCH  22  24
ENDBRANCH  17  18
ENDBRANCH  16  17
ENDBRANCH   3  16
TORSDOF 6
ENDMDL
MODEL 2
REMARK VINA RESULT:    -7.092      1.490      1.921
REMARK INTER + INTRA:         -10.453
REMARK INTER:                  -9.812
REMARK INTRA:                  -0.642
REMARK UNBOUND:                -0.874
REMARK  Name = 
REMARK  7 active torsions:
REMARK  status: ('A' for Active; 'I' for Inactive)
REMARK    1  A    between atoms: C_1  and  O_2
REMARK    2  A    between atoms: O_2  and  C_3
REMARK    3  A    between atoms: C_5  and  C_6
REMARK    4  A    between atoms: C_6  and  O_7
REMARK    5  A    between atoms: O_7  and  C_8
REMARK    6  A    between atoms: C_12  and  C_13
REMARK    7  A    between atoms: C_17  and  C_18
REMARK                            x       y       z     vdW  Elec       q    Type
REMARK                         _______ _______ _______ _____ _____    ______ ____
ROOT
ATOM      1  C   UNL     1      46.207   4.619  13.574  0.00  0.00    +0.000 A 
ATOM      2  C   UNL     1      45.348   4.252  12.549  0.00  0.00    +0.000 A 
ATOM      3  C   UNL     1      45.293   5.048  11.409  0.00  0.00    +0.000 A 
ATOM      4  N   UNL     1      46.039   6.171  11.269  0.00  0.00    +0.000 NA
ATOM      5  C   UNL     1      46.867   6.534  12.282  0.00  0.00    +0.000 A 
ATOM      6  C   UNL     1      46.955   5.784  13.451  0.00  0.00    +0.000 A 
ENDROOT
BRANCH   5   7
ATOM      7  C   UNL     1      47.674   7.748  12.051  0.00  0.00    +0.000 A 
ATOM      8  C   UNL     1      49.040   7.659  11.722  0.00  0.00    +0.000 A 
ATOM      9  C   UNL     1      49.817   8.802  11.507  0.00  0.00    +0.000 A 
ATOM     10  C   UNL     1      49.243  10.066  11.624  0.00  0.00    +0.000 A 
ATOM     11  C   UNL     1      47.898  10.178  11.957  0.00  0.00    +0.000 A 
ATOM     12 CL   UNL     1      47.182  11.734  12.118  0.00  0.00    +0.000 Cl
ATOM     13  C   UNL     1      47.120   9.038  12.169  0.00  0.00    +0.000 A 
ENDBRANCH   5   7
BRANCH   1  15
ATOM     14  C   UNL     1      47.391   4.435  15.609  0.00  0.00    +0.000 C 
ATOM     15  O   UNL     1      46.375   3.933  14.747  0.00  0.00    +0.000 OA
ENDBRANCH   1  15
BRANCH   3  16
ATOM     16  C   UNL     1      44.382   4.659  10.268  0.00  0.00    +0.000 C 
BRANCH  16  17
ATOM     17  O   UNL     1      45.092   4.755   9.031  0.00  0.00    +0.000 OA
BRANCH  17  18
ATOM     18  C   UNL     1      45.561   3.588   8.498  0.00  0.00    +0.000 A 
ATOM     19  C   UNL     1      45.266   2.426   9.206  0.00  0.00    +0.000 A 
ATOM     20  N   UNL     1      45.673   1.184   8.844  0.00  0.00    +0.000 NA
ATOM     21  C   UNL     1      46.412   1.094   7.716  0.00  0.00    +0.000 A 
ATOM     22  C   UNL     1      46.754   2.186   6.936  0.00  0.00    +0.000 A 
ATOM     23  C   UNL     1      46.316   3.455   7.335  0.00  0.00    +0.000 A 
BRANCH  22  24
ATOM     24  C   UNL     1      47.548   2.018   5.760  0.00  0.00    +0.000 C 
ATOM     25  N   UNL     1      48.199   1.894   4.810  0.00  0.00    +0.000 NA
ENDBRANCH  22  24
ENDBRANCH  17  18
ENDBRANCH  16  17
ENDBRANCH   3  16
TORSDOF 6
ENDMDL
MODEL 3
REMARK VINA RESULT:    -6.957      2.096      2.785
REMARK INTER + INTRA:         -10.272
REMARK INTER:                  -9.462
REMARK INTRA:                  -0.810
REMARK UNBOUND:                -0.874
REMARK  Name = 
REMARK  7 active torsions:
REMARK  status: ('A' for Active; 'I' for Inactive)
REMARK    1  A    between atoms: C_1  and  O_2
REMARK    2  A    between atoms: O_2  and  C_3
REMARK    3  A    between atoms: C_5  and  C_6
REMARK    4  A    between atoms: C_6  and  O_7
REMARK    5  A    between atoms: O_7  and  C_8
REMARK    6  A    between atoms: C_12  and  C_13
REMARK    7  A    between atoms: C_17  and  C_18
REMARK                            x       y       z     vdW  Elec       q    Type
REMARK                         _______ _______ _______ _____ _____    ______ ____
ROOT
ATOM      1  C   UNL     1      46.940   4.843  14.063  0.00  0.00    +0.000 A 
ATOM      2  C   UNL     1      45.609   4.713  13.696  0.00  0.00    +0.000 A 
ATOM      3  C   UNL     1      45.038   5.701  12.901  0.00  0.00    +0.000 A 
ATOM      4  N   UNL     1      45.731   6.789  12.481  0.00  0.00    +0.000 NA
ATOM      5  C   UNL     1      47.030   6.918  12.857  0.00  0.00    +0.000 A 
ATOM      6  C   UNL     1      47.650   5.968  13.662  0.00  0.00    +0.000 A 
ENDROOT
BRANCH   5   7
ATOM      7  C   UNL     1      47.735   8.108  12.340  0.00  0.00    +0.000 A 
ATOM      8  C   UNL     1      47.079   9.349  12.231  0.00  0.00    +0.000 A 
ATOM      9  C   UNL     1      47.734  10.482  11.736  0.00  0.00    +0.000 A 
ATOM     10  C   UNL     1      49.063  10.395  11.331  0.00  0.00    +0.000 A 
ATOM     11  C   UNL     1      49.728   9.177  11.422  0.00  0.00    +0.000 A 
ATOM     12 CL   UNL     1      51.367   9.056  10.911  0.00  0.00    +0.000 Cl
ATOM     13  C   UNL     1      49.077   8.047  11.918  0.00  0.00    +0.000 A 
ENDBRANCH   5   7
BRANCH   1  15
ATOM     14  C   UNL     1      47.404   4.039  16.235  0.00  0.00    +0.000 C 
ATOM     15  O   UNL     1      47.637   3.951  14.832  0.00  0.00    +0.000 OA
ENDBRANCH   1  15
BRANCH   3  16
ATOM     16  C   UNL     1      43.596   5.574  12.466  0.00  0.00    +0.000 C 
BRANCH  16  17
ATOM     17  O   UNL     1      43.511   5.666  11.043  0.00  0.00    +0.000 OA
BRANCH  17  18
ATOM     18  C   UNL     1      43.941   4.585  10.328  0.00  0.00    +0.000 A 
ATOM     19  C   UNL     1      43.572   3.337  10.820  0.00  0.00    +0.000 A 
ATOM     20  N   UNL     1      43.931   2.155  10.259  0.00  0.00    +0.000 NA
ATOM     21  C   UNL     1      44.698   2.220   9.149  0.00  0.00    +0.000 A 
ATOM     22  C   UNL     1      45.113   3.411   8.574  0.00  0.00    +0.000 A 
ATOM     23  C   UNL     1      44.722   4.613   9.175  0.00  0.00    +0.000 A 
BRANCH  22  24
ATOM     24  C   UNL     1      45.932   3.404   7.404  0.00  0.00    +0.000 C 
ATOM     25  N   UNL     1      46.609   3.397   6.464  0.00  0.00    +0.000 NA
ENDBRANCH  22  24
ENDBRANCH  17  18
ENDBRANCH  16  17
ENDBRANCH   3  16
TORSDOF 6
ENDMDL
MODEL 4
REMARK VINA RESULT:    -6.531      3.464      7.737
REMARK INTER + INTRA:          -9.695
REMARK INTER:                  -8.944
REMARK INTRA:                  -0.751
REMARK UNBOUND:                -0.874
REMARK  Name = 
REMARK  7 active torsions:
REMARK  status: ('A' for Active; 'I' for Inactive)
REMARK    1  A    between atoms: C_1  and  O_2
REMARK    2  A    between atoms: O_2  and  C_3
REMARK    3  A    between atoms: C_5  and  C_6
REMARK    4  A    between atoms: C_6  and  O_7
REMARK    5  A    between atoms: O_7  and  C_8
REMARK    6  A    between atoms: C_12  and  C_13
REMARK    7  A    between atoms: C_17  and  C_18
REMARK                            x       y       z     vdW  Elec       q    Type
REMARK                         _______ _______ _______ _____ _____    ______ ____
ROOT
ATOM      1  C   UNL     1      45.204   8.754  12.109  0.00  0.00    +0.000 A 
ATOM      2  C   UNL     1      46.272   8.654  12.990  0.00  0.00    +0.000 A 
ATOM      3  C   UNL     1      46.888   7.418  13.152  0.00  0.00    +0.000 A 
ATOM      4  N   UNL     1      46.477   6.307  12.491  0.00  0.00    +0.000 NA
ATOM      5  C   UNL     1      45.422   6.407  11.642  0.00  0.00    +0.000 A 
ATOM      6  C   UNL     1      44.759   7.615  11.448  0.00  0.00    +0.000 A 
ENDROOT
BRANCH   5   7
ATOM      7  C   UNL     1      45.048   5.169  10.930  0.00  0.00    +0.000 A 
ATOM      8  C   UNL     1      44.262   4.182  11.556  0.00  0.00    +0.000 A 
ATOM      9  C   UNL     1      43.907   3.002  10.895  0.00  0.00    +0.000 A 
ATOM     10  C   UNL     1      44.338   2.780   9.589  0.00  0.00    +0.000 A 
ATOM     11  C   UNL     1      45.121   3.737   8.954  0.00  0.00    +0.000 A 
ATOM     12 CL   UNL     1      45.670   3.466   7.346  0.00  0.00    +0.000 Cl
ATOM     13  C   UNL     1      45.475   4.917   9.612  0.00  0.00    +0.000 A 
ENDBRANCH   5   7
BRANCH   1  15
ATOM     14  C   UNL     1      43.677   9.855  10.684  0.00  0.00    +0.000 C 
ATOM     15  O   UNL     1      44.508   9.901  11.841  0.00  0.00    +0.000 OA
ENDBRANCH   1  15
BRANCH   3  16
ATOM     16  C   UNL     1      48.067   7.285  14.088  0.00  0.00    +0.000 C 
BRANCH  16  17
ATOM     17  O   UNL     1      48.365   5.903  14.296  0.00  0.00    +0.000 OA
BRANCH  17  18
ATOM     18  C   UNL     1      48.104   5.396  15.537  0.00  0.00    +0.000 A 
ATOM     19  C   UNL     1      47.220   4.323  15.589  0.00  0.00    +0.000 A 
ATOM     20  N   UNL     1      46.823   3.711  16.733  0.00  0.00    +0.000 NA
ATOM     21  C   UNL     1      47.334   4.195  17.886  0.00  0.00    +0.000 A 
ATOM     22  C   UNL     1      48.226   5.254  17.944  0.00  0.00    +0.000 A 
ATOM     23  C   UNL     1      48.619   5.861  16.745  0.00  0.00    +0.000 A 
BRANCH  22  24
ATOM     24  C   UNL     1      48.718   5.720  19.201  0.00  0.00    +0.000 C 
ATOM     25  N   UNL     1      49.107   6.089  20.228  0.00  0.00    +0.000 NA
ENDBRANCH  22  24
ENDBRANCH  17  18
ENDBRANCH  16  17
ENDBRANCH   3  16
TORSDOF 6
ENDMDL
MODEL 5
REMARK VINA RESULT:    -6.463      1.916      2.845
REMARK INTER + INTRA:          -9.604
REMARK INTER:                  -8.658
REMARK INTRA:                  -0.946
REMARK UNBOUND:                -0.874
REMARK  Name = 
REMARK  7 active torsions:
REMARK  status: ('A' for Active; 'I' for Inactive)
REMARK    1  A    between atoms: C_1  and  O_2
REMARK    2  A    between atoms: O_2  and  C_3
REMARK    3  A    between atoms: C_5  and  C_6
REMARK    4  A    between atoms: C_6  and  O_7
REMARK    5  A    between atoms: O_7  and  C_8
REMARK    6  A    between atoms: C_12  and  C_13
REMARK    7  A    between atoms: C_17  and  C_18
REMARK                            x       y       z     vdW  Elec       q    Type
REMARK                         _______ _______ _______ _____ _____    ______ ____
ROOT
ATOM      1  C   UNL     1      47.134   6.359  13.318  0.00  0.00    +0.000 A 
ATOM      2  C   UNL     1      45.973   5.600  13.337  0.00  0.00    +0.000 A 
ATOM      3  C   UNL     1      44.785   6.191  12.922  0.00  0.00    +0.000 A 
ATOM      4  N   UNL     1      44.718   7.482  12.510  0.00  0.00    +0.000 NA
ATOM      5  C   UNL     1      45.854   8.224  12.509  0.00  0.00    +0.000 A 
ATOM      6  C   UNL     1      47.070   7.691  12.925  0.00  0.00    +0.000 A 
ENDROOT
BRANCH   5   7
ATOM      7  C   UNL     1      45.718   9.610  12.018  0.00  0.00    +0.000 A 
ATOM      8  C   UNL     1      46.832  10.469  11.951  0.00  0.00    +0.000 A 
ATOM      9  C   UNL     1      46.714  11.786  11.494  0.00  0.00    +0.000 A 
ATOM     10  C   UNL     1      45.471  12.276  11.099  0.00  0.00    +0.000 A 
ATOM     11  C   UNL     1      44.356  11.449  11.165  0.00  0.00    +0.000 A 
ATOM     12 CL   UNL     1      42.815  12.049  10.693  0.00  0.00    +0.000 Cl
ATOM     13  C   UNL     1      44.473  10.133  11.618  0.00  0.00    +0.000 A 
ENDBRANCH   5   7
BRANCH   1  15
ATOM     14  C   UNL     1      49.246   6.906  14.222  0.00  0.00    +0.000 C 
ATOM     15  O   UNL     1      48.374   5.914  13.689  0.00  0.00    +0.000 OA
ENDBRANCH   1  15
BRANCH   3  16
ATOM     16  C   UNL     1      43.509   5.381  12.910  0.00  0.00    +0.000 C 
BRANCH  16  17
ATOM     17  O   UNL     1      43.004   5.295  11.576  0.00  0.00    +0.000 OA
BRANCH  17  18
ATOM     18  C   UNL     1      43.569   4.354  10.763  0.00  0.00    +0.000 A 
ATOM     19  C   UNL     1      43.345   3.025  11.111  0.00  0.00    +0.000 A 
ATOM     20  N   UNL     1      43.849   1.961  10.438  0.00  0.00    +0.000 NA
ATOM     21  C   UNL     1      44.616   2.235   9.360  0.00  0.00    +0.000 A 
ATOM     22  C   UNL     1      44.894   3.521   8.925  0.00  0.00    +0.000 A 
ATOM     23  C   UNL     1      44.355   4.597   9.639  0.00  0.00    +0.000 A 
BRANCH  22  24
ATOM     24  C   UNL     1      45.723   3.736   7.782  0.00  0.00    +0.000 C 
ATOM     25  N   UNL     1      46.402   3.922   6.862  0.00  0.00    +0.000 NA
ENDBRANCH  22  24
ENDBRANCH  17  18
ENDBRANCH  16  17
ENDBRANCH   3  16
TORSDOF 6
ENDMDL
MODEL 6
REMARK VINA RESULT:    -6.337      3.482      7.422
REMARK INTER + INTRA:          -9.433
REMARK INTER:                  -8.640
REMARK INTRA:                  -0.794
REMARK UNBOUND:                -0.874
REMARK  Name = 
REMARK  7 active torsions:
REMARK  status: ('A' for Active; 'I' for Inactive)
REMARK    1  A    between atoms: C_1  and  O_2
REMARK    2  A    between atoms: O_2  and  C_3
REMARK    3  A    between atoms: C_5  and  C_6
REMARK    4  A    between atoms: C_6  and  O_7
REMARK    5  A    between atoms: O_7  and  C_8
REMARK    6  A    between atoms: C_12  and  C_13
REMARK    7  A    between atoms: C_17  and  C_18
REMARK                            x       y       z     vdW  Elec       q    Type
REMARK                         _______ _______ _______ _____ _____    ______ ____
ROOT
ATOM      1  C   UNL     1      45.660   8.863  12.254  0.00  0.00    +0.000 A 
ATOM      2  C   UNL     1      46.953   8.798  12.752  0.00  0.00    +0.000 A 
ATOM      3  C   UNL     1      47.632   7.585  12.683  0.00  0.00    +0.000 A 
ATOM      4  N   UNL     1      47.074   6.466  12.158  0.00  0.00    +0.000 NA
ATOM      5  C   UNL     1      45.803   6.533  11.687  0.00  0.00    +0.000 A 
ATOM      6  C   UNL     1      45.070   7.714  11.740  0.00  0.00    +0.000 A 
ENDROOT
BRANCH   5   7
ATOM      7  C   UNL     1      45.268   5.288  11.100  0.00  0.00    +0.000 A 
ATOM      8  C   UNL     1      44.558   4.362  11.887  0.00  0.00    +0.000 A 
ATOM      9  C   UNL     1      44.051   3.176  11.344  0.00  0.00    +0.000 A 
ATOM     10  C   UNL     1      44.252   2.887   9.996  0.00  0.00    +0.000 A 
ATOM     11  C   UNL     1      44.957   3.784   9.202  0.00  0.00    +0.000 A 
ATOM     12 CL   UNL     1      45.222   3.430   7.539  0.00  0.00    +0.000 Cl
ATOM     13  C   UNL     1      45.461   4.969   9.742  0.00  0.00    +0.000 A 
ENDBRANCH   5   7
BRANCH   1  15
ATOM     14  C   UNL     1      44.578  10.513  10.956  0.00  0.00    +0.000 C 
ATOM     15  O   UNL     1      44.874   9.983  12.245  0.00  0.00    +0.000 OA
ENDBRANCH   1  15
BRANCH   3  16
ATOM     16  C   UNL     1      49.050   7.491  13.197  0.00  0.00    +0.000 C 
BRANCH  16  17
ATOM     17  O   UNL     1      49.089   7.858  14.578  0.00  0.00    +0.000 OA
BRANCH  17  18
ATOM     18  C   UNL     1      49.204   6.842  15.482  0.00  0.00    +0.000 A 
ATOM     19  C   UNL     1      50.439   6.715  16.112  0.00  0.00    +0.000 A 
ATOM     20  N   UNL     1      50.744   5.751  17.015  0.00  0.00    +0.000 NA
ATOM     21  C   UNL     1      49.767   4.865  17.308  0.00  0.00    +0.000 A 
ATOM     22  C   UNL     1      48.502   4.906  16.744  0.00  0.00    +0.000 A 
ATOM     23  C   UNL     1      48.217   5.917  15.818  0.00  0.00    +0.000 A 
BRANCH  22  24
ATOM     24  C   UNL     1      47.520   3.929  17.093  0.00  0.00    +0.000 C 
ATOM     25  N   UNL     1      46.732   3.126  17.368  0.00  0.00    +0.000 NA
ENDBRANCH  22  24
ENDBRANCH  17  18
ENDBRANCH  16  17
ENDBRANCH   3  16
TORSDOF 6
ENDMDL
MODEL 7
REMARK VINA RESULT:    -6.098      3.655      7.307
REMARK INTER + INTRA:          -9.111
REMARK INTER:                  -8.372
REMARK INTRA:                  -0.739
REMARK UNBOUND:                -0.874
REMARK  Name = 
REMARK  7 active torsions:
REMARK  status: ('A' for Active; 'I' for Inactive)
REMARK    1  A    between atoms: C_1  and  O_2
REMARK    2  A    between atoms: O_2  and  C_3
REMARK    3  A    between atoms: C_5  and  C_6
REMARK    4  A    between atoms: C_6  and  O_7
REMARK    5  A    between atoms: O_7  and  C_8
REMARK    6  A    between atoms: C_12  and  C_13
REMARK    7  A    between atoms: C_17  and  C_18
REMARK                            x       y       z     vdW  Elec       q    Type
REMARK                         _______ _______ _______ _____ _____    ______ ____
ROOT
ATOM      1  C   UNL     1      46.732   8.823  12.885  0.00  0.00    +0.000 A 
ATOM      2  C   UNL     1      47.716   8.483  13.801  0.00  0.00    +0.000 A 
ATOM      3  C   UNL     1      47.901   7.139  14.112  0.00  0.00    +0.000 A 
ATOM      4  N   UNL     1      47.150   6.154  13.560  0.00  0.00    +0.000 NA
ATOM      5  C   UNL     1      46.178   6.495  12.675  0.00  0.00    +0.000 A 
ATOM      6  C   UNL     1      45.938   7.823  12.336  0.00  0.00    +0.000 A 
ENDROOT
BRANCH   5   7
ATOM      7  C   UNL     1      45.419   5.372  12.088  0.00  0.00    +0.000 A 
ATOM      8  C   UNL     1      44.809   4.403  12.907  0.00  0.00    +0.000 A 
ATOM      9  C   UNL     1      44.093   3.331  12.363  0.00  0.00    +0.000 A 
ATOM     10  C   UNL     1      43.978   3.202  10.981  0.00  0.00    +0.000 A 
ATOM     11  C   UNL     1      44.580   4.143  10.153  0.00  0.00    +0.000 A 
ATOM     12 CL   UNL     1      44.455   3.985   8.444  0.00  0.00    +0.000 Cl
ATOM     13  C   UNL     1      45.292   5.215  10.695  0.00  0.00    +0.000 A 
ENDBRANCH   5   7
BRANCH   1  15
ATOM     14  C   UNL     1      47.556  10.873  12.051  0.00  0.00    +0.000 C 
ATOM     15  O   UNL     1      46.440  10.096  12.476  0.00  0.00    +0.000 OA
ENDBRANCH   1  15
BRANCH   3  16
ATOM     16  C   UNL     1      48.981   6.738  15.090  0.00  0.00    +0.000 C 
BRANCH  16  17
ATOM     17  O   UNL     1      48.395   6.427  16.355  0.00  0.00    +0.000 OA
BRANCH  17  18
ATOM     18  C   UNL     1      48.348   5.108  16.704  0.00  0.00    +0.000 A 
ATOM     19  C   UNL     1      47.093   4.603  17.033  0.00  0.00    +0.000 A 
ATOM     20  N   UNL     1      46.859   3.327  17.430  0.00  0.00    +0.000 NA
ATOM     21  C   UNL     1      47.933   2.509  17.502  0.00  0.00    +0.000 A 
ATOM     22  C   UNL     1      49.222   2.910  17.190  0.00  0.00    +0.000 A 
ATOM     23  C   UNL     1      49.429   4.232  16.780  0.00  0.00    +0.000 A 
BRANCH  22  24
ATOM     24  C   UNL     1      50.313   1.993  17.298  0.00  0.00    +0.000 C 
ATOM     25  N   UNL     1      51.188   1.239  17.380  0.00  0.00    +0.000 NA
ENDBRANCH  22  24
ENDBRANCH  17  18
ENDBRANCH  16  17
ENDBRANCH   3  16
TORSDOF 6
ENDMDL
MODEL 8
REMARK VINA RESULT:    -6.038      4.926      7.697
REMARK INTER + INTRA:          -9.030
REMARK INTER:                  -8.456
REMARK INTRA:                  -0.575
REMARK UNBOUND:                -0.874
REMARK  Name = 
REMARK  7 active torsions:
REMARK  status: ('A' for Active; 'I' for Inactive)
REMARK    1  A    between atoms: C_1  and  O_2
REMARK    2  A    between atoms: O_2  and  C_3
REMARK    3  A    between atoms: C_5  and  C_6
REMARK    4  A    between atoms: C_6  and  O_7
REMARK    5  A    between atoms: O_7  and  C_8
REMARK    6  A    between atoms: C_12  and  C_13
REMARK    7  A    between atoms: C_17  and  C_18
REMARK                            x       y       z     vdW  Elec       q    Type
REMARK                         _______ _______ _______ _____ _____    ______ ____
ROOT
ATOM      1  C   UNL     1      48.462   5.124  18.961  0.00  0.00    +0.000 A 
ATOM      2  C   UNL     1      47.630   5.018  17.856  0.00  0.00    +0.000 A 
ATOM      3  C   UNL     1      48.045   4.236  16.783  0.00  0.00    +0.000 A 
ATOM      4  N   UNL     1      49.233   3.583  16.774  0.00  0.00    +0.000 NA
ATOM      5  C   UNL     1      50.050   3.703  17.852  0.00  0.00    +0.000 A 
ATOM      6  C   UNL     1      49.695   4.482  18.949  0.00  0.00    +0.000 A 
ENDROOT
BRANCH   5   7
ATOM      7  C   UNL     1      51.314   2.941  17.791  0.00  0.00    +0.000 A 
ATOM      8  C   UNL     1      51.324   1.585  17.412  0.00  0.00    +0.000 A 
ATOM      9  C   UNL     1      52.514   0.850  17.356  0.00  0.00    +0.000 A 
ATOM     10  C   UNL     1      53.723   1.458  17.687  0.00  0.00    +0.000 A 
ATOM     11  C   UNL     1      53.734   2.794  18.072  0.00  0.00    +0.000 A 
ATOM     12 CL   UNL     1      55.221   3.550  18.495  0.00  0.00    +0.000 Cl
ATOM     13  C   UNL     1      52.548   3.529  18.125  0.00  0.00    +0.000 A 
ENDBRANCH   5   7
BRANCH   1  15
ATOM     14  C   UNL     1      49.151   5.744  21.132  0.00  0.00    +0.000 C 
ATOM     15  O   UNL     1      48.187   5.848  20.089  0.00  0.00    +0.000 OA
ENDBRANCH   1  15
BRANCH   3  16
ATOM     16  C   UNL     1      47.148   4.084  15.576  0.00  0.00    +0.000 C 
BRANCH  16  17
ATOM     17  O   UNL     1      47.512   5.043  14.581  0.00  0.00    +0.000 OA
BRANCH  17  18
ATOM     18  C   UNL     1      46.751   5.074  13.447  0.00  0.00    +0.000 A 
ATOM     19  C   UNL     1      46.968   6.149  12.590  0.00  0.00    +0.000 A 
ATOM     20  N   UNL     1      46.288   6.358  11.435  0.00  0.00    +0.000 NA
ATOM     21  C   UNL     1      45.341   5.448  11.117  0.00  0.00    +0.000 A 
ATOM     22  C   UNL     1      45.052   4.340  11.897  0.00  0.00    +0.000 A 
ATOM     23  C   UNL     1      45.775   4.150  13.081  0.00  0.00    +0.000 A 
BRANCH  22  24
ATOM     24  C   UNL     1      44.030   3.423  11.503  0.00  0.00    +0.000 C 
ATOM     25  N   UNL     1      43.190   2.690  11.188  0.00  0.00    +0.000 NA
ENDBRANCH  22  24
ENDBRANCH  17  18
ENDBRANCH  16  17
ENDBRANCH   3  16
TORSDOF 6
ENDMDL
MODEL 9
REMARK VINA RESULT:    -5.893      3.215      5.344
REMARK INTER + INTRA:          -8.833
REMARK INTER:                  -8.013
REMARK INTRA:                  -0.821
REMARK UNBOUND:                -0.874
REMARK  Name = 
REMARK  7 active torsions:
REMARK  status: ('A' for Active; 'I' for Inactive)
REMARK    1  A    between atoms: C_1  and  O_2
REMARK    2  A    between atoms: O_2  and  C_3
REMARK    3  A    between atoms: C_5  and  C_6
REMARK    4  A    between atoms: C_6  and  O_7
REMARK    5  A    between atoms: O_7  and  C_8
REMARK    6  A    between atoms: C_12  and  C_13
REMARK    7  A    between atoms: C_17  and  C_18
REMARK                            x       y       z     vdW  Elec       q    Type
REMARK                         _______ _______ _______ _____ _____    ______ ____
ROOT
ATOM      1  C   UNL     1      49.568   7.951  12.689  0.00  0.00    +0.000 A 
ATOM      2  C   UNL     1      48.364   7.944  11.999  0.00  0.00    +0.000 A 
ATOM      3  C   UNL     1      47.259   7.345  12.595  0.00  0.00    +0.000 A 
ATOM      4  N   UNL     1      47.318   6.761  13.818  0.00  0.00    +0.000 NA
ATOM      5  C   UNL     1      48.503   6.757  14.481  0.00  0.00    +0.000 A 
ATOM      6  C   UNL     1      49.645   7.330  13.930  0.00  0.00    +0.000 A 
ENDROOT
BRANCH   5   7
ATOM      7  C   UNL     1      48.489   6.134  15.819  0.00  0.00    +0.000 A 
ATOM      8  C   UNL     1      49.126   6.751  16.913  0.00  0.00    +0.000 A 
ATOM      9  C   UNL     1      49.126   6.168  18.184  0.00  0.00    +0.000 A 
ATOM     10  C   UNL     1      48.491   4.945  18.389  0.00  0.00    +0.000 A 
ATOM     11  C   UNL     1      47.863   4.314  17.321  0.00  0.00    +0.000 A 
ATOM     12 CL   UNL     1      47.088   2.796  17.560  0.00  0.00    +0.000 Cl
ATOM     13  C   UNL     1      47.860   4.896  16.052  0.00  0.00    +0.000 A 
ENDBRANCH   5   7
BRANCH   1  15
ATOM     14  C   UNL     1      50.594   9.428  11.159  0.00  0.00    +0.000 C 
ATOM     15  O   UNL     1      50.734   8.506  12.236  0.00  0.00    +0.000 OA
ENDBRANCH   1  15
BRANCH   3  16
ATOM     16  C   UNL     1      45.930   7.343  11.876  0.00  0.00    +0.000 C 
BRANCH  16  17
ATOM     17  O   UNL     1      45.155   6.219  12.298  0.00  0.00    +0.000 OA
BRANCH  17  18
ATOM     18  C   UNL     1      44.940   5.237  11.373  0.00  0.00    +0.000 A 
ATOM     19  C   UNL     1      44.105   4.195  11.766  0.00  0.00    +0.000 A 
ATOM     20  N   UNL     1      43.801   3.123  10.992  0.00  0.00    +0.000 NA
ATOM     21  C   UNL     1      44.359   3.087   9.761  0.00  0.00    +0.000 A 
ATOM     22  C   UNL     1      45.197   4.076   9.272  0.00  0.00    +0.000 A 
ATOM     23  C   UNL     1      45.487   5.172  10.094  0.00  0.00    +0.000 A 
BRANCH  22  24
ATOM     24  C   UNL     1      45.759   3.968   7.963  0.00  0.00    +0.000 C 
ATOM     25  N   UNL     1      46.221   3.894   6.904  0.00  0.00    +0.000 NA
ENDBRANCH  22  24
ENDBRANCH  17  18
ENDBRANCH  16  17
ENDBRANCH   3  16
TORSDOF 6
ENDMDL
