MODEL 1
REMARK VINA RESULT:    -7.890      0.000      0.000
REMARK INTER + INTRA:         -12.272
REMARK INTER:                 -11.119
REMARK INTRA:                  -1.153
REMARK UNBOUND:                -1.153
REMARK  Name = 
REMARK  8 active torsions:
REMARK  status: ('A' for Active; 'I' for Inactive)
REMARK    1  A    between atoms: C_1  and  N_2
REMARK    2  A    between atoms: N_2  and  C_3
REMARK    3  A    between atoms: C_3  and  C_4
REMARK    4  A    between atoms: C_3  and  C_26
REMARK    5  A    between atoms: C_4  and  C_5
REMARK    6  A    between atoms: C_9  and  C_10
REMARK    7  A    between atoms: C_10  and  N_11
REMARK    8  A    between atoms: C_12  and  C_14
REMARK                            x       y       z     vdW  Elec       q    Type
REMARK                         _______ _______ _______ _____ _____    ______ ____
ROOT
ATOM      1  C   UNL     1      46.355   5.123  12.886  0.00  0.00    +0.000 C 
ATOM      2  C   UNL     1      46.458   6.370  12.159  0.00  0.00    +0.000 C 
ATOM      3  C   UNL     1      47.660   7.143  12.030  0.00  0.00    +0.000 C 
ATOM      4  C   UNL     1      48.569   7.276  12.997  0.00  0.00    +0.000 C 
ATOM      5  C   UNL     1      48.438   6.724  14.384  0.00  0.00    +0.000 C 
ATOM      6  N   UNL     1      47.730   5.742  14.842  0.00  0.00    +0.000 NA
ATOM      7  C   UNL     1      46.938   4.932  14.081  0.00  0.00    +0.000 C 
ENDROOT
BRANCH   1   8
ATOM      8  C   UNL     1      45.503   4.038  12.245  0.00  0.00    +0.000 C 
BRANCH   8   9
ATOM      9  C   UNL     1      44.643   4.478  11.023  0.00  0.00    +0.000 C 
BRANCH   9  10
ATOM     10  C   UNL     1      45.166   3.814   9.741  0.00  0.00    +0.000 A 
ATOM     11  C   UNL     1      45.167   2.422   9.603  0.00  0.00    +0.000 A 
ATOM     12  C   UNL     1      45.701   1.849   8.454  0.00  0.00    +0.000 A 
ATOM     13  C   UNL     1      46.226   2.673   7.469  0.00  0.00    +0.000 A 
ATOM     14  C   UNL     1      46.188   4.042   7.675  0.00  0.00    +0.000 A 
ATOM     15  N   UNL     1      45.671   4.629   8.779  0.00  0.00    +0.000 NA
ENDBRANCH   9  10
BRANCH   9  17
ATOM     16  C   UNL     1      42.499   5.431  11.798  0.00  0.00    +0.000 C 
ATOM     17  N   UNL     1      43.172   4.313  11.159  0.00  0.00    +0.000 NA
ATOM     18  H   UNL     1      42.797   4.205  10.216  0.00  0.00    +0.000 HD
ENDBRANCH   9  17
ENDBRANCH   8   9
ENDBRANCH   1   8
BRANCH   5  19
ATOM     19  C   UNL     1      49.341   7.408  15.418  0.00  0.00    +0.000 C 
BRANCH  19  20
ATOM     20  N   UNL     1      50.316   6.455  15.911  0.00  0.00    +0.000 N 
ATOM     21  C   UNL     1      50.303   5.999  17.205  0.00  0.00    +0.000 C 
ATOM     22  O   UNL     1      49.442   6.354  18.006  0.00  0.00    +0.000 OA
ATOM     23  H   UNL     1      51.160   6.350  15.351  0.00  0.00    +0.000 HD
BRANCH  21  24
ATOM     24  C   UNL     1      51.328   5.019  17.580  0.00  0.00    +0.000 A 
ATOM     25  C   UNL     1      52.554   5.468  18.054  0.00  0.00    +0.000 A 
ATOM     26  S   UNL     1      53.626   4.214  18.479  0.00  0.00    +0.000 S 
ATOM     27  C   UNL     1      52.510   3.024  17.996  0.00  0.00    +0.000 A 
ATOM     28  N   UNL     1      52.824   1.703  18.070  0.00  0.00    +0.000 NA
ATOM     29  C   UNL     1      51.903   0.912  17.628  0.00  0.00    +0.000 A 
ATOM     30  N   UNL     1      50.693   1.323  17.132  0.00  0.00    +0.000 N 
ATOM     31  C   UNL     1      50.310   2.643  17.096  0.00  0.00    +0.000 A 
ATOM     32  O   UNL     1      49.185   2.973  16.738  0.00  0.00    +0.000 OA
ATOM     33  C   UNL     1      51.325   3.577  17.543  0.00  0.00    +0.000 A 
ATOM     34  H   UNL     1      50.007   0.653  16.820  0.00  0.00    +0.000 HD
ENDBRANCH  21  24
ENDBRANCH  19  20
ENDBRANCH   5  19
TORSDOF 7
ENDMDL
MODEL 2
REMARK VINA RESULT:    -7.654      2.486      3.647
REMARK INTER + INTRA:         -11.940
REMARK INTER:                 -10.882
REMARK INTRA:                  -1.057
REMARK UNBOUND:                -1.153
REMARK  Name = 
REMARK  8 active torsions:
REMARK  status: ('A' for Active; 'I' for Inactive)
REMARK    1  A    between atoms: C_1  and  N_2
REMARK    2  A    between atoms: N_2  and  C_3
REMARK    3  A    between atoms: C_3  and  C_4
REMARK    4  A    between atoms: C_3  and  C_26
REMARK    5  A    between atoms: C_4  and  C_5
REMARK    6  A    between atoms: C_9  and  C_10
REMARK    7  A    between atoms: C_10  and  N_11
REMARK    8  A    between atoms: C_12  and  C_14
REMARK                            x       y       z     vdW  Elec       q    Type
REMARK                         _______ _______ _______ _____ _____    ______ ____
ROOT
ATOM      1  C   UNL     1      46.228   5.477  12.546  0.00  0.00    +0.000 C 
ATOM      2  C   UNL     1      46.418   6.775  11.934  0.00  0.00    +0.000 C 
ATOM      3  C   UNL     1      47.690   7.413  11.751  0.00  0.00    +0.000 C 
ATOM      4  C   UNL     1      48.697   7.335  12.623  0.00  0.00    +0.000 C 
ATOM      5  C   UNL     1      48.630   6.655  13.956  0.00  0.00    +0.000 C 
ATOM      6  N   UNL     1      47.851   5.719  14.393  0.00  0.00    +0.000 NA
ATOM      7  C   UNL     1      46.893   5.093  13.647  0.00  0.00    +0.000 C 
ENDROOT
BRANCH   1   8
ATOM      8  C   UNL     1      45.189   4.574  11.900  0.00  0.00    +0.000 C 
BRANCH   8   9
ATOM      9  C   UNL     1      44.682   5.012  10.494  0.00  0.00    +0.000 C 
BRANCH   9  10
ATOM     10  C   UNL     1      45.213   4.055   9.417  0.00  0.00    +0.000 A 
ATOM     11  C   UNL     1      45.078   2.670   9.558  0.00  0.00    +0.000 A 
ATOM     12  C   UNL     1      45.621   1.829   8.594  0.00  0.00    +0.000 A 
ATOM     13  C   UNL     1      46.292   2.382   7.513  0.00  0.00    +0.000 A 
ATOM     14  C   UNL     1      46.384   3.762   7.440  0.00  0.00    +0.000 A 
ATOM     15  N   UNL     1      45.862   4.607   8.359  0.00  0.00    +0.000 NA
ENDBRANCH   9  10
BRANCH   9  17
ATOM     16  C   UNL     1      42.521   5.436  11.616  0.00  0.00    +0.000 C 
ATOM     17  N   UNL     1      43.216   5.224  10.358  0.00  0.00    +0.000 NA
ATOM     18  H   UNL     1      43.089   6.051   9.774  0.00  0.00    +0.000 HD
ENDBRANCH   9  17
ENDBRANCH   8   9
ENDBRANCH   1   8
BRANCH   5  19
ATOM     19  C   UNL     1      49.707   7.115  14.948  0.00  0.00    +0.000 C 
BRANCH  19  20
ATOM     20  N   UNL     1      49.253   6.865  16.302  0.00  0.00    +0.000 N 
ATOM     21  C   UNL     1      49.897   5.990  17.139  0.00  0.00    +0.000 C 
ATOM     22  O   UNL     1      50.914   5.394  16.792  0.00  0.00    +0.000 OA
ATOM     23  H   UNL     1      48.297   7.147  16.511  0.00  0.00    +0.000 HD
BRANCH  21  24
ATOM     24  C   UNL     1      49.356   5.838  18.495  0.00  0.00    +0.000 A 
ATOM     25  C   UNL     1      49.382   4.587  19.097  0.00  0.00    +0.000 A 
ATOM     26  S   UNL     1      48.751   4.576  20.680  0.00  0.00    +0.000 S 
ATOM     27  C   UNL     1      48.372   6.232  20.598  0.00  0.00    +0.000 A 
ATOM     28  N   UNL     1      47.762   6.861  21.639  0.00  0.00    +0.000 NA
ATOM     29  C   UNL     1      47.491   8.105  21.423  0.00  0.00    +0.000 A 
ATOM     30  N   UNL     1      47.786   8.780  20.267  0.00  0.00    +0.000 N 
ATOM     31  C   UNL     1      48.456   8.201  19.215  0.00  0.00    +0.000 A 
ATOM     32  O   UNL     1      48.792   8.854  18.234  0.00  0.00    +0.000 OA
ATOM     33  C   UNL     1      48.747   6.792  19.389  0.00  0.00    +0.000 A 
ATOM     34  H   UNL     1      47.565   9.759  20.169  0.00  0.00    +0.000 HD
ENDBRANCH  21  24
ENDBRANCH  19  20
ENDBRANCH   5  19
TORSDOF 7
ENDMDL
MODEL 3
REMARK VINA RESULT:    -7.619      2.462      2.936
REMARK INTER + INTRA:         -11.890
REMARK INTER:                 -10.663
REMARK INTRA:                  -1.227
REMARK UNBOUND:                -1.153
REMARK  Name = 
REMARK  8 active torsions:
REMARK  status: ('A' for Active; 'I' for Inactive)
REMARK    1  A    between atoms: C_1  and  N_2
REMARK    2  A    between atoms: N_2  and  C_3
REMARK    3  A    between atoms: C_3  and  C_4
REMARK    4  A    between atoms: C_3  and  C_26
REMARK    5  A    between atoms: C_4  and  C_5
REMARK    6  A    between atoms: C_9  and  C_10
REMARK    7  A    between atoms: C_10  and  N_11
REMARK    8  A    between atoms: C_12  and  C_14
REMARK                            x       y       z     vdW  Elec       q    Type
REMARK                         _______ _______ _______ _____ _____    ______ ____
ROOT
ATOM      1  C   UNL     1      46.334   5.671  12.536  0.00  0.00    +0.000 C 
ATOM      2  C   UNL     1      46.598   6.903  11.824  0.00  0.00    +0.000 C 
ATOM      3  C   UNL     1      47.905   7.445  11.585  0.00  0.00    +0.000 C 
ATOM      4  C   UNL     1      48.912   7.374  12.457  0.00  0.00    +0.000 C 
ATOM      5  C   UNL     1      48.816   6.806  13.840  0.00  0.00    +0.000 C 
ATOM      6  N   UNL     1      47.985   5.957  14.352  0.00  0.00    +0.000 NA
ATOM      7  C   UNL     1      46.985   5.334  13.662  0.00  0.00    +0.000 C 
ENDROOT
BRANCH   1   8
ATOM      8  C   UNL     1      45.236   4.786  11.968  0.00  0.00    +0.000 C 
BRANCH   8   9
ATOM      9  C   UNL     1      44.695   5.185  10.562  0.00  0.00    +0.000 C 
BRANCH   9  10
ATOM     10  C   UNL     1      45.177   4.181   9.505  0.00  0.00    +0.000 A 
ATOM     11  C   UNL     1      45.018   2.805   9.697  0.00  0.00    +0.000 A 
ATOM     12  C   UNL     1      45.517   1.920   8.749  0.00  0.00    +0.000 A 
ATOM     13  C   UNL     1      46.168   2.422   7.631  0.00  0.00    +0.000 A 
ATOM     14  C   UNL     1      46.286   3.797   7.508  0.00  0.00    +0.000 A 
ATOM     15  N   UNL     1      45.807   4.683   8.411  0.00  0.00    +0.000 NA
ENDBRANCH   9  10
BRANCH   9  17
ATOM     16  C   UNL     1      42.526   5.370  11.731  0.00  0.00    +0.000 C 
ATOM     17  N   UNL     1      43.231   5.420  10.462  0.00  0.00    +0.000 NA
ATOM     18  H   UNL     1      43.107   6.350  10.059  0.00  0.00    +0.000 HD
ENDBRANCH   9  17
ENDBRANCH   8   9
ENDBRANCH   1   8
BRANCH   5  19
ATOM     19  C   UNL     1      49.928   7.274  14.788  0.00  0.00    +0.000 C 
BRANCH  19  20
ATOM     20  N   UNL     1      49.477   7.147  16.160  0.00  0.00    +0.000 N 
ATOM     21  C   UNL     1      50.127   7.755  17.203  0.00  0.00    +0.000 C 
ATOM     22  O   UNL     1      51.111   8.468  17.022  0.00  0.00    +0.000 OA
ATOM     23  H   UNL     1      48.835   6.378  16.348  0.00  0.00    +0.000 HD
BRANCH  21  24
ATOM     24  C   UNL     1      49.562   7.571  18.544  0.00  0.00    +0.000 A 
ATOM     25  C   UNL     1      49.217   8.689  19.293  0.00  0.00    +0.000 A 
ATOM     26  S   UNL     1      48.543   8.315  20.813  0.00  0.00    +0.000 S 
ATOM     27  C   UNL     1      48.737   6.646  20.547  0.00  0.00    +0.000 A 
ATOM     28  N   UNL     1      48.380   5.742  21.499  0.00  0.00    +0.000 NA
ATOM     29  C   UNL     1      48.624   4.514  21.184  0.00  0.00    +0.000 A 
ATOM     30  N   UNL     1      49.180   4.107  19.999  0.00  0.00    +0.000 N 
ATOM     31  C   UNL     1      49.498   4.979  18.984  0.00  0.00    +0.000 A 
ATOM     32  O   UNL     1      49.902   4.579  17.899  0.00  0.00    +0.000 OA
ATOM     33  C   UNL     1      49.282   6.377  19.304  0.00  0.00    +0.000 A 
ATOM     34  H   UNL     1      49.327   3.128  19.805  0.00  0.00    +0.000 HD
ENDBRANCH  21  24
ENDBRANCH  19  20
ENDBRANCH   5  19
TORSDOF 7
ENDMDL
MODEL 4
REMARK VINA RESULT:    -7.420      2.372      2.969
REMARK INTER + INTRA:         -11.609
REMARK INTER:                 -10.473
REMARK INTRA:                  -1.137
REMARK UNBOUND:                -1.153
REMARK  Name = 
REMARK  8 active torsions:
REMARK  status: ('A' for Active; 'I' for Inactive)
REMARK    1  A    between atoms: C_1  and  N_2
REMARK    2  A    between atoms: N_2  and  C_3
REMARK    3  A    between atoms: C_3  and  C_4
REMARK    4  A    between atoms: C_3  and  C_26
REMARK    5  A    between atoms: C_4  and  C_5
REMARK    6  A    between atoms: C_9  and  C_10
REMARK    7  A    between atoms: C_10  and  N_11
REMARK    8  A    between atoms: C_12  and  C_14
REMARK                            x       y       z     vdW  Elec       q    Type
REMARK                         _______ _______ _______ _____ _____    ______ ____
ROOT
ATOM      1  C   UNL     1      44.832   5.776  10.823  0.00  0.00    +0.000 C 
ATOM      2  C   UNL     1      44.121   6.582  11.791  0.00  0.00    +0.000 C 
ATOM      3  C   UNL     1      44.498   7.910  12.183  0.00  0.00    +0.000 C 
ATOM      4  C   UNL     1      45.761   8.318  12.314  0.00  0.00    +0.000 C 
ATOM      5  C   UNL     1      46.969   7.444  12.163  0.00  0.00    +0.000 C 
ATOM      6  N   UNL     1      47.134   6.327  11.531  0.00  0.00    +0.000 NA
ATOM      7  C   UNL     1      46.173   5.705  10.786  0.00  0.00    +0.000 C 
ENDROOT
BRANCH   1   8
ATOM      8  C   UNL     1      43.977   4.961   9.864  0.00  0.00    +0.000 C 
BRANCH   8   9
ATOM      9  C   UNL     1      44.209   3.420   9.883  0.00  0.00    +0.000 C 
BRANCH   9  10
ATOM     10  C   UNL     1      45.189   3.020   8.771  0.00  0.00    +0.000 A 
ATOM     11  C   UNL     1      45.739   1.734   8.728  0.00  0.00    +0.000 A 
ATOM     12  C   UNL     1      46.668   1.420   7.743  0.00  0.00    +0.000 A 
ATOM     13  C   UNL     1      47.034   2.392   6.824  0.00  0.00    +0.000 A 
ATOM     14  C   UNL     1      46.446   3.642   6.927  0.00  0.00    +0.000 A 
ATOM     15  N   UNL     1      45.535   3.977   7.871  0.00  0.00    +0.000 NA
ENDBRANCH   9  10
BRANCH   9  17
ATOM     16  C   UNL     1      43.514   2.738  12.154  0.00  0.00    +0.000 C 
ATOM     17  N   UNL     1      44.597   2.829  11.190  0.00  0.00    +0.000 NA
ATOM     18  H   UNL     1      44.940   1.886  10.998  0.00  0.00    +0.000 HD
ENDBRANCH   9  17
ENDBRANCH   8   9
ENDBRANCH   1   8
BRANCH   5  19
ATOM     19  C   UNL     1      48.234   8.003  12.828  0.00  0.00    +0.000 C 
BRANCH  19  20
ATOM     20  N   UNL     1      48.602   7.159  13.948  0.00  0.00    +0.000 N 
ATOM     21  C   UNL     1      48.585   7.614  15.242  0.00  0.00    +0.000 C 
ATOM     22  O   UNL     1      48.225   8.755  15.521  0.00  0.00    +0.000 OA
ATOM     23  H   UNL     1      49.130   6.319  13.718  0.00  0.00    +0.000 HD
BRANCH  21  24
ATOM     24  C   UNL     1      48.957   6.659  16.292  0.00  0.00    +0.000 A 
ATOM     25  C   UNL     1      49.942   7.009  17.206  0.00  0.00    +0.000 A 
ATOM     26  S   UNL     1      50.241   5.814  18.384  0.00  0.00    +0.000 S 
ATOM     27  C   UNL     1      49.101   4.763  17.683  0.00  0.00    +0.000 A 
ATOM     28  N   UNL     1      48.885   3.523  18.198  0.00  0.00    +0.000 NA
ATOM     29  C   UNL     1      48.027   2.816  17.541  0.00  0.00    +0.000 A 
ATOM     30  N   UNL     1      47.357   3.241  16.424  0.00  0.00    +0.000 N 
ATOM     31  C   UNL     1      47.498   4.507  15.905  0.00  0.00    +0.000 A 
ATOM     32  O   UNL     1      46.813   4.892  14.964  0.00  0.00    +0.000 OA
ATOM     33  C   UNL     1      48.481   5.329  16.582  0.00  0.00    +0.000 A 
ATOM     34  H   UNL     1      46.683   2.645  15.967  0.00  0.00    +0.000 HD
ENDBRANCH  21  24
ENDBRANCH  19  20
ENDBRANCH   5  19
TORSDOF 7
ENDMDL
MODEL 5
REMARK VINA RESULT:    -7.118      3.859      5.184
REMARK INTER + INTRA:         -11.185
REMARK INTER:                  -9.810
REMARK INTRA:                  -1.375
REMARK UNBOUND:                -1.153
REMARK  Name = 
REMARK  8 active torsions:
REMARK  status: ('A' for Active; 'I' for Inactive)
REMARK    1  A    between atoms: C_1  and  N_2
REMARK    2  A    between atoms: N_2  and  C_3
REMARK    3  A    between atoms: C_3  and  C_4
REMARK    4  A    between atoms: C_3  and  C_26
REMARK    5  A    between atoms: C_4  and  C_5
REMARK    6  A    between atoms: C_9  and  C_10
REMARK    7  A    between atoms: C_10  and  N_11
REMARK    8  A    between atoms: C_12  and  C_14
REMARK                            x       y       z     vdW  Elec       q    Type
REMARK                         _______ _______ _______ _____ _____    ______ ____
ROOT
ATOM      1  C   UNL     1      46.109   5.647  12.742  0.00  0.00    +0.000 C 
ATOM      2  C   UNL     1      45.853   7.059  12.548  0.00  0.00    +0.000 C 
ATOM      3  C   UNL     1      46.867   8.048  12.319  0.00  0.00    +0.000 C 
ATOM      4  C   UNL     1      48.070   8.031  12.896  0.00  0.00    +0.000 C 
ATOM      5  C   UNL     1      48.515   7.042  13.930  0.00  0.00    +0.000 C 
ATOM      6  N   UNL     1      48.095   5.848  14.198  0.00  0.00    +0.000 NA
ATOM      7  C   UNL     1      47.117   5.194  13.505  0.00  0.00    +0.000 C 
ENDROOT
BRANCH   1   8
ATOM      8  C   UNL     1      45.138   4.688  12.072  0.00  0.00    +0.000 C 
BRANCH   8   9
ATOM      9  C   UNL     1      44.655   5.091  10.646  0.00  0.00    +0.000 C 
BRANCH   9  10
ATOM     10  C   UNL     1      45.210   4.111   9.602  0.00  0.00    +0.000 A 
ATOM     11  C   UNL     1      45.877   4.576   8.464  0.00  0.00    +0.000 A 
ATOM     12  C   UNL     1      46.316   3.665   7.509  0.00  0.00    +0.000 A 
ATOM     13  C   UNL     1      46.078   2.313   7.704  0.00  0.00    +0.000 A 
ATOM     14  C   UNL     1      45.414   1.927   8.857  0.00  0.00    +0.000 A 
ATOM     15  N   UNL     1      44.979   2.788   9.806  0.00  0.00    +0.000 NA
ENDBRANCH   9  10
BRANCH   9  17
ATOM     16  C   UNL     1      42.468   5.495  11.722  0.00  0.00    +0.000 C 
ATOM     17  N   UNL     1      43.192   5.293  10.479  0.00  0.00    +0.000 NA
ATOM     18  H   UNL     1      43.072   6.122   9.895  0.00  0.00    +0.000 HD
ENDBRANCH   9  17
ENDBRANCH   8   9
ENDBRANCH   1   8
BRANCH   5  19
ATOM     19  C   UNL     1      49.707   7.512  14.773  0.00  0.00    +0.000 C 
BRANCH  19  20
ATOM     20  N   UNL     1      50.889   7.588  13.937  0.00  0.00    +0.000 N 
ATOM     21  C   UNL     1      51.514   8.777  13.661  0.00  0.00    +0.000 C 
ATOM     22  O   UNL     1      51.120   9.839  14.135  0.00  0.00    +0.000 OA
ATOM     23  H   UNL     1      51.071   6.776  13.349  0.00  0.00    +0.000 HD
BRANCH  21  24
ATOM     24  C   UNL     1      52.716   8.723  12.820  0.00  0.00    +0.000 A 
ATOM     25  C   UNL     1      53.912   9.225  13.316  0.00  0.00    +0.000 A 
ATOM     26  S   UNL     1      55.223   9.062  12.240  0.00  0.00    +0.000 S 
ATOM     27  C   UNL     1      54.228   8.362  11.051  0.00  0.00    +0.000 A 
ATOM     28  N   UNL     1      54.733   8.008   9.838  0.00  0.00    +0.000 NA
ATOM     29  C   UNL     1      53.859   7.532   9.016  0.00  0.00    +0.000 A 
ATOM     30  N   UNL     1      52.528   7.366   9.301  0.00  0.00    +0.000 N 
ATOM     31  C   UNL     1      51.986   7.652  10.532  0.00  0.00    +0.000 A 
ATOM     32  O   UNL     1      50.815   7.402  10.789  0.00  0.00    +0.000 OA
ATOM     33  C   UNL     1      52.919   8.229  11.480  0.00  0.00    +0.000 A 
ATOM     34  H   UNL     1      51.899   6.969   8.620  0.00  0.00    +0.000 HD
ENDBRANCH  21  24
ENDBRANCH  19  20
ENDBRANCH   5  19
TORSDOF 7
ENDMDL
MODEL 6
REMARK VINA RESULT:    -7.076      3.494      8.165
REMARK INTER + INTRA:         -11.125
REMARK INTER:                 -10.032
REMARK INTRA:                  -1.092
REMARK UNBOUND:                -1.153
REMARK  Name = 
REMARK  8 active torsions:
REMARK  status: ('A' for Active; 'I' for Inactive)
REMARK    1  A    between atoms: C_1  and  N_2
REMARK    2  A    between atoms: N_2  and  C_3
REMARK    3  A    between atoms: C_3  and  C_4
REMARK    4  A    between atoms: C_3  and  C_26
REMARK    5  A    between atoms: C_4  and  C_5
REMARK    6  A    between atoms: C_9  and  C_10
REMARK    7  A    between atoms: C_10  and  N_11
REMARK    8  A    between atoms: C_12  and  C_14
REMARK                            x       y       z     vdW  Elec       q    Type
REMARK                         _______ _______ _______ _____ _____    ______ ____
ROOT
ATOM      1  C   UNL     1      48.886   7.290  16.427  0.00  0.00    +0.000 C 
ATOM      2  C   UNL     1      49.097   8.719  16.340  0.00  0.00    +0.000 C 
ATOM      3  C   UNL     1      48.432   9.587  15.411  0.00  0.00    +0.000 C 
ATOM      4  C   UNL     1      48.126   9.246  14.158  0.00  0.00    +0.000 C 
ATOM      5  C   UNL     1      48.504   7.954  13.501  0.00  0.00    +0.000 C 
ATOM      6  N   UNL     1      48.801   6.800  14.007  0.00  0.00    +0.000 NA
ATOM      7  C   UNL     1      48.782   6.507  15.340  0.00  0.00    +0.000 C 
ENDROOT
BRANCH   1   8
ATOM      8  C   UNL     1      48.836   6.700  17.828  0.00  0.00    +0.000 C 
BRANCH   8   9
ATOM      9  C   UNL     1      48.034   5.373  17.982  0.00  0.00    +0.000 C 
BRANCH   9  10
ATOM     10  C   UNL     1      48.923   4.172  17.629  0.00  0.00    +0.000 A 
ATOM     11  C   UNL     1      48.401   3.069  16.947  0.00  0.00    +0.000 A 
ATOM     12  C   UNL     1      49.218   1.972  16.694  0.00  0.00    +0.000 A 
ATOM     13  C   UNL     1      50.535   1.995  17.129  0.00  0.00    +0.000 A 
ATOM     14  C   UNL     1      50.982   3.124  17.796  0.00  0.00    +0.000 A 
ATOM     15  N   UNL     1      50.213   4.208  18.053  0.00  0.00    +0.000 NA
ENDBRANCH   9  10
BRANCH   9  17
ATOM     16  C   UNL     1      47.844   5.991  20.367  0.00  0.00    +0.000 C 
ATOM     17  N   UNL     1      47.337   5.172  19.280  0.00  0.00    +0.000 NA
ATOM     18  H   UNL     1      46.355   5.408  19.128  0.00  0.00    +0.000 HD
ENDBRANCH   9  17
ENDBRANCH   8   9
ENDBRANCH   1   8
BRANCH   5  19
ATOM     19  C   UNL     1      48.479   8.000  11.968  0.00  0.00    +0.000 C 
BRANCH  19  20
ATOM     20  N   UNL     1      47.715   6.876  11.464  0.00  0.00    +0.000 N 
ATOM     21  C   UNL     1      46.349   6.915  11.346  0.00  0.00    +0.000 C 
ATOM     22  O   UNL     1      45.705   7.921  11.634  0.00  0.00    +0.000 OA
ATOM     23  H   UNL     1      48.192   5.976  11.463  0.00  0.00    +0.000 HD
BRANCH  21  24
ATOM     24  C   UNL     1      45.688   5.724  10.802  0.00  0.00    +0.000 A 
ATOM     25  C   UNL     1      45.763   5.472   9.439  0.00  0.00    +0.000 A 
ATOM     26  S   UNL     1      44.978   4.036   8.962  0.00  0.00    +0.000 S 
ATOM     27  C   UNL     1      44.463   3.727  10.554  0.00  0.00    +0.000 A 
ATOM     28  N   UNL     1      43.697   2.640  10.841  0.00  0.00    +0.000 NA
ATOM     29  C   UNL     1      43.340   2.554  12.079  0.00  0.00    +0.000 A 
ATOM     30  N   UNL     1      43.690   3.447  13.057  0.00  0.00    +0.000 N 
ATOM     31  C   UNL     1      44.513   4.525  12.826  0.00  0.00    +0.000 A 
ATOM     32  O   UNL     1      44.888   5.251  13.738  0.00  0.00    +0.000 OA
ATOM     33  C   UNL     1      44.909   4.692  11.441  0.00  0.00    +0.000 A 
ATOM     34  H   UNL     1      43.394   3.311  14.013  0.00  0.00    +0.000 HD
ENDBRANCH  21  24
ENDBRANCH  19  20
ENDBRANCH   5  19
TORSDOF 7
ENDMDL
MODEL 7
REMARK VINA RESULT:    -7.021      2.290      3.420
REMARK INTER + INTRA:         -11.048
REMARK INTER:                 -10.535
REMARK INTRA:                  -0.513
REMARK UNBOUND:                -1.153
REMARK  Name = 
REMARK  8 active torsions:
REMARK  status: ('A' for Active; 'I' for Inactive)
REMARK    1  A    between atoms: C_1  and  N_2
REMARK    2  A    between atoms: N_2  and  C_3
REMARK    3  A    between atoms: C_3  and  C_4
REMARK    4  A    between atoms: C_3  and  C_26
REMARK    5  A    between atoms: C_4  and  C_5
REMARK    6  A    between atoms: C_9  and  C_10
REMARK    7  A    between atoms: C_10  and  N_11
REMARK    8  A    between atoms: C_12  and  C_14
REMARK                            x       y       z     vdW  Elec       q    Type
REMARK                         _______ _______ _______ _____ _____    ______ ____
ROOT
ATOM      1  C   UNL     1      45.912   5.607  12.007  0.00  0.00    +0.000 C 
ATOM      2  C   UNL     1      46.293   6.738  12.826  0.00  0.00    +0.000 C 
ATOM      3  C   UNL     1      47.406   6.751  13.732  0.00  0.00    +0.000 C 
ATOM      4  C   UNL     1      47.786   5.702  14.463  0.00  0.00    +0.000 C 
ATOM      5  C   UNL     1      47.068   4.389  14.522  0.00  0.00    +0.000 C 
ATOM      6  N   UNL     1      46.256   3.827  13.685  0.00  0.00    +0.000 NA
ATOM      7  C   UNL     1      45.907   4.347  12.472  0.00  0.00    +0.000 C 
ENDROOT
BRANCH   1   8
ATOM      8  C   UNL     1      45.462   5.923  10.589  0.00  0.00    +0.000 C 
BRANCH   8   9
ATOM      9  C   UNL     1      44.428   4.938   9.965  0.00  0.00    +0.000 C 
BRANCH   9  10
ATOM     10  C   UNL     1      45.141   3.929   9.054  0.00  0.00    +0.000 A 
ATOM     11  C   UNL     1      45.058   2.555   9.301  0.00  0.00    +0.000 A 
ATOM     12  C   UNL     1      45.763   1.671   8.492  0.00  0.00    +0.000 A 
ATOM     13  C   UNL     1      46.538   2.172   7.457  0.00  0.00    +0.000 A 
ATOM     14  C   UNL     1      46.569   3.544   7.271  0.00  0.00    +0.000 A 
ATOM     15  N   UNL     1      45.892   4.430   8.038  0.00  0.00    +0.000 NA
ENDBRANCH   9  10
BRANCH   9  17
ATOM     16  C   UNL     1      42.474   5.115  11.467  0.00  0.00    +0.000 C 
ATOM     17  N   UNL     1      43.510   4.258  10.916  0.00  0.00    +0.000 NA
ATOM     18  H   UNL     1      43.062   3.497  10.403  0.00  0.00    +0.000 HD
ENDBRANCH   9  17
ENDBRANCH   8   9
ENDBRANCH   1   8
BRANCH   5  19
ATOM     19  C   UNL     1      47.398   3.550  15.764  0.00  0.00    +0.000 C 
BRANCH  19  20
ATOM     20  N   UNL     1      48.069   4.382  16.743  0.00  0.00    +0.000 N 
ATOM     21  C   UNL     1      49.042   3.892  17.576  0.00  0.00    +0.000 C 
ATOM     22  O   UNL     1      49.417   2.723  17.513  0.00  0.00    +0.000 OA
ATOM     23  H   UNL     1      47.606   5.260  16.975  0.00  0.00    +0.000 HD
BRANCH  21  24
ATOM     24  C   UNL     1      49.664   4.837  18.510  0.00  0.00    +0.000 A 
ATOM     25  C   UNL     1      51.043   4.819  18.673  0.00  0.00    +0.000 A 
ATOM     26  S   UNL     1      51.620   5.995  19.763  0.00  0.00    +0.000 S 
ATOM     27  C   UNL     1      50.042   6.536  20.097  0.00  0.00    +0.000 A 
ATOM     28  N   UNL     1      49.822   7.531  20.998  0.00  0.00    +0.000 NA
ATOM     29  C   UNL     1      48.576   7.810  21.188  0.00  0.00    +0.000 A 
ATOM     30  N   UNL     1      47.531   7.193  20.549  0.00  0.00    +0.000 N 
ATOM     31  C   UNL     1      47.709   6.227  19.587  0.00  0.00    +0.000 A 
ATOM     32  O   UNL     1      46.762   5.764  18.963  0.00  0.00    +0.000 OA
ATOM     33  C   UNL     1      49.091   5.847  19.365  0.00  0.00    +0.000 A 
ATOM     34  H   UNL     1      46.578   7.472  20.728  0.00  0.00    +0.000 HD
ENDBRANCH  21  24
ENDBRANCH  19  20
ENDBRANCH   5  19
TORSDOF 7
ENDMDL
MODEL 8
REMARK VINA RESULT:    -6.911      3.414      8.596
REMARK INTER + INTRA:         -10.892
REMARK INTER:                  -9.687
REMARK INTRA:                  -1.204
REMARK UNBOUND:                -1.153
REMARK  Name = 
REMARK  8 active torsions:
REMARK  status: ('A' for Active; 'I' for Inactive)
REMARK    1  A    between atoms: C_1  and  N_2
REMARK    2  A    between atoms: N_2  and  C_3
REMARK    3  A    between atoms: C_3  and  C_4
REMARK    4  A    between atoms: C_3  and  C_26
REMARK    5  A    between atoms: C_4  and  C_5
REMARK    6  A    between atoms: C_9  and  C_10
REMARK    7  A    between atoms: C_10  and  N_11
REMARK    8  A    between atoms: C_12  and  C_14
REMARK                            x       y       z     vdW  Elec       q    Type
REMARK                         _______ _______ _______ _____ _____    ______ ____
ROOT
ATOM      1  C   UNL     1      50.328   7.147  15.482  0.00  0.00    +0.000 C 
ATOM      2  C   UNL     1      51.263   7.922  14.694  0.00  0.00    +0.000 C 
ATOM      3  C   UNL     1      50.899   9.004  13.825  0.00  0.00    +0.000 C 
ATOM      4  C   UNL     1      49.786   9.029  13.090  0.00  0.00    +0.000 C 
ATOM      5  C   UNL     1      48.798   7.907  12.986  0.00  0.00    +0.000 C 
ATOM      6  N   UNL     1      48.544   6.923  13.787  0.00  0.00    +0.000 NA
ATOM      7  C   UNL     1      49.147   6.729  14.997  0.00  0.00    +0.000 C 
ENDROOT
BRANCH   1   8
ATOM      8  C   UNL     1      50.772   6.782  16.889  0.00  0.00    +0.000 C 
BRANCH   8   9
ATOM      9  C   UNL     1      49.793   5.885  17.704  0.00  0.00    +0.000 C 
BRANCH   9  10
ATOM     10  C   UNL     1      50.196   4.409  17.575  0.00  0.00    +0.000 A 
ATOM     11  C   UNL     1      51.474   3.979  17.949  0.00  0.00    +0.000 A 
ATOM     12  C   UNL     1      51.828   2.647  17.766  0.00  0.00    +0.000 A 
ATOM     13  C   UNL     1      50.905   1.772  17.211  0.00  0.00    +0.000 A 
ATOM     14  C   UNL     1      49.659   2.270  16.868  0.00  0.00    +0.000 A 
ATOM     15  N   UNL     1      49.283   3.558  17.038  0.00  0.00    +0.000 NA
ENDBRANCH   9  10
BRANCH   9  17
ATOM     16  C   UNL     1      48.494   7.216  19.331  0.00  0.00    +0.000 C 
ATOM     17  N   UNL     1      49.575   6.268  19.124  0.00  0.00    +0.000 NA
ATOM     18  H   UNL     1      49.355   5.409  19.631  0.00  0.00    +0.000 HD
ENDBRANCH   9  17
ENDBRANCH   8   9
ENDBRANCH   1   8
BRANCH   5  19
ATOM     19  C   UNL     1      47.902   7.975  11.742  0.00  0.00    +0.000 C 
BRANCH  19  20
ATOM     20  N   UNL     1      47.105   6.768  11.656  0.00  0.00    +0.000 N 
ATOM     21  C   UNL     1      45.735   6.790  11.721  0.00  0.00    +0.000 C 
ATOM     22  O   UNL     1      45.110   7.843  11.825  0.00  0.00    +0.000 OA
ATOM     23  H   UNL     1      47.600   5.893  11.821  0.00  0.00    +0.000 HD
BRANCH  21  24
ATOM     24  C   UNL     1      45.037   5.505  11.599  0.00  0.00    +0.000 A 
ATOM     25  C   UNL     1      44.317   5.020  12.683  0.00  0.00    +0.000 A 
ATOM     26  S   UNL     1      43.536   3.537  12.379  0.00  0.00    +0.000 S 
ATOM     27  C   UNL     1      44.175   3.462  10.804  0.00  0.00    +0.000 A 
ATOM     28  N   UNL     1      43.914   2.400   9.994  0.00  0.00    +0.000 NA
ATOM     29  C   UNL     1      44.499   2.452   8.845  0.00  0.00    +0.000 A 
ATOM     30  N   UNL     1      45.311   3.474   8.427  0.00  0.00    +0.000 N 
ATOM     31  C   UNL     1      45.552   4.595   9.186  0.00  0.00    +0.000 A 
ATOM     32  O   UNL     1      46.202   5.537   8.748  0.00  0.00    +0.000 OA
ATOM     33  C   UNL     1      44.951   4.569  10.505  0.00  0.00    +0.000 A 
ATOM     34  H   UNL     1      45.723   3.464   7.506  0.00  0.00    +0.000 HD
ENDBRANCH  21  24
ENDBRANCH  19  20
ENDBRANCH   5  19
TORSDOF 7
ENDMDL
MODEL 9
REMARK VINA RESULT:    -6.568      4.017      6.261
REMARK INTER + INTRA:         -10.408
REMARK INTER:                  -9.224
REMARK INTRA:                  -1.185
REMARK UNBOUND:                -1.153
REMARK  Name = 
REMARK  8 active torsions:
REMARK  status: ('A' for Active; 'I' for Inactive)
REMARK    1  A    between atoms: C_1  and  N_2
REMARK    2  A    between atoms: N_2  and  C_3
REMARK    3  A    between atoms: C_3  and  C_4
REMARK    4  A    between atoms: C_3  and  C_26
REMARK    5  A    between atoms: C_4  and  C_5
REMARK    6  A    between atoms: C_9  and  C_10
REMARK    7  A    between atoms: C_10  and  N_11
REMARK    8  A    between atoms: C_12  and  C_14
REMARK                            x       y       z     vdW  Elec       q    Type
REMARK                         _______ _______ _______ _____ _____    ______ ____
ROOT
ATOM      1  C   UNL     1      46.180   4.914  12.882  0.00  0.00    +0.000 C 
ATOM      2  C   UNL     1      46.692   4.063  13.935  0.00  0.00    +0.000 C 
ATOM      3  C   UNL     1      47.236   4.537  15.175  0.00  0.00    +0.000 C 
ATOM      4  C   UNL     1      47.969   5.644  15.293  0.00  0.00    +0.000 C 
ATOM      5  C   UNL     1      48.412   6.510  14.153  0.00  0.00    +0.000 C 
ATOM      6  N   UNL     1      47.925   6.661  12.964  0.00  0.00    +0.000 NA
ATOM      7  C   UNL     1      46.799   6.044  12.501  0.00  0.00    +0.000 C 
ENDROOT
BRANCH   1   8
ATOM      8  C   UNL     1      44.916   4.437  12.184  0.00  0.00    +0.000 C 
BRANCH   8   9
ATOM      9  C   UNL     1      44.640   5.049  10.777  0.00  0.00    +0.000 C 
BRANCH   9  10
ATOM     10  C   UNL     1      45.200   4.131   9.681  0.00  0.00    +0.000 A 
ATOM     11  C   UNL     1      45.819   4.663   8.546  0.00  0.00    +0.000 A 
ATOM     12  C   UNL     1      46.263   3.808   7.544  0.00  0.00    +0.000 A 
ATOM     13  C   UNL     1      46.078   2.440   7.691  0.00  0.00    +0.000 A 
ATOM     14  C   UNL     1      45.459   1.987   8.844  0.00  0.00    +0.000 A 
ATOM     15  N   UNL     1      45.020   2.793   9.838  0.00  0.00    +0.000 NA
ENDBRANCH   9  10
BRANCH   9  17
ATOM     16  C   UNL     1      42.394   5.559  11.673  0.00  0.00    +0.000 C 
ATOM     17  N   UNL     1      43.234   5.441  10.494  0.00  0.00    +0.000 NA
ATOM     18  H   UNL     1      43.268   6.348  10.027  0.00  0.00    +0.000 HD
ENDBRANCH   9  17
ENDBRANCH   8   9
ENDBRANCH   1   8
BRANCH   5  19
ATOM     19  C   UNL     1      49.615   7.406  14.478  0.00  0.00    +0.000 C 
BRANCH  19  20
ATOM     20  N   UNL     1      50.217   7.868  13.243  0.00  0.00    +0.000 N 
ATOM     21  C   UNL     1      51.511   8.322  13.186  0.00  0.00    +0.000 C 
ATOM     22  O   UNL     1      52.236   8.330  14.177  0.00  0.00    +0.000 OA
ATOM     23  H   UNL     1      49.571   8.100  12.491  0.00  0.00    +0.000 HD
BRANCH  21  24
ATOM     24  C   UNL     1      52.016   8.743  11.874  0.00  0.00    +0.000 A 
ATOM     25  C   UNL     1      53.125   8.101  11.339  0.00  0.00    +0.000 A 
ATOM     26  S   UNL     1      53.573   8.675   9.799  0.00  0.00    +0.000 S 
ATOM     27  C   UNL     1      52.332   9.839   9.814  0.00  0.00    +0.000 A 
ATOM     28  N   UNL     1      52.177  10.707   8.778  0.00  0.00    +0.000 NA
ATOM     29  C   UNL     1      51.226  11.565   8.942  0.00  0.00    +0.000 A 
ATOM     30  N   UNL     1      50.410  11.626  10.041  0.00  0.00    +0.000 N 
ATOM     31  C   UNL     1      50.490  10.732  11.082  0.00  0.00    +0.000 A 
ATOM     32  O   UNL     1      49.684  10.750  12.005  0.00  0.00    +0.000 OA
ATOM     33  C   UNL     1      51.570   9.771  10.967  0.00  0.00    +0.000 A 
ATOM     34  H   UNL     1      49.670  12.310  10.099  0.00  0.00    +0.000 HD
ENDBRANCH  21  24
ENDBRANCH  19  20
ENDBRANCH   5  19
TORSDOF 7
ENDMDL
