MODEL 1
REMARK VINA RESULT:    -8.576      0.000      0.000
REMARK INTER + INTRA:         -12.960
REMARK INTER:                 -12.085
REMARK INTRA:                  -0.875
REMARK UNBOUND:                -0.875
REMARK  Name = 
REMARK  7 active torsions:
REMARK  status: ('A' for Active; 'I' for Inactive)
REMARK    1  A    between atoms: C_2  and  C_4
REMARK    2  A    between atoms: C_7  and  O_8
REMARK    3  A    between atoms: O_8  and  C_9
REMARK    4  A    between atoms: C_9  and  C_10
REMARK    5  A    between atoms: C_10  and  C_13
REMARK    6  A    between atoms: C_18  and  N_19
REMARK    7  A    between atoms: N_19  and  C_20
REMARK                            x       y       z     vdW  Elec       q    Type
REMARK                         _______ _______ _______ _____ _____    ______ ____
ROOT
ATOM      1  C   UNL     1      43.460   5.295  11.999  0.00  0.00    +0.000 C 
ATOM      2  F   UNL     1      43.019   6.457  11.429  0.00  0.00    +0.000 F 
ATOM      3  F   UNL     1      42.585   5.034  13.014  0.00  0.00    +0.000 F 
ENDROOT
BRANCH   1   4
ATOM      4  C   UNL     1      44.888   5.432  12.517  0.00  0.00    +0.000 A 
ATOM      5  C   UNL     1      45.748   6.394  11.966  0.00  0.00    +0.000 A 
ATOM      6  C   UNL     1      47.052   6.501  12.433  0.00  0.00    +0.000 A 
ATOM      7  F   UNL     1      47.863   7.430  11.908  0.00  0.00    +0.000 F 
ATOM      8  C   UNL     1      47.531   5.668  13.439  0.00  0.00    +0.000 A 
ATOM      9  C   UNL     1      46.693   4.715  14.027  0.00  0.00    +0.000 A 
ATOM     10  C   UNL     1      45.374   4.604  13.558  0.00  0.00    +0.000 A 
BRANCH   9  11
ATOM     11  N   UNL     1      47.221   3.942  15.087  0.00  0.00    +0.000 N 
ATOM     12  H   UNL     1      46.990   2.958  14.949  0.00  0.00    +0.000 HD
BRANCH  11  13
ATOM     13  C   UNL     1      47.307   4.305  16.478  0.00  0.00    +0.000 C 
ATOM     14  C   UNL     1      48.738   4.460  17.018  0.00  0.00    +0.000 C 
ATOM     15  O   UNL     1      48.458   3.549  18.118  0.00  0.00    +0.000 OA
ATOM     16  C   UNL     1      47.264   3.093  17.431  0.00  0.00    +0.000 C 
ENDBRANCH  11  13
ENDBRANCH   9  11
ENDBRANCH   1   4
BRANCH   1  17
ATOM     17  C   UNL     1      43.347   4.172  10.950  0.00  0.00    +0.000 C 
BRANCH  17  18
ATOM     18  O   UNL     1      43.564   4.649   9.600  0.00  0.00    +0.000 OA
BRANCH  18  22
ATOM     19  C   UNL     1      46.486   2.547   7.654  0.00  0.00    +0.000 A 
ATOM     20  C   UNL     1      45.624   1.846   8.479  0.00  0.00    +0.000 A 
ATOM     21  C   UNL     1      44.628   2.558   9.153  0.00  0.00    +0.000 A 
ATOM     22  C   UNL     1      44.554   3.928   8.957  0.00  0.00    +0.000 A 
ATOM     23  N   UNL     1      45.426   4.577   8.146  0.00  0.00    +0.000 NA
ATOM     24  N   UNL     1      46.400   3.886   7.489  0.00  0.00    +0.000 NA
BRANCH  19  26
ATOM     25  N   UNL     1      48.606   2.635   6.462  0.00  0.00    +0.000 N 
ATOM     26  C   UNL     1      47.558   1.862   6.875  0.00  0.00    +0.000 C 
ATOM     27  O   UNL     1      47.507   0.661   6.626  0.00  0.00    +0.000 OA
ATOM     28  H   UNL     1      49.371   2.195   5.971  0.00  0.00    +0.000 HD
ATOM     29  H   UNL     1      48.695   3.600   6.759  0.00  0.00    +0.000 HD
ENDBRANCH  19  26
ENDBRANCH  18  22
ENDBRANCH  17  18
ENDBRANCH   1  17
TORSDOF 7
ENDMDL
MODEL 2
REMARK VINA RESULT:    -8.006      2.312      3.035
REMARK INTER + INTRA:         -12.158
REMARK INTER:                 -11.285
REMARK INTRA:                  -0.873
REMARK UNBOUND:                -0.875
REMARK  Name = 
REMARK  7 active torsions:
REMARK  status: ('A' for Active; 'I' for Inactive)
REMARK    1  A    between atoms: C_2  and  C_4
REMARK    2  A    between atoms: C_7  and  O_8
REMARK    3  A    between atoms: O_8  and  C_9
REMARK    4  A    between atoms: C_9  and  C_10
REMARK    5  A    between atoms: C_10  and  C_13
REMARK    6  A    between atoms: C_18  and  N_19
REMARK    7  A    between atoms: N_19  and  C_20
REMARK                            x       y       z     vdW  Elec       q    Type
REMARK                         _______ _______ _______ _____ _____    ______ ____
ROOT
ATOM      1  C   UNL     1      43.545   5.368  11.858  0.00  0.00    +0.000 C 
ATOM      2  F   UNL     1      43.316   6.507  11.136  0.00  0.00    +0.000 F 
ATOM      3  F   UNL     1      42.499   5.274  12.730  0.00  0.00    +0.000 F 
ENDROOT
BRANCH   1   4
ATOM      4  C   UNL     1      44.880   5.432  12.595  0.00  0.00    +0.000 A 
ATOM      5  C   UNL     1      45.516   4.250  13.003  0.00  0.00    +0.000 A 
ATOM      6  C   UNL     1      46.723   4.318  13.688  0.00  0.00    +0.000 A 
ATOM      7  F   UNL     1      47.330   3.184  14.064  0.00  0.00    +0.000 F 
ATOM      8  C   UNL     1      47.318   5.540  13.985  0.00  0.00    +0.000 A 
ATOM      9  C   UNL     1      46.722   6.736  13.572  0.00  0.00    +0.000 A 
ATOM     10  C   UNL     1      45.503   6.672  12.878  0.00  0.00    +0.000 A 
BRANCH   9  11
ATOM     11  N   UNL     1      47.409   7.941  13.850  0.00  0.00    +0.000 N 
ATOM     12  H   UNL     1      46.752   8.646  14.186  0.00  0.00    +0.000 HD
BRANCH  11  13
ATOM     13  C   UNL     1      48.511   8.510  13.120  0.00  0.00    +0.000 C 
ATOM     14  C   UNL     1      48.598   8.085  11.644  0.00  0.00    +0.000 C 
ATOM     15  O   UNL     1      49.984   7.674  11.809  0.00  0.00    +0.000 OA
ATOM     16  C   UNL     1      49.816   7.698  13.250  0.00  0.00    +0.000 C 
ENDBRANCH  11  13
ENDBRANCH   9  11
ENDBRANCH   1   4
BRANCH   1  17
ATOM     17  C   UNL     1      43.492   4.168  10.894  0.00  0.00    +0.000 C 
BRANCH  17  18
ATOM     18  O   UNL     1      43.610   4.566   9.505  0.00  0.00    +0.000 OA
BRANCH  18  22
ATOM     19  C   UNL     1      46.589   2.552   7.553  0.00  0.00    +0.000 A 
ATOM     20  C   UNL     1      45.808   1.844   8.450  0.00  0.00    +0.000 A 
ATOM     21  C   UNL     1      44.794   2.526   9.126  0.00  0.00    +0.000 A 
ATOM     22  C   UNL     1      44.621   3.876   8.861  0.00  0.00    +0.000 A 
ATOM     23  N   UNL     1      45.416   4.533   7.981  0.00  0.00    +0.000 NA
ATOM     24  N   UNL     1      46.408   3.872   7.321  0.00  0.00    +0.000 NA
BRANCH  19  26
ATOM     25  N   UNL     1      48.685   2.702   6.326  0.00  0.00    +0.000 N 
ATOM     26  C   UNL     1      47.675   1.896   6.769  0.00  0.00    +0.000 C 
ATOM     27  O   UNL     1      47.666   0.690   6.539  0.00  0.00    +0.000 OA
ATOM     28  H   UNL     1      49.458   2.282   5.829  0.00  0.00    +0.000 HD
ATOM     29  H   UNL     1      48.742   3.674   6.606  0.00  0.00    +0.000 HD
ENDBRANCH  19  26
ENDBRANCH  18  22
ENDBRANCH  17  18
ENDBRANCH   1  17
TORSDOF 7
ENDMDL
MODEL 3
REMARK VINA RESULT:    -7.799      3.293      4.712
REMARK INTER + INTRA:         -11.866
REMARK INTER:                 -10.996
REMARK INTRA:                  -0.869
REMARK UNBOUND:                -0.875
REMARK  Name = 
REMARK  7 active torsions:
REMARK  status: ('A' for Active; 'I' for Inactive)
REMARK    1  A    between atoms: C_2  and  C_4
REMARK    2  A    between atoms: C_7  and  O_8
REMARK    3  A    between atoms: O_8  and  C_9
REMARK    4  A    between atoms: C_9  and  C_10
REMARK    5  A    between atoms: C_10  and  C_13
REMARK    6  A    between atoms: C_18  and  N_19
REMARK    7  A    between atoms: N_19  and  C_20
REMARK                            x       y       z     vdW  Elec       q    Type
REMARK                         _______ _______ _______ _____ _____    ______ ____
ROOT
ATOM      1  C   UNL     1      44.410   4.827  11.907  0.00  0.00    +0.000 C 
ATOM      2  F   UNL     1      43.385   4.827  12.813  0.00  0.00    +0.000 F 
ATOM      3  F   UNL     1      45.173   3.740  12.223  0.00  0.00    +0.000 F 
ENDROOT
BRANCH   1   4
ATOM      4  C   UNL     1      45.222   6.117  11.981  0.00  0.00    +0.000 A 
ATOM      5  C   UNL     1      46.603   6.094  11.737  0.00  0.00    +0.000 A 
ATOM      6  C   UNL     1      47.338   7.270  11.822  0.00  0.00    +0.000 A 
ATOM      7  F   UNL     1      48.655   7.241  11.577  0.00  0.00    +0.000 F 
ATOM      8  C   UNL     1      46.732   8.479  12.149  0.00  0.00    +0.000 A 
ATOM      9  C   UNL     1      45.353   8.541  12.374  0.00  0.00    +0.000 A 
ATOM     10  C   UNL     1      44.607   7.354  12.288  0.00  0.00    +0.000 A 
BRANCH   9  11
ATOM     11  N   UNL     1      44.788   9.810  12.641  0.00  0.00    +0.000 N 
ATOM     12  H   UNL     1      44.459   9.849  13.606  0.00  0.00    +0.000 HD
BRANCH  11  13
ATOM     13  C   UNL     1      44.001  10.623  11.751  0.00  0.00    +0.000 C 
ATOM     14  C   UNL     1      44.082  10.224  10.268  0.00  0.00    +0.000 C 
ATOM     15  O   UNL     1      44.429  11.584   9.885  0.00  0.00    +0.000 OA
ATOM     16  C   UNL     1      44.735  11.892  11.270  0.00  0.00    +0.000 C 
ENDBRANCH  11  13
ENDBRANCH   9  11
ENDBRANCH   1   4
BRANCH   1  17
ATOM     17  C   UNL     1      43.812   4.617  10.503  0.00  0.00    +0.000 C 
BRANCH  17  18
ATOM     18  O   UNL     1      43.758   3.220  10.125  0.00  0.00    +0.000 OA
BRANCH  18  22
ATOM     19  C   UNL     1      46.613   2.282   7.348  0.00  0.00    +0.000 A 
ATOM     20  C   UNL     1      46.087   3.562   7.329  0.00  0.00    +0.000 A 
ATOM     21  C   UNL     1      45.106   3.887   8.270  0.00  0.00    +0.000 A 
ATOM     22  C   UNL     1      44.714   2.913   9.173  0.00  0.00    +0.000 A 
ATOM     23  N   UNL     1      45.249   1.667   9.149  0.00  0.00    +0.000 NA
ATOM     24  N   UNL     1      46.204   1.345   8.233  0.00  0.00    +0.000 NA
BRANCH  19  26
ATOM     25  N   UNL     1      48.832   2.599   6.399  0.00  0.00    +0.000 N 
ATOM     26  C   UNL     1      47.683   1.859   6.398  0.00  0.00    +0.000 C 
ATOM     27  O   UNL     1      47.544   0.889   5.659  0.00  0.00    +0.000 OA
ATOM     28  H   UNL     1      49.594   2.314   5.800  0.00  0.00    +0.000 HD
ATOM     29  H   UNL     1      48.983   3.333   7.082  0.00  0.00    +0.000 HD
ENDBRANCH  19  26
ENDBRANCH  18  22
ENDBRANCH  17  18
ENDBRANCH   1  17
TORSDOF 7
ENDMDL
MODEL 4
REMARK VINA RESULT:    -7.689      2.389      2.618
REMARK INTER + INTRA:         -11.711
REMARK INTER:                 -10.897
REMARK INTRA:                  -0.814
REMARK UNBOUND:                -0.875
REMARK  Name = 
REMARK  7 active torsions:
REMARK  status: ('A' for Active; 'I' for Inactive)
REMARK    1  A    between atoms: C_2  and  C_4
REMARK    2  A    between atoms: C_7  and  O_8
REMARK    3  A    between atoms: O_8  and  C_9
REMARK    4  A    between atoms: C_9  and  C_10
REMARK    5  A    between atoms: C_10  and  C_13
REMARK    6  A    between atoms: C_18  and  N_19
REMARK    7  A    between atoms: N_19  and  C_20
REMARK                            x       y       z     vdW  Elec       q    Type
REMARK                         _______ _______ _______ _____ _____    ______ ____
ROOT
ATOM      1  C   UNL     1      43.579   4.310  12.303  0.00  0.00    +0.000 C 
ATOM      2  F   UNL     1      42.380   4.643  11.736  0.00  0.00    +0.000 F 
ATOM      3  F   UNL     1      43.274   3.843  13.548  0.00  0.00    +0.000 F 
ENDROOT
BRANCH   1   4
ATOM      4  C   UNL     1      44.518   5.512  12.373  0.00  0.00    +0.000 A 
ATOM      5  C   UNL     1      44.236   6.669  11.634  0.00  0.00    +0.000 A 
ATOM      6  C   UNL     1      45.104   7.753  11.691  0.00  0.00    +0.000 A 
ATOM      7  F   UNL     1      44.821   8.859  10.989  0.00  0.00    +0.000 F 
ATOM      8  C   UNL     1      46.257   7.715  12.468  0.00  0.00    +0.000 A 
ATOM      9  C   UNL     1      46.555   6.585  13.237  0.00  0.00    +0.000 A 
ATOM     10  C   UNL     1      45.680   5.488  13.182  0.00  0.00    +0.000 A 
BRANCH   9  11
ATOM     11  N   UNL     1      47.709   6.633  14.054  0.00  0.00    +0.000 N 
ATOM     12  H   UNL     1      47.530   6.157  14.938  0.00  0.00    +0.000 HD
BRANCH  11  13
ATOM     13  C   UNL     1      48.644   7.720  14.186  0.00  0.00    +0.000 C 
ATOM     14  C   UNL     1      49.988   7.342  14.830  0.00  0.00    +0.000 C 
ATOM     15  O   UNL     1      49.860   8.413  15.807  0.00  0.00    +0.000 OA
ATOM     16  C   UNL     1      48.452   8.539  15.479  0.00  0.00    +0.000 C 
ENDBRANCH  11  13
ENDBRANCH   9  11
ENDBRANCH   1   4
BRANCH   1  17
ATOM     17  C   UNL     1      44.196   3.161  11.483  0.00  0.00    +0.000 C 
BRANCH  17  18
ATOM     18  O   UNL     1      43.652   3.081  10.143  0.00  0.00    +0.000 OA
BRANCH  18  22
ATOM     19  C   UNL     1      46.601   2.323   7.409  0.00  0.00    +0.000 A 
ATOM     20  C   UNL     1      46.009   3.573   7.393  0.00  0.00    +0.000 A 
ATOM     21  C   UNL     1      44.996   3.837   8.319  0.00  0.00    +0.000 A 
ATOM     22  C   UNL     1      44.639   2.834   9.206  0.00  0.00    +0.000 A 
ATOM     23  N   UNL     1      45.240   1.618   9.180  0.00  0.00    +0.000 NA
ATOM     24  N   UNL     1      46.227   1.356   8.278  0.00  0.00    +0.000 NA
BRANCH  19  26
ATOM     25  N   UNL     1      48.742   2.856   6.382  0.00  0.00    +0.000 N 
ATOM     26  C   UNL     1      47.709   1.967   6.476  0.00  0.00    +0.000 C 
ATOM     27  O   UNL     1      47.698   0.923   5.830  0.00  0.00    +0.000 OA
ATOM     28  H   UNL     1      49.530   2.625   5.793  0.00  0.00    +0.000 HD
ATOM     29  H   UNL     1      48.797   3.663   6.993  0.00  0.00    +0.000 HD
ENDBRANCH  19  26
ENDBRANCH  18  22
ENDBRANCH  17  18
ENDBRANCH   1  17
TORSDOF 7
ENDMDL
MODEL 5
REMARK VINA RESULT:    -7.636      2.583      7.924
REMARK INTER + INTRA:         -11.636
REMARK INTER:                 -11.051
REMARK INTRA:                  -0.585
REMARK UNBOUND:                -0.875
REMARK  Name = 
REMARK  7 active torsions:
REMARK  status: ('A' for Active; 'I' for Inactive)
REMARK    1  A    between atoms: C_2  and  C_4
REMARK    2  A    between atoms: C_7  and  O_8
REMARK    3  A    between atoms: O_8  and  C_9
REMARK    4  A    between atoms: C_9  and  C_10
REMARK    5  A    between atoms: C_10  and  C_13
REMARK    6  A    between atoms: C_18  and  N_19
REMARK    7  A    between atoms: N_19  and  C_20
REMARK                            x       y       z     vdW  Elec       q    Type
REMARK                         _______ _______ _______ _____ _____    ______ ____
ROOT
ATOM      1  C   UNL     1      46.660   4.822  13.644  0.00  0.00    +0.000 C 
ATOM      2  F   UNL     1      46.478   5.907  14.456  0.00  0.00    +0.000 F 
ATOM      3  F   UNL     1      47.804   5.079  12.945  0.00  0.00    +0.000 F 
ENDROOT
BRANCH   1   4
ATOM      4  C   UNL     1      45.471   4.616  12.711  0.00  0.00    +0.000 A 
ATOM      5  C   UNL     1      44.424   5.548  12.689  0.00  0.00    +0.000 A 
ATOM      6  C   UNL     1      43.336   5.345  11.848  0.00  0.00    +0.000 A 
ATOM      7  F   UNL     1      42.345   6.246  11.825  0.00  0.00    +0.000 F 
ATOM      8  C   UNL     1      43.260   4.228  11.023  0.00  0.00    +0.000 A 
ATOM      9  C   UNL     1      44.298   3.291  11.002  0.00  0.00    +0.000 A 
ATOM     10  C   UNL     1      45.399   3.493  11.851  0.00  0.00    +0.000 A 
BRANCH   9  11
ATOM     11  N   UNL     1      44.189   2.210  10.096  0.00  0.00    +0.000 N 
ATOM     12  H   UNL     1      44.404   1.333  10.572  0.00  0.00    +0.000 HD
BRANCH  11  13
ATOM     13  C   UNL     1      44.558   2.193   8.705  0.00  0.00    +0.000 C 
ATOM     14  C   UNL     1      46.044   1.906   8.433  0.00  0.00    +0.000 C 
ATOM     15  O   UNL     1      46.157   3.097   7.604  0.00  0.00    +0.000 OA
ATOM     16  C   UNL     1      44.903   3.588   8.145  0.00  0.00    +0.000 C 
ENDBRANCH  11  13
ENDBRANCH   9  11
ENDBRANCH   1   4
BRANCH   1  17
ATOM     17  C   UNL     1      46.896   3.588  14.536  0.00  0.00    +0.000 C 
BRANCH  17  18
ATOM     18  O   UNL     1      47.166   3.942  15.915  0.00  0.00    +0.000 OA
BRANCH  18  22
ATOM     19  C   UNL     1      50.662   2.269  17.225  0.00  0.00    +0.000 A 
ATOM     20  C   UNL     1      50.247   3.448  17.817  0.00  0.00    +0.000 A 
ATOM     21  C   UNL     1      49.057   4.030  17.370  0.00  0.00    +0.000 A 
ATOM     22  C   UNL     1      48.356   3.394  16.359  0.00  0.00    +0.000 A 
ATOM     23  N   UNL     1      48.805   2.244  15.799  0.00  0.00    +0.000 NA
ATOM     24  N   UNL     1      49.965   1.674  16.230  0.00  0.00    +0.000 NA
BRANCH  19  26
ATOM     25  N   UNL     1      51.765   0.268  18.065  0.00  0.00    +0.000 N 
ATOM     26  C   UNL     1      51.904   1.566  17.660  0.00  0.00    +0.000 C 
ATOM     27  O   UNL     1      52.998   2.122  17.648  0.00  0.00    +0.000 OA
ATOM     28  H   UNL     1      52.592  -0.251  18.325  0.00  0.00    +0.000 HD
ATOM     29  H   UNL     1      50.879  -0.218  17.975  0.00  0.00    +0.000 HD
ENDBRANCH  19  26
ENDBRANCH  18  22
ENDBRANCH  17  18
ENDBRANCH   1  17
TORSDOF 7
ENDMDL
MODEL 6
REMARK VINA RESULT:    -7.468      2.007      7.869
REMARK INTER + INTRA:         -11.400
REMARK INTER:                 -10.621
REMARK INTRA:                  -0.779
REMARK UNBOUND:                -0.875
REMARK  Name = 
REMARK  7 active torsions:
REMARK  status: ('A' for Active; 'I' for Inactive)
REMARK    1  A    between atoms: C_2  and  C_4
REMARK    2  A    between atoms: C_7  and  O_8
REMARK    3  A    between atoms: O_8  and  C_9
REMARK    4  A    between atoms: C_9  and  C_10
REMARK    5  A    between atoms: C_10  and  C_13
REMARK    6  A    between atoms: C_18  and  N_19
REMARK    7  A    between atoms: N_19  and  C_20
REMARK                            x       y       z     vdW  Elec       q    Type
REMARK                         _______ _______ _______ _____ _____    ______ ____
ROOT
ATOM      1  C   UNL     1      45.897   6.447  11.558  0.00  0.00    +0.000 C 
ATOM      2  F   UNL     1      45.099   7.539  11.356  0.00  0.00    +0.000 F 
ATOM      3  F   UNL     1      47.128   6.804  11.087  0.00  0.00    +0.000 F 
ENDROOT
BRANCH   1   4
ATOM      4  C   UNL     1      45.358   5.219  10.829  0.00  0.00    +0.000 A 
ATOM      5  C   UNL     1      44.477   4.344  11.482  0.00  0.00    +0.000 A 
ATOM      6  C   UNL     1      44.004   3.219  10.817  0.00  0.00    +0.000 A 
ATOM      7  F   UNL     1      43.154   2.395  11.444  0.00  0.00    +0.000 F 
ATOM      8  C   UNL     1      44.388   2.936   9.511  0.00  0.00    +0.000 A 
ATOM      9  C   UNL     1      45.247   3.800   8.823  0.00  0.00    +0.000 A 
ATOM     10  C   UNL     1      45.727   4.939   9.491  0.00  0.00    +0.000 A 
BRANCH   9  11
ATOM     11  N   UNL     1      45.551   3.489   7.477  0.00  0.00    +0.000 N 
ATOM     12  H   UNL     1      44.785   2.959   7.061  0.00  0.00    +0.000 HD
BRANCH  11  13
ATOM     13  C   UNL     1      46.834   3.138   6.927  0.00  0.00    +0.000 C 
ATOM     14  C   UNL     1      46.799   2.631   5.476  0.00  0.00    +0.000 C 
ATOM     15  O   UNL     1      47.543   1.435   5.841  0.00  0.00    +0.000 OA
ATOM     16  C   UNL     1      47.260   1.690   7.241  0.00  0.00    +0.000 C 
ENDBRANCH  11  13
ENDBRANCH   9  11
ENDBRANCH   1   4
BRANCH   1  17
ATOM     17  C   UNL     1      46.002   6.200  13.074  0.00  0.00    +0.000 C 
BRANCH  17  18
ATOM     18  O   UNL     1      47.301   6.558  13.607  0.00  0.00    +0.000 OA
BRANCH  18  22
ATOM     19  C   UNL     1      48.445   4.117  16.685  0.00  0.00    +0.000 A 
ATOM     20  C   UNL     1      47.359   3.729  15.919  0.00  0.00    +0.000 A 
ATOM     21  C   UNL     1      46.958   4.561  14.871  0.00  0.00    +0.000 A 
ATOM     22  C   UNL     1      47.669   5.730  14.652  0.00  0.00    +0.000 A 
ATOM     23  N   UNL     1      48.722   6.077  15.433  0.00  0.00    +0.000 NA
ATOM     24  N   UNL     1      49.115   5.269  16.458  0.00  0.00    +0.000 NA
BRANCH  19  26
ATOM     25  N   UNL     1      48.345   3.427  19.017  0.00  0.00    +0.000 N 
ATOM     26  C   UNL     1      48.957   3.275  17.805  0.00  0.00    +0.000 C 
ATOM     27  O   UNL     1      49.877   2.478  17.644  0.00  0.00    +0.000 OA
ATOM     28  H   UNL     1      48.638   2.841  19.786  0.00  0.00    +0.000 HD
ATOM     29  H   UNL     1      47.520   4.008  19.119  0.00  0.00    +0.000 HD
ENDBRANCH  19  26
ENDBRANCH  18  22
ENDBRANCH  17  18
ENDBRANCH   1  17
TORSDOF 7
ENDMDL
MODEL 7
REMARK VINA RESULT:    -7.162      1.960      7.552
REMARK INTER + INTRA:         -10.968
REMARK INTER:                 -10.017
REMARK INTRA:                  -0.951
REMARK UNBOUND:                -0.875
REMARK  Name = 
REMARK  7 active torsions:
REMARK  status: ('A' for Active; 'I' for Inactive)
REMARK    1  A    between atoms: C_2  and  C_4
REMARK    2  A    between atoms: C_7  and  O_8
REMARK    3  A    between atoms: O_8  and  C_9
REMARK    4  A    between atoms: C_9  and  C_10
REMARK    5  A    between atoms: C_10  and  C_13
REMARK    6  A    between atoms: C_18  and  N_19
REMARK    7  A    between atoms: N_19  and  C_20
REMARK                            x       y       z     vdW  Elec       q    Type
REMARK                         _______ _______ _______ _____ _____    ______ ____
ROOT
ATOM      1  C   UNL     1      46.911   7.415  11.972  0.00  0.00    +0.000 C 
ATOM      2  F   UNL     1      46.728   8.647  11.406  0.00  0.00    +0.000 F 
ATOM      3  F   UNL     1      48.044   6.917  11.397  0.00  0.00    +0.000 F 
ENDROOT
BRANCH   1   4
ATOM      4  C   UNL     1      45.714   6.502  11.723  0.00  0.00    +0.000 A 
ATOM      5  C   UNL     1      44.810   6.228  12.761  0.00  0.00    +0.000 A 
ATOM      6  C   UNL     1      43.732   5.383  12.531  0.00  0.00    +0.000 A 
ATOM      7  F   UNL     1      42.868   5.135  13.524  0.00  0.00    +0.000 F 
ATOM      8  C   UNL     1      43.527   4.795  11.287  0.00  0.00    +0.000 A 
ATOM      9  C   UNL     1      44.395   5.066  10.224  0.00  0.00    +0.000 A 
ATOM     10  C   UNL     1      45.486   5.920  10.453  0.00  0.00    +0.000 A 
BRANCH   9  11
ATOM     11  N   UNL     1      44.096   4.486   8.969  0.00  0.00    +0.000 N 
ATOM     12  H   UNL     1      43.176   4.794   8.653  0.00  0.00    +0.000 HD
BRANCH  11  13
ATOM     13  C   UNL     1      44.425   3.160   8.516  0.00  0.00    +0.000 C 
ATOM     14  C   UNL     1      45.373   2.377   9.440  0.00  0.00    +0.000 C 
ATOM     15  O   UNL     1      46.274   2.094   8.333  0.00  0.00    +0.000 OA
ATOM     16  C   UNL     1      45.623   3.124   7.545  0.00  0.00    +0.000 C 
ENDBRANCH  11  13
ENDBRANCH   9  11
ENDBRANCH   1   4
BRANCH   1  17
ATOM     17  C   UNL     1      47.167   7.611  13.478  0.00  0.00    +0.000 C 
BRANCH  17  18
ATOM     18  O   UNL     1      48.435   7.054  13.903  0.00  0.00    +0.000 OA
BRANCH  18  22
ATOM     19  C   UNL     1      47.891   4.221  16.804  0.00  0.00    +0.000 A 
ATOM     20  C   UNL     1      48.536   5.394  17.156  0.00  0.00    +0.000 A 
ATOM     21  C   UNL     1      48.731   6.363  16.169  0.00  0.00    +0.000 A 
ATOM     22  C   UNL     1      48.268   6.100  14.890  0.00  0.00    +0.000 A 
ATOM     23  N   UNL     1      47.650   4.932  14.586  0.00  0.00    +0.000 NA
ATOM     24  N   UNL     1      47.458   3.984  15.545  0.00  0.00    +0.000 NA
BRANCH  19  26
ATOM     25  N   UNL     1      48.509   3.015  18.826  0.00  0.00    +0.000 N 
ATOM     26  C   UNL     1      47.615   3.146  17.801  0.00  0.00    +0.000 C 
ATOM     27  O   UNL     1      46.629   2.421  17.712  0.00  0.00    +0.000 OA
ATOM     28  H   UNL     1      48.329   2.327  19.543  0.00  0.00    +0.000 HD
ATOM     29  H   UNL     1      49.262   3.682  18.953  0.00  0.00    +0.000 HD
ENDBRANCH  19  26
ENDBRANCH  18  22
ENDBRANCH  17  18
ENDBRANCH   1  17
TORSDOF 7
ENDMDL
MODEL 8
REMARK VINA RESULT:    -7.155      3.091      3.906
REMARK INTER + INTRA:         -10.958
REMARK INTER:                 -10.189
REMARK INTRA:                  -0.768
REMARK UNBOUND:                -0.875
REMARK  Name = 
REMARK  7 active torsions:
REMARK  status: ('A' for Active; 'I' for Inactive)
REMARK    1  A    between atoms: C_2  and  C_4
REMARK    2  A    between atoms: C_7  and  O_8
REMARK    3  A    between atoms: O_8  and  C_9
REMARK    4  A    between atoms: C_9  and  C_10
REMARK    5  A    between atoms: C_10  and  C_13
REMARK    6  A    between atoms: C_18  and  N_19
REMARK    7  A    between atoms: N_19  and  C_20
REMARK                            x       y       z     vdW  Elec       q    Type
REMARK                         _______ _______ _______ _____ _____    ______ ____
ROOT
ATOM      1  C   UNL     1      45.208   5.467  12.229  0.00  0.00    +0.000 C 
ATOM      2  F   UNL     1      44.322   5.548  13.268  0.00  0.00    +0.000 F 
ATOM      3  F   UNL     1      45.868   4.286  12.406  0.00  0.00    +0.000 F 
ENDROOT
BRANCH   1   4
ATOM      4  C   UNL     1      46.174   6.649  12.224  0.00  0.00    +0.000 A 
ATOM      5  C   UNL     1      45.680   7.961  12.227  0.00  0.00    +0.000 A 
ATOM      6  C   UNL     1      46.566   9.032  12.205  0.00  0.00    +0.000 A 
ATOM      7  F   UNL     1      46.086  10.282  12.219  0.00  0.00    +0.000 F 
ATOM      8  C   UNL     1      47.942   8.830  12.178  0.00  0.00    +0.000 A 
ATOM      9  C   UNL     1      48.468   7.534  12.198  0.00  0.00    +0.000 A 
ATOM     10  C   UNL     1      47.576   6.450  12.221  0.00  0.00    +0.000 A 
BRANCH   9  11
ATOM     11  N   UNL     1      49.876   7.398  12.232  0.00  0.00    +0.000 N 
ATOM     12  H   UNL     1      50.163   6.969  13.112  0.00  0.00    +0.000 HD
BRANCH  11  13
ATOM     13  C   UNL     1      50.857   8.314  11.712  0.00  0.00    +0.000 C 
ATOM     14  C   UNL     1      51.785   7.726  10.636  0.00  0.00    +0.000 C 
ATOM     15  O   UNL     1      52.965   8.159  11.369  0.00  0.00    +0.000 OA
ATOM     16  C   UNL     1      52.150   8.368  12.551  0.00  0.00    +0.000 C 
ENDBRANCH  11  13
ENDBRANCH   9  11
ENDBRANCH   1   4
BRANCH   1  17
ATOM     17  C   UNL     1      44.405   5.391  10.916  0.00  0.00    +0.000 C 
BRANCH  17  18
ATOM     18  O   UNL     1      44.140   4.027  10.506  0.00  0.00    +0.000 OA
BRANCH  18  22
ATOM     19  C   UNL     1      46.454   2.960   7.304  0.00  0.00    +0.000 A 
ATOM     20  C   UNL     1      46.028   1.958   8.159  0.00  0.00    +0.000 A 
ATOM     21  C   UNL     1      45.244   2.316   9.258  0.00  0.00    +0.000 A 
ATOM     22  C   UNL     1      44.931   3.654   9.434  0.00  0.00    +0.000 A 
ATOM     23  N   UNL     1      45.378   4.605   8.578  0.00  0.00    +0.000 NA
ATOM     24  N   UNL     1      46.145   4.262   7.505  0.00  0.00    +0.000 NA
BRANCH  19  26
ATOM     25  N   UNL     1      48.623   2.583   6.266  0.00  0.00    +0.000 N 
ATOM     26  C   UNL     1      47.270   2.664   6.091  0.00  0.00    +0.000 C 
ATOM     27  O   UNL     1      46.752   2.493   4.992  0.00  0.00    +0.000 OA
ATOM     28  H   UNL     1      49.201   2.340   5.475  0.00  0.00    +0.000 HD
ATOM     29  H   UNL     1      49.035   2.621   7.192  0.00  0.00    +0.000 HD
ENDBRANCH  19  26
ENDBRANCH  18  22
ENDBRANCH  17  18
ENDBRANCH   1  17
TORSDOF 7
ENDMDL
MODEL 9
REMARK VINA RESULT:    -6.863      3.446      7.425
REMARK INTER + INTRA:         -10.546
REMARK INTER:                  -9.458
REMARK INTRA:                  -1.088
REMARK UNBOUND:                -0.875
REMARK  Name = 
REMARK  7 active torsions:
REMARK  status: ('A' for Active; 'I' for Inactive)
REMARK    1  A    between atoms: C_2  and  C_4
REMARK    2  A    between atoms: C_7  and  O_8
REMARK    3  A    between atoms: O_8  and  C_9
REMARK    4  A    between atoms: C_9  and  C_10
REMARK    5  A    between atoms: C_10  and  C_13
REMARK    6  A    between atoms: C_18  and  N_19
REMARK    7  A    between atoms: N_19  and  C_20
REMARK                            x       y       z     vdW  Elec       q    Type
REMARK                         _______ _______ _______ _____ _____    ______ ____
ROOT
ATOM      1  C   UNL     1      49.208   8.208  12.175  0.00  0.00    +0.000 C 
ATOM      2  F   UNL     1      49.558   9.526  12.275  0.00  0.00    +0.000 F 
ATOM      3  F   UNL     1      49.865   7.741  11.073  0.00  0.00    +0.000 F 
ENDROOT
BRANCH   1   4
ATOM      4  C   UNL     1      47.698   8.039  12.034  0.00  0.00    +0.000 A 
ATOM      5  C   UNL     1      46.837   9.091  12.378  0.00  0.00    +0.000 A 
ATOM      6  C   UNL     1      45.462   8.924  12.263  0.00  0.00    +0.000 A 
ATOM      7  F   UNL     1      44.647   9.938  12.583  0.00  0.00    +0.000 F 
ATOM      8  C   UNL     1      44.915   7.726  11.814  0.00  0.00    +0.000 A 
ATOM      9  C   UNL     1      45.746   6.664  11.441  0.00  0.00    +0.000 A 
ATOM     10  C   UNL     1      47.136   6.830  11.555  0.00  0.00    +0.000 A 
BRANCH   9  11
ATOM     11  N   UNL     1      45.130   5.496  10.934  0.00  0.00    +0.000 N 
ATOM     12  H   UNL     1      44.356   5.749  10.320  0.00  0.00    +0.000 HD
BRANCH  11  13
ATOM     13  C   UNL     1      44.910   4.252  11.625  0.00  0.00    +0.000 C 
ATOM     14  C   UNL     1      43.433   3.891  11.853  0.00  0.00    +0.000 C 
ATOM     15  O   UNL     1      43.665   3.697  13.276  0.00  0.00    +0.000 OA
ATOM     16  C   UNL     1      44.933   4.392  13.161  0.00  0.00    +0.000 C 
ENDBRANCH  11  13
ENDBRANCH   9  11
ENDBRANCH   1   4
BRANCH   1  17
ATOM     17  C   UNL     1      49.744   7.472  13.417  0.00  0.00    +0.000 C 
BRANCH  17  18
ATOM     18  O   UNL     1      49.096   7.902  14.640  0.00  0.00    +0.000 OA
BRANCH  18  22
ATOM     19  C   UNL     1      48.009   4.714  16.964  0.00  0.00    +0.000 A 
ATOM     20  C   UNL     1      48.560   5.817  17.593  0.00  0.00    +0.000 A 
ATOM     21  C   UNL     1      48.940   6.907  16.805  0.00  0.00    +0.000 A 
ATOM     22  C   UNL     1      48.744   6.827  15.436  0.00  0.00    +0.000 A 
ATOM     23  N   UNL     1      48.210   5.722  14.859  0.00  0.00    +0.000 NA
ATOM     24  N   UNL     1      47.839   4.657  15.623  0.00  0.00    +0.000 NA
BRANCH  19  26
ATOM     25  N   UNL     1      48.315   3.145  18.799  0.00  0.00    +0.000 N 
ATOM     26  C   UNL     1      47.550   3.521  17.731  0.00  0.00    +0.000 C 
ATOM     27  O   UNL     1      46.530   2.910  17.425  0.00  0.00    +0.000 OA
ATOM     28  H   UNL     1      48.009   2.368  19.366  0.00  0.00    +0.000 HD
ATOM     29  H   UNL     1      49.096   3.712  19.110  0.00  0.00    +0.000 HD
ENDBRANCH  19  26
ENDBRANCH  18  22
ENDBRANCH  17  18
ENDBRANCH   1  17
TORSDOF 7
ENDMDL
