MODEL 1
REMARK VINA RESULT:    -8.264      0.000      0.000
REMARK INTER + INTRA:         -12.237
REMARK INTER:                 -11.163
REMARK INTRA:                  -1.074
REMARK UNBOUND:                -1.074
REMARK  Name = 
REMARK  6 active torsions:
REMARK  status: ('A' for Active; 'I' for Inactive)
REMARK    1  A    between atoms: C_2  and  C_4
REMARK    2  A    between atoms: C_7  and  O_8
REMARK    3  A    between atoms: O_8  and  C_9
REMARK    4  A    between atoms: C_9  and  C_10
REMARK    5  A    between atoms: C_10  and  C_11
REMARK    6  A    between atoms: C_15  and  C_16
REMARK                            x       y       z     vdW  Elec       q    Type
REMARK                         _______ _______ _______ _____ _____    ______ ____
ROOT
ATOM      1  C   UNL     1      43.256   4.787  10.887  0.00  0.00    +0.000 C 
ENDROOT
BRANCH   1   2
ATOM      2  O   UNL     1      43.485   3.386  10.651  0.00  0.00    +0.000 OA
BRANCH   2   6
ATOM      3  C   UNL     1      46.325   2.814   7.709  0.00  0.00    +0.000 A 
ATOM      4  C   UNL     1      45.899   4.109   8.008  0.00  0.00    +0.000 A 
ATOM      5  C   UNL     1      44.932   4.299   9.002  0.00  0.00    +0.000 A 
ATOM      6  C   UNL     1      44.428   3.184   9.658  0.00  0.00    +0.000 A 
ATOM      7  N   UNL     1      44.817   1.923   9.373  0.00  0.00    +0.000 NA
ATOM      8  C   UNL     1      45.746   1.761   8.402  0.00  0.00    +0.000 A 
BRANCH   3  10
ATOM      9  N   UNL     1      47.274   3.191   5.514  0.00  0.00    +0.000 N 
ATOM     10  C   UNL     1      47.349   2.505   6.694  0.00  0.00    +0.000 C 
ATOM     11  O   UNL     1      48.249   1.707   6.912  0.00  0.00    +0.000 OA
ATOM     12  H   UNL     1      48.054   3.058   4.873  0.00  0.00    +0.000 HD
ATOM     13  H   UNL     1      46.724   4.026   5.404  0.00  0.00    +0.000 HD
ENDBRANCH   3  10
ENDBRANCH   2   6
ENDBRANCH   1   2
BRANCH   1  14
ATOM     14  C   UNL     1      43.505   5.125  12.359  0.00  0.00    +0.000 C 
BRANCH  14  15
ATOM     15  C   UNL     1      44.973   5.368  12.633  0.00  0.00    +0.000 A 
ATOM     16  C   UNL     1      45.692   6.330  11.916  0.00  0.00    +0.000 A 
ATOM     17  C   UNL     1      47.026   6.595  12.231  0.00  0.00    +0.000 A 
ATOM     18  C   UNL     1      47.639   5.935  13.297  0.00  0.00    +0.000 A 
ATOM     19  C   UNL     1      46.938   4.990  14.063  0.00  0.00    +0.000 A 
ATOM     20  C   UNL     1      45.613   4.694  13.684  0.00  0.00    +0.000 A 
BRANCH  19  21
ATOM     21  C   UNL     1      47.542   4.400  15.274  0.00  0.00    +0.000 A 
ATOM     22  C   UNL     1      48.000   5.172  16.337  0.00  0.00    +0.000 A 
ATOM     23  C   UNL     1      48.649   4.550  17.403  0.00  0.00    +0.000 A 
ATOM     24  C   UNL     1      48.819   3.174  17.385  0.00  0.00    +0.000 A 
ATOM     25  C   UNL     1      48.325   2.471  16.302  0.00  0.00    +0.000 A 
ATOM     26  N   UNL     1      47.689   3.049  15.259  0.00  0.00    +0.000 NA
ENDBRANCH  19  21
ENDBRANCH  14  15
ENDBRANCH   1  14
TORSDOF 6
ENDMDL
MODEL 2
REMARK VINA RESULT:    -7.737      2.340      4.146
REMARK INTER + INTRA:         -11.525
REMARK INTER:                 -10.450
REMARK INTRA:                  -1.075
REMARK UNBOUND:                -1.074
REMARK  Name = 
REMARK  6 active torsions:
REMARK  status: ('A' for Active; 'I' for Inactive)
REMARK    1  A    between atoms: C_2  and  C_4
REMARK    2  A    between atoms: C_7  and  O_8
REMARK    3  A    between atoms: O_8  and  C_9
REMARK    4  A    between atoms: C_9  and  C_10
REMARK    5  A    between atoms: C_10  and  C_11
REMARK    6  A    between atoms: C_15  and  C_16
REMARK                            x       y       z     vdW  Elec       q    Type
REMARK                         _______ _______ _______ _____ _____    ______ ____
ROOT
ATOM      1  C   UNL     1      43.139   4.474  11.290  0.00  0.00    +0.000 C 
ENDROOT
BRANCH   1   2
ATOM      2  O   UNL     1      43.290   3.127  10.808  0.00  0.00    +0.000 OA
BRANCH   2   6
ATOM      3  C   UNL     1      46.169   2.916   7.856  0.00  0.00    +0.000 A 
ATOM      4  C   UNL     1      45.710   4.165   8.278  0.00  0.00    +0.000 A 
ATOM      5  C   UNL     1      44.730   4.232   9.274  0.00  0.00    +0.000 A 
ATOM      6  C   UNL     1      44.247   3.047   9.811  0.00  0.00    +0.000 A 
ATOM      7  N   UNL     1      44.668   1.829   9.406  0.00  0.00    +0.000 NA
ATOM      8  C   UNL     1      45.609   1.787   8.434  0.00  0.00    +0.000 A 
BRANCH   3  10
ATOM      9  N   UNL     1      47.095   3.489   5.694  0.00  0.00    +0.000 N 
ATOM     10  C   UNL     1      47.209   2.733   6.827  0.00  0.00    +0.000 C 
ATOM     11  O   UNL     1      48.154   1.976   6.996  0.00  0.00    +0.000 OA
ATOM     12  H   UNL     1      47.882   3.443   5.048  0.00  0.00    +0.000 HD
ATOM     13  H   UNL     1      46.498   4.297   5.636  0.00  0.00    +0.000 HD
ENDBRANCH   3  10
ENDBRANCH   2   6
ENDBRANCH   1   2
BRANCH   1  14
ATOM     14  C   UNL     1      43.474   4.546  12.782  0.00  0.00    +0.000 C 
BRANCH  14  15
ATOM     15  C   UNL     1      44.794   5.243  13.023  0.00  0.00    +0.000 A 
ATOM     16  C   UNL     1      45.919   4.531  13.452  0.00  0.00    +0.000 A 
ATOM     17  C   UNL     1      47.149   5.173  13.599  0.00  0.00    +0.000 A 
ATOM     18  C   UNL     1      47.277   6.524  13.271  0.00  0.00    +0.000 A 
ATOM     19  C   UNL     1      46.180   7.263  12.801  0.00  0.00    +0.000 A 
ATOM     20  C   UNL     1      44.934   6.606  12.724  0.00  0.00    +0.000 A 
BRANCH  19  21
ATOM     21  C   UNL     1      46.350   8.649  12.321  0.00  0.00    +0.000 A 
ATOM     22  C   UNL     1      47.599   9.234  12.146  0.00  0.00    +0.000 A 
ATOM     23  C   UNL     1      47.678  10.579  11.785  0.00  0.00    +0.000 A 
ATOM     24  C   UNL     1      46.510  11.303  11.601  0.00  0.00    +0.000 A 
ATOM     25  C   UNL     1      45.304  10.650  11.780  0.00  0.00    +0.000 A 
ATOM     26  N   UNL     1      45.200   9.348  12.125  0.00  0.00    +0.000 NA
ENDBRANCH  19  21
ENDBRANCH  14  15
ENDBRANCH   1  14
TORSDOF 6
ENDMDL
MODEL 3
REMARK VINA RESULT:    -7.399      2.201      3.765
REMARK INTER + INTRA:         -11.069
REMARK INTER:                 -10.307
REMARK INTRA:                  -0.762
REMARK UNBOUND:                -1.074
REMARK  Name = 
REMARK  6 active torsions:
REMARK  status: ('A' for Active; 'I' for Inactive)
REMARK    1  A    between atoms: C_2  and  C_4
REMARK    2  A    between atoms: C_7  and  O_8
REMARK    3  A    between atoms: O_8  and  C_9
REMARK    4  A    between atoms: C_9  and  C_10
REMARK    5  A    between atoms: C_10  and  C_11
REMARK    6  A    between atoms: C_15  and  C_16
REMARK                            x       y       z     vdW  Elec       q    Type
REMARK                         _______ _______ _______ _____ _____    ______ ____
ROOT
ATOM      1  C   UNL     1      44.228   3.550  11.274  0.00  0.00    +0.000 C 
ENDROOT
BRANCH   1   2
ATOM      2  O   UNL     1      43.660   3.219   9.994  0.00  0.00    +0.000 OA
BRANCH   2   6
ATOM      3  C   UNL     1      46.606   2.335   7.239  0.00  0.00    +0.000 A 
ATOM      4  C   UNL     1      46.027   3.605   7.239  0.00  0.00    +0.000 A 
ATOM      5  C   UNL     1      45.024   3.899   8.171  0.00  0.00    +0.000 A 
ATOM      6  C   UNL     1      44.640   2.910   9.066  0.00  0.00    +0.000 A 
ATOM      7  N   UNL     1      45.179   1.672   9.072  0.00  0.00    +0.000 NA
ATOM      8  C   UNL     1      46.140   1.405   8.157  0.00  0.00    +0.000 A 
BRANCH   3  10
ATOM      9  N   UNL     1      48.853   2.623   6.385  0.00  0.00    +0.000 N 
ATOM     10  C   UNL     1      47.679   1.926   6.314  0.00  0.00    +0.000 C 
ATOM     11  O   UNL     1      47.545   0.980   5.552  0.00  0.00    +0.000 OA
ATOM     12  H   UNL     1      49.623   2.254   5.830  0.00  0.00    +0.000 HD
ATOM     13  H   UNL     1      49.088   3.215   7.164  0.00  0.00    +0.000 HD
ENDBRANCH   3  10
ENDBRANCH   2   6
ENDBRANCH   1   2
BRANCH   1  14
ATOM     14  C   UNL     1      44.370   5.068  11.415  0.00  0.00    +0.000 C 
BRANCH  14  15
ATOM     15  C   UNL     1      45.534   5.437  12.309  0.00  0.00    +0.000 A 
ATOM     16  C   UNL     1      45.860   4.662  13.427  0.00  0.00    +0.000 A 
ATOM     17  C   UNL     1      46.980   4.971  14.199  0.00  0.00    +0.000 A 
ATOM     18  C   UNL     1      47.814   6.029  13.832  0.00  0.00    +0.000 A 
ATOM     19  C   UNL     1      47.540   6.807  12.695  0.00  0.00    +0.000 A 
ATOM     20  C   UNL     1      46.367   6.514  11.970  0.00  0.00    +0.000 A 
BRANCH  19  21
ATOM     21  C   UNL     1      48.497   7.830  12.230  0.00  0.00    +0.000 A 
ATOM     22  C   UNL     1      48.120   9.141  11.959  0.00  0.00    +0.000 A 
ATOM     23  C   UNL     1      49.060  10.025  11.428  0.00  0.00    +0.000 A 
ATOM     24  C   UNL     1      50.351   9.580  11.188  0.00  0.00    +0.000 A 
ATOM     25  C   UNL     1      50.656   8.267  11.496  0.00  0.00    +0.000 A 
ATOM     26  N   UNL     1      49.766   7.393  12.015  0.00  0.00    +0.000 NA
ENDBRANCH  19  21
ENDBRANCH  14  15
ENDBRANCH   1  14
TORSDOF 6
ENDMDL
MODEL 4
REMARK VINA RESULT:    -7.152      3.301      5.488
REMARK INTER + INTRA:         -10.735
REMARK INTER:                 -10.024
REMARK INTRA:                  -0.711
REMARK UNBOUND:                -1.074
REMARK  Name = 
REMARK  6 active torsions:
REMARK  status: ('A' for Active; 'I' for Inactive)
REMARK    1  A    between atoms: C_2  and  C_4
REMARK    2  A    between atoms: C_7  and  O_8
REMARK    3  A    between atoms: O_8  and  C_9
REMARK    4  A    between atoms: C_9  and  C_10
REMARK    5  A    between atoms: C_10  and  C_11
REMARK    6  A    between atoms: C_15  and  C_16
REMARK                            x       y       z     vdW  Elec       q    Type
REMARK                         _______ _______ _______ _____ _____    ______ ____
ROOT
ATOM      1  C   UNL     1      43.987   4.898  10.380  0.00  0.00    +0.000 C 
ENDROOT
BRANCH   1   2
ATOM      2  O   UNL     1      43.705   3.590   9.851  0.00  0.00    +0.000 OA
BRANCH   2   6
ATOM      3  C   UNL     1      46.642   2.293   7.254  0.00  0.00    +0.000 A 
ATOM      4  C   UNL     1      46.097   1.397   8.176  0.00  0.00    +0.000 A 
ATOM      5  C   UNL     1      45.106   1.842   9.059  0.00  0.00    +0.000 A 
ATOM      6  C   UNL     1      44.698   3.167   8.984  0.00  0.00    +0.000 A 
ATOM      7  N   UNL     1      45.223   4.052   8.110  0.00  0.00    +0.000 NA
ATOM      8  C   UNL     1      46.187   3.603   7.272  0.00  0.00    +0.000 A 
BRANCH   3  10
ATOM      9  N   UNL     1      48.809   2.691   6.250  0.00  0.00    +0.000 N 
ATOM     10  C   UNL     1      47.677   1.925   6.270  0.00  0.00    +0.000 C 
ATOM     11  O   UNL     1      47.551   0.954   5.539  0.00  0.00    +0.000 OA
ATOM     12  H   UNL     1      49.563   2.354   5.654  0.00  0.00    +0.000 HD
ATOM     13  H   UNL     1      49.057   3.315   7.000  0.00  0.00    +0.000 HD
ENDBRANCH   3  10
ENDBRANCH   2   6
ENDBRANCH   1   2
BRANCH   1  14
ATOM     14  C   UNL     1      45.085   4.815  11.444  0.00  0.00    +0.000 C 
BRANCH  14  15
ATOM     15  C   UNL     1      45.450   6.184  11.975  0.00  0.00    +0.000 A 
ATOM     16  C   UNL     1      46.583   6.370  12.775  0.00  0.00    +0.000 A 
ATOM     17  C   UNL     1      46.949   7.649  13.195  0.00  0.00    +0.000 A 
ATOM     18  C   UNL     1      46.212   8.760  12.781  0.00  0.00    +0.000 A 
ATOM     19  C   UNL     1      45.091   8.617  11.948  0.00  0.00    +0.000 A 
ATOM     20  C   UNL     1      44.706   7.309  11.590  0.00  0.00    +0.000 A 
BRANCH  19  21
ATOM     21  C   UNL     1      44.402   9.800  11.396  0.00  0.00    +0.000 A 
ATOM     22  C   UNL     1      43.248   9.705  10.627  0.00  0.00    +0.000 A 
ATOM     23  C   UNL     1      42.710  10.860  10.058  0.00  0.00    +0.000 A 
ATOM     24  C   UNL     1      43.334  12.079  10.276  0.00  0.00    +0.000 A 
ATOM     25  C   UNL     1      44.470  12.097  11.064  0.00  0.00    +0.000 A 
ATOM     26  N   UNL     1      45.008  10.995  11.630  0.00  0.00    +0.000 NA
ENDBRANCH  19  21
ENDBRANCH  14  15
ENDBRANCH   1  14
TORSDOF 6
ENDMDL
MODEL 5
REMARK VINA RESULT:    -7.079      2.424      7.634
REMARK INTER + INTRA:         -10.636
REMARK INTER:                  -9.566
REMARK INTRA:                  -1.070
REMARK UNBOUND:                -1.074
REMARK  Name = 
REMARK  6 active torsions:
REMARK  status: ('A' for Active; 'I' for Inactive)
REMARK    1  A    between atoms: C_2  and  C_4
REMARK    2  A    between atoms: C_7  and  O_8
REMARK    3  A    between atoms: O_8  and  C_9
REMARK    4  A    between atoms: C_9  and  C_10
REMARK    5  A    between atoms: C_10  and  C_11
REMARK    6  A    between atoms: C_15  and  C_16
REMARK                            x       y       z     vdW  Elec       q    Type
REMARK                         _______ _______ _______ _____ _____    ______ ____
ROOT
ATOM      1  C   UNL     1      45.572   6.893  12.354  0.00  0.00    +0.000 C 
ENDROOT
BRANCH   1   2
ATOM      2  O   UNL     1      46.881   6.296  12.337  0.00  0.00    +0.000 OA
BRANCH   2   6
ATOM      3  C   UNL     1      47.695   4.249  15.829  0.00  0.00    +0.000 A 
ATOM      4  C   UNL     1      46.978   3.614  14.814  0.00  0.00    +0.000 A 
ATOM      5  C   UNL     1      46.698   4.313  13.634  0.00  0.00    +0.000 A 
ATOM      6  C   UNL     1      47.148   5.621  13.516  0.00  0.00    +0.000 A 
ATOM      7  N   UNL     1      47.831   6.257  14.492  0.00  0.00    +0.000 NA
ATOM      8  C   UNL     1      48.082   5.565  15.629  0.00  0.00    +0.000 A 
BRANCH   3  10
ATOM      9  N   UNL     1      47.337   3.962  18.206  0.00  0.00    +0.000 N 
ATOM     10  C   UNL     1      48.057   3.600  17.103  0.00  0.00    +0.000 C 
ATOM     11  O   UNL     1      48.928   2.744  17.162  0.00  0.00    +0.000 OA
ATOM     12  H   UNL     1      47.513   3.420  19.050  0.00  0.00    +0.000 HD
ATOM     13  H   UNL     1      46.458   4.449  18.147  0.00  0.00    +0.000 HD
ENDBRANCH   3  10
ENDBRANCH   2   6
ENDBRANCH   1   2
BRANCH   1  14
ATOM     14  C   UNL     1      44.868   6.667  11.014  0.00  0.00    +0.000 C 
BRANCH  14  15
ATOM     15  C   UNL     1      44.723   5.193  10.703  0.00  0.00    +0.000 A 
ATOM     16  C   UNL     1      43.743   4.416  11.330  0.00  0.00    +0.000 A 
ATOM     17  C   UNL     1      43.573   3.076  10.980  0.00  0.00    +0.000 A 
ATOM     18  C   UNL     1      44.348   2.513   9.965  0.00  0.00    +0.000 A 
ATOM     19  C   UNL     1      45.316   3.272   9.287  0.00  0.00    +0.000 A 
ATOM     20  C   UNL     1      45.512   4.604   9.705  0.00  0.00    +0.000 A 
BRANCH  19  21
ATOM     21  C   UNL     1      46.032   2.717   8.122  0.00  0.00    +0.000 A 
ATOM     22  C   UNL     1      46.245   3.444   6.956  0.00  0.00    +0.000 A 
ATOM     23  C   UNL     1      46.842   2.819   5.861  0.00  0.00    +0.000 A 
ATOM     24  C   UNL     1      47.217   1.488   5.960  0.00  0.00    +0.000 A 
ATOM     25  C   UNL     1      46.987   0.834   7.156  0.00  0.00    +0.000 A 
ATOM     26  N   UNL     1      46.415   1.417   8.231  0.00  0.00    +0.000 NA
ENDBRANCH  19  21
ENDBRANCH  14  15
ENDBRANCH   1  14
TORSDOF 6
ENDMDL
MODEL 6
REMARK VINA RESULT:    -7.066      2.679      7.558
REMARK INTER + INTRA:         -10.619
REMARK INTER:                  -9.923
REMARK INTRA:                  -0.696
REMARK UNBOUND:                -1.074
REMARK  Name = 
REMARK  6 active torsions:
REMARK  status: ('A' for Active; 'I' for Inactive)
REMARK    1  A    between atoms: C_2  and  C_4
REMARK    2  A    between atoms: C_7  and  O_8
REMARK    3  A    between atoms: O_8  and  C_9
REMARK    4  A    between atoms: C_9  and  C_10
REMARK    5  A    between atoms: C_10  and  C_11
REMARK    6  A    between atoms: C_15  and  C_16
REMARK                            x       y       z     vdW  Elec       q    Type
REMARK                         _______ _______ _______ _____ _____    ______ ____
ROOT
ATOM      1  C   UNL     1      47.648   7.190  12.158  0.00  0.00    +0.000 C 
ENDROOT
BRANCH   1   2
ATOM      2  O   UNL     1      48.036   7.563  13.493  0.00  0.00    +0.000 OA
BRANCH   2   6
ATOM      3  C   UNL     1      47.825   4.382  16.116  0.00  0.00    +0.000 A 
ATOM      4  C   UNL     1      48.489   5.547  16.504  0.00  0.00    +0.000 A 
ATOM      5  C   UNL     1      48.564   6.621  15.610  0.00  0.00    +0.000 A 
ATOM      6  C   UNL     1      47.971   6.488  14.362  0.00  0.00    +0.000 A 
ATOM      7  N   UNL     1      47.337   5.364  13.964  0.00  0.00    +0.000 NA
ATOM      8  C   UNL     1      47.285   4.334  14.840  0.00  0.00    +0.000 A 
BRANCH   3  10
ATOM      9  N   UNL     1      48.801   2.465  17.227  0.00  0.00    +0.000 N 
ATOM     10  C   UNL     1      47.674   3.200  16.986  0.00  0.00    +0.000 C 
ATOM     11  O   UNL     1      46.604   2.917  17.504  0.00  0.00    +0.000 OA
ATOM     12  H   UNL     1      48.708   1.727  17.923  0.00  0.00    +0.000 HD
ATOM     13  H   UNL     1      49.727   2.811  17.043  0.00  0.00    +0.000 HD
ENDBRANCH   3  10
ENDBRANCH   2   6
ENDBRANCH   1   2
BRANCH   1  14
ATOM     14  C   UNL     1      46.234   7.693  11.857  0.00  0.00    +0.000 C 
BRANCH  14  15
ATOM     15  C   UNL     1      45.341   6.577  11.360  0.00  0.00    +0.000 A 
ATOM     16  C   UNL     1      43.976   6.553  11.666  0.00  0.00    +0.000 A 
ATOM     17  C   UNL     1      43.151   5.559  11.139  0.00  0.00    +0.000 A 
ATOM     18  C   UNL     1      43.674   4.607  10.262  0.00  0.00    +0.000 A 
ATOM     19  C   UNL     1      45.030   4.621   9.901  0.00  0.00    +0.000 A 
ATOM     20  C   UNL     1      45.855   5.597  10.498  0.00  0.00    +0.000 A 
BRANCH  19  21
ATOM     21  C   UNL     1      45.548   3.705   8.866  0.00  0.00    +0.000 A 
ATOM     22  C   UNL     1      45.546   2.323   9.018  0.00  0.00    +0.000 A 
ATOM     23  C   UNL     1      46.142   1.527   8.040  0.00  0.00    +0.000 A 
ATOM     24  C   UNL     1      46.719   2.130   6.933  0.00  0.00    +0.000 A 
ATOM     25  C   UNL     1      46.670   3.509   6.843  0.00  0.00    +0.000 A 
ATOM     26  N   UNL     1      46.095   4.301   7.774  0.00  0.00    +0.000 NA
ENDBRANCH  19  21
ENDBRANCH  14  15
ENDBRANCH   1  14
TORSDOF 6
ENDMDL
MODEL 7
REMARK VINA RESULT:    -6.942      3.073      8.529
REMARK INTER + INTRA:         -10.452
REMARK INTER:                  -9.875
REMARK INTRA:                  -0.577
REMARK UNBOUND:                -1.074
REMARK  Name = 
REMARK  6 active torsions:
REMARK  status: ('A' for Active; 'I' for Inactive)
REMARK    1  A    between atoms: C_2  and  C_4
REMARK    2  A    between atoms: C_7  and  O_8
REMARK    3  A    between atoms: O_8  and  C_9
REMARK    4  A    between atoms: C_9  and  C_10
REMARK    5  A    between atoms: C_10  and  C_11
REMARK    6  A    between atoms: C_15  and  C_16
REMARK                            x       y       z     vdW  Elec       q    Type
REMARK                         _______ _______ _______ _____ _____    ______ ____
ROOT
ATOM      1  C   UNL     1      47.074   4.249  13.841  0.00  0.00    +0.000 C 
ENDROOT
BRANCH   1   2
ATOM      2  O   UNL     1      47.427   3.181  14.738  0.00  0.00    +0.000 OA
BRANCH   2   6
ATOM      3  C   UNL     1      48.637   4.585  18.428  0.00  0.00    +0.000 A 
ATOM      4  C   UNL     1      48.141   3.285  18.318  0.00  0.00    +0.000 A 
ATOM      5  C   UNL     1      47.726   2.815  17.067  0.00  0.00    +0.000 A 
ATOM      6  C   UNL     1      47.824   3.664  15.973  0.00  0.00    +0.000 A 
ATOM      7  N   UNL     1      48.288   4.929  16.062  0.00  0.00    +0.000 NA
ATOM      8  C   UNL     1      48.674   5.367  17.283  0.00  0.00    +0.000 A 
BRANCH   3  10
ATOM      9  N   UNL     1      49.590   4.306  20.635  0.00  0.00    +0.000 N 
ATOM     10  C   UNL     1      49.116   5.174  19.692  0.00  0.00    +0.000 C 
ATOM     11  O   UNL     1      49.132   6.383  19.873  0.00  0.00    +0.000 OA
ATOM     12  H   UNL     1      50.029   4.731  21.450  0.00  0.00    +0.000 HD
ATOM     13  H   UNL     1      49.837   3.353  20.423  0.00  0.00    +0.000 HD
ENDBRANCH   3  10
ENDBRANCH   2   6
ENDBRANCH   1   2
BRANCH   1  14
ATOM     14  C   UNL     1      45.617   4.666  14.060  0.00  0.00    +0.000 C 
BRANCH  14  15
ATOM     15  C   UNL     1      44.835   4.657  12.766  0.00  0.00    +0.000 A 
ATOM     16  C   UNL     1      43.658   5.400  12.627  0.00  0.00    +0.000 A 
ATOM     17  C   UNL     1      42.988   5.441  11.404  0.00  0.00    +0.000 A 
ATOM     18  C   UNL     1      43.513   4.777  10.294  0.00  0.00    +0.000 A 
ATOM     19  C   UNL     1      44.712   4.052  10.385  0.00  0.00    +0.000 A 
ATOM     20  C   UNL     1      45.335   3.973  11.647  0.00  0.00    +0.000 A 
BRANCH  19  21
ATOM     21  C   UNL     1      45.338   3.472   9.180  0.00  0.00    +0.000 A 
ATOM     22  C   UNL     1      45.514   2.104   9.010  0.00  0.00    +0.000 A 
ATOM     23  C   UNL     1      46.204   1.638   7.890  0.00  0.00    +0.000 A 
ATOM     24  C   UNL     1      46.693   2.548   6.967  0.00  0.00    +0.000 A 
ATOM     25  C   UNL     1      46.468   3.893   7.195  0.00  0.00    +0.000 A 
ATOM     26  N   UNL     1      45.800   4.370   8.269  0.00  0.00    +0.000 NA
ENDBRANCH  19  21
ENDBRANCH  14  15
ENDBRANCH   1  14
TORSDOF 6
ENDMDL
MODEL 8
REMARK VINA RESULT:    -6.651      3.202      7.790
REMARK INTER + INTRA:         -10.058
REMARK INTER:                  -9.111
REMARK INTRA:                  -0.947
REMARK UNBOUND:                -1.074
REMARK  Name = 
REMARK  6 active torsions:
REMARK  status: ('A' for Active; 'I' for Inactive)
REMARK    1  A    between atoms: C_2  and  C_4
REMARK    2  A    between atoms: C_7  and  O_8
REMARK    3  A    between atoms: O_8  and  C_9
REMARK    4  A    between atoms: C_9  and  C_10
REMARK    5  A    between atoms: C_10  and  C_11
REMARK    6  A    between atoms: C_15  and  C_16
REMARK                            x       y       z     vdW  Elec       q    Type
REMARK                         _______ _______ _______ _____ _____    ______ ____
ROOT
ATOM      1  C   UNL     1      49.520   7.510  13.434  0.00  0.00    +0.000 C 
ENDROOT
BRANCH   1   2
ATOM      2  O   UNL     1      49.036   7.910  14.729  0.00  0.00    +0.000 OA
BRANCH   2   6
ATOM      3  C   UNL     1      47.920   4.679  17.044  0.00  0.00    +0.000 A 
ATOM      4  C   UNL     1      48.539   5.774  17.649  0.00  0.00    +0.000 A 
ATOM      5  C   UNL     1      48.922   6.865  16.860  0.00  0.00    +0.000 A 
ATOM      6  C   UNL     1      48.669   6.818  15.496  0.00  0.00    +0.000 A 
ATOM      7  N   UNL     1      48.084   5.762  14.890  0.00  0.00    +0.000 NA
ATOM      8  C   UNL     1      47.731   4.713  15.671  0.00  0.00    +0.000 A 
BRANCH   3  10
ATOM      9  N   UNL     1      48.197   3.122  18.877  0.00  0.00    +0.000 N 
ATOM     10  C   UNL     1      47.463   3.488  17.784  0.00  0.00    +0.000 C 
ATOM     11  O   UNL     1      46.450   2.883  17.464  0.00  0.00    +0.000 OA
ATOM     12  H   UNL     1      47.803   2.375  19.447  0.00  0.00    +0.000 HD
ATOM     13  H   UNL     1      48.861   3.736  19.317  0.00  0.00    +0.000 HD
ENDBRANCH   3  10
ENDBRANCH   2   6
ENDBRANCH   1   2
BRANCH   1  14
ATOM     14  C   UNL     1      48.892   8.380  12.341  0.00  0.00    +0.000 C 
BRANCH  14  15
ATOM     15  C   UNL     1      47.434   8.039  12.129  0.00  0.00    +0.000 A 
ATOM     16  C   UNL     1      46.426   8.966  12.417  0.00  0.00    +0.000 A 
ATOM     17  C   UNL     1      45.091   8.665  12.146  0.00  0.00    +0.000 A 
ATOM     18  C   UNL     1      44.754   7.454  11.539  0.00  0.00    +0.000 A 
ATOM     19  C   UNL     1      45.741   6.515  11.201  0.00  0.00    +0.000 A 
ATOM     20  C   UNL     1      47.075   6.815  11.544  0.00  0.00    +0.000 A 
BRANCH  19  21
ATOM     21  C   UNL     1      45.399   5.302  10.432  0.00  0.00    +0.000 A 
ATOM     22  C   UNL     1      44.757   4.208  11.002  0.00  0.00    +0.000 A 
ATOM     23  C   UNL     1      44.556   3.059  10.237  0.00  0.00    +0.000 A 
ATOM     24  C   UNL     1      44.994   3.034   8.922  0.00  0.00    +0.000 A 
ATOM     25  C   UNL     1      45.612   4.164   8.419  0.00  0.00    +0.000 A 
ATOM     26  N   UNL     1      45.814   5.290   9.138  0.00  0.00    +0.000 NA
ENDBRANCH  19  21
ENDBRANCH  14  15
ENDBRANCH   1  14
TORSDOF 6
ENDMDL
MODEL 9
REMARK VINA RESULT:    -6.563      3.389      8.047
REMARK INTER + INTRA:          -9.940
REMARK INTER:                  -9.306
REMARK INTRA:                  -0.634
REMARK UNBOUND:                -1.074
REMARK  Name = 
REMARK  6 active torsions:
REMARK  status: ('A' for Active; 'I' for Inactive)
REMARK    1  A    between atoms: C_2  and  C_4
REMARK    2  A    between atoms: C_7  and  O_8
REMARK    3  A    between atoms: O_8  and  C_9
REMARK    4  A    between atoms: C_9  and  C_10
REMARK    5  A    between atoms: C_10  and  C_11
REMARK    6  A    between atoms: C_15  and  C_16
REMARK                            x       y       z     vdW  Elec       q    Type
REMARK                         _______ _______ _______ _____ _____    ______ ____
ROOT
ATOM      1  C   UNL     1      47.233   4.469  14.869  0.00  0.00    +0.000 C 
ENDROOT
BRANCH   1   2
ATOM      2  O   UNL     1      47.420   4.425  16.295  0.00  0.00    +0.000 OA
BRANCH   2   6
ATOM      3  C   UNL     1      50.856   2.398  17.357  0.00  0.00    +0.000 A 
ATOM      4  C   UNL     1      50.682   3.718  17.776  0.00  0.00    +0.000 A 
ATOM      5  C   UNL     1      49.518   4.404  17.409  0.00  0.00    +0.000 A 
ATOM      6  C   UNL     1      48.574   3.741  16.637  0.00  0.00    +0.000 A 
ATOM      7  N   UNL     1      48.731   2.470  16.211  0.00  0.00    +0.000 NA
ATOM      8  C   UNL     1      49.868   1.828  16.569  0.00  0.00    +0.000 A 
BRANCH   3  10
ATOM      9  N   UNL     1      51.803   0.278  18.043  0.00  0.00    +0.000 N 
ATOM     10  C   UNL     1      52.035   1.581  17.701  0.00  0.00    +0.000 C 
ATOM     11  O   UNL     1      53.169   2.031  17.639  0.00  0.00    +0.000 OA
ATOM     12  H   UNL     1      52.630  -0.305  18.158  0.00  0.00    +0.000 HD
ATOM     13  H   UNL     1      50.933  -0.189  17.848  0.00  0.00    +0.000 HD
ENDBRANCH   3  10
ENDBRANCH   2   6
ENDBRANCH   1   2
BRANCH   1  14
ATOM     14  C   UNL     1      47.505   5.880  14.342  0.00  0.00    +0.000 C 
BRANCH  14  15
ATOM     15  C   UNL     1      46.555   6.248  13.224  0.00  0.00    +0.000 A 
ATOM     16  C   UNL     1      46.076   7.555  13.084  0.00  0.00    +0.000 A 
ATOM     17  C   UNL     1      45.260   7.897  12.005  0.00  0.00    +0.000 A 
ATOM     18  C   UNL     1      44.955   6.948  11.029  0.00  0.00    +0.000 A 
ATOM     19  C   UNL     1      45.447   5.636  11.115  0.00  0.00    +0.000 A 
ATOM     20  C   UNL     1      46.216   5.299  12.248  0.00  0.00    +0.000 A 
BRANCH  19  21
ATOM     21  C   UNL     1      45.242   4.676  10.012  0.00  0.00    +0.000 A 
ATOM     22  C   UNL     1      44.536   3.489  10.171  0.00  0.00    +0.000 A 
ATOM     23  C   UNL     1      44.470   2.587   9.110  0.00  0.00    +0.000 A 
ATOM     24  C   UNL     1      45.102   2.895   7.915  0.00  0.00    +0.000 A 
ATOM     25  C   UNL     1      45.772   4.101   7.825  0.00  0.00    +0.000 A 
ATOM     26  N   UNL     1      45.848   4.993   8.837  0.00  0.00    +0.000 NA
ENDBRANCH  19  21
ENDBRANCH  14  15
ENDBRANCH   1  14
TORSDOF 6
ENDMDL
