MODEL 1
REMARK VINA RESULT:    -7.307      0.000      0.000
REMARK INTER + INTRA:         -10.307
REMARK INTER:                  -9.443
REMARK INTRA:                  -0.863
REMARK UNBOUND:                -0.863
REMARK  Name = 
REMARK  5 active torsions:
REMARK  status: ('A' for Active; 'I' for Inactive)
REMARK    1  A    between atoms: C_4  and  O_5
REMARK    2  A    between atoms: O_5  and  C_6
REMARK    3  A    between atoms: C_6  and  C_7
REMARK    4  A    between atoms: C_11  and  C_12
REMARK    5  A    between atoms: C_18  and  C_19
REMARK                            x       y       z     vdW  Elec       q    Type
REMARK                         _______ _______ _______ _____ _____    ______ ____
ROOT
ATOM      1  F   UNL     1      46.767   4.624  15.020  0.00  0.00    +0.000 F 
ATOM      2  C   UNL     1      46.645   5.166  13.798  0.00  0.00    +0.000 A 
ATOM      3  C   UNL     1      45.678   4.670  12.933  0.00  0.00    +0.000 A 
ATOM      4  C   UNL     1      45.518   5.244  11.675  0.00  0.00    +0.000 A 
ATOM      5  C   UNL     1      46.376   6.282  11.290  0.00  0.00    +0.000 A 
ATOM      6  C   UNL     1      47.355   6.802  12.170  0.00  0.00    +0.000 A 
ATOM      7  C   UNL     1      47.474   6.227  13.439  0.00  0.00    +0.000 A 
ENDROOT
BRANCH   6   8
ATOM      8  C   UNL     1      48.181   7.996  11.717  0.00  0.00    +0.000 C 
ATOM      9  C   UNL     1      49.694   7.735  11.585  0.00  0.00    +0.000 C 
ATOM     10  C   UNL     1      50.565   8.303  12.705  0.00  0.00    +0.000 C 
ATOM     11  N   UNL     1      50.172   9.654  13.083  0.00  0.00    +0.000 NA
ATOM     12  C   UNL     1      48.806   9.644  13.598  0.00  0.00    +0.000 C 
ATOM     13  C   UNL     1      47.814   9.270  12.504  0.00  0.00    +0.000 C 
ATOM     14  H   UNL     1      50.230  10.273  12.272  0.00  0.00    +0.000 HD
ENDBRANCH   6   8
BRANCH   4  15
ATOM     15  O   UNL     1      44.508   4.730  10.910  0.00  0.00    +0.000 OA
BRANCH  15  16
ATOM     16  C   UNL     1      44.679   4.847   9.494  0.00  0.00    +0.000 C 
BRANCH  16  17
ATOM     17  C   UNL     1      45.251   3.578   8.917  0.00  0.00    +0.000 A 
ATOM     18  C   UNL     1      44.851   2.345   9.425  0.00  0.00    +0.000 A 
ATOM     19  N   UNL     1      45.289   1.152   8.966  0.00  0.00    +0.000 NA
ATOM     20  C   UNL     1      46.171   1.177   7.941  0.00  0.00    +0.000 A 
ATOM     21  C   UNL     1      46.627   2.343   7.344  0.00  0.00    +0.000 A 
ATOM     22  C   UNL     1      46.145   3.562   7.842  0.00  0.00    +0.000 A 
BRANCH  21  23
ATOM     23  C   UNL     1      47.601   2.288   6.208  0.00  0.00    +0.000 C 
ATOM     24  F   UNL     1      47.257   3.079   5.154  0.00  0.00    +0.000 F 
ATOM     25  F   UNL     1      48.852   2.684   6.576  0.00  0.00    +0.000 F 
ATOM     26  F   UNL     1      47.742   1.032   5.700  0.00  0.00    +0.000 F 
ENDBRANCH  21  23
ENDBRANCH  16  17
ENDBRANCH  15  16
ENDBRANCH   4  15
TORSDOF 5
ENDMDL
MODEL 2
REMARK VINA RESULT:    -7.020      4.573      8.412
REMARK INTER + INTRA:          -9.935
REMARK INTER:                  -9.066
REMARK INTRA:                  -0.870
REMARK UNBOUND:                -0.863
REMARK  Name = 
REMARK  5 active torsions:
REMARK  status: ('A' for Active; 'I' for Inactive)
REMARK    1  A    between atoms: C_4  and  O_5
REMARK    2  A    between atoms: O_5  and  C_6
REMARK    3  A    between atoms: C_6  and  C_7
REMARK    4  A    between atoms: C_11  and  C_12
REMARK    5  A    between atoms: C_18  and  C_19
REMARK                            x       y       z     vdW  Elec       q    Type
REMARK                         _______ _______ _______ _____ _____    ______ ____
ROOT
ATOM      1  F   UNL     1      46.052   9.282  12.038  0.00  0.00    +0.000 F 
ATOM      2  C   UNL     1      46.359   8.075  12.539  0.00  0.00    +0.000 A 
ATOM      3  C   UNL     1      47.629   7.865  13.063  0.00  0.00    +0.000 A 
ATOM      4  C   UNL     1      47.950   6.629  13.616  0.00  0.00    +0.000 A 
ATOM      5  C   UNL     1      46.996   5.603  13.583  0.00  0.00    +0.000 A 
ATOM      6  C   UNL     1      45.697   5.814  13.064  0.00  0.00    +0.000 A 
ATOM      7  C   UNL     1      45.390   7.074  12.543  0.00  0.00    +0.000 A 
ENDROOT
BRANCH   6   8
ATOM      8  C   UNL     1      44.684   4.683  13.156  0.00  0.00    +0.000 C 
ATOM      9  C   UNL     1      45.053   3.406  12.376  0.00  0.00    +0.000 C 
ATOM     10  C   UNL     1      44.298   3.188  11.066  0.00  0.00    +0.000 C 
ATOM     11  N   UNL     1      42.877   3.482  11.189  0.00  0.00    +0.000 NA
ATOM     12  C   UNL     1      42.693   4.889  11.532  0.00  0.00    +0.000 C 
ATOM     13  C   UNL     1      43.247   5.188  12.919  0.00  0.00    +0.000 C 
ATOM     14  H   UNL     1      42.461   2.894  11.913  0.00  0.00    +0.000 HD
ENDBRANCH   6   8
BRANCH   4  15
ATOM     15  O   UNL     1      49.202   6.525  14.157  0.00  0.00    +0.000 OA
BRANCH  15  16
ATOM     16  C   UNL     1      49.436   7.302  15.336  0.00  0.00    +0.000 C 
BRANCH  16  17
ATOM     17  C   UNL     1      48.887   6.605  16.554  0.00  0.00    +0.000 A 
ATOM     18  C   UNL     1      48.445   7.355  17.641  0.00  0.00    +0.000 A 
ATOM     19  N   UNL     1      47.919   6.827  18.769  0.00  0.00    +0.000 NA
ATOM     20  C   UNL     1      47.821   5.480  18.825  0.00  0.00    +0.000 A 
ATOM     21  C   UNL     1      48.212   4.633  17.799  0.00  0.00    +0.000 A 
ATOM     22  C   UNL     1      48.746   5.216  16.641  0.00  0.00    +0.000 A 
BRANCH  21  23
ATOM     23  C   UNL     1      48.066   3.150  17.936  0.00  0.00    +0.000 C 
ATOM     24  F   UNL     1      48.901   2.440  17.127  0.00  0.00    +0.000 F 
ATOM     25  F   UNL     1      48.320   2.716  19.202  0.00  0.00    +0.000 F 
ATOM     26  F   UNL     1      46.808   2.718  17.641  0.00  0.00    +0.000 F 
ENDBRANCH  21  23
ENDBRANCH  16  17
ENDBRANCH  15  16
ENDBRANCH   4  15
TORSDOF 5
ENDMDL
MODEL 3
REMARK VINA RESULT:    -6.917      1.875      2.444
REMARK INTER + INTRA:          -9.802
REMARK INTER:                  -9.156
REMARK INTRA:                  -0.646
REMARK UNBOUND:                -0.863
REMARK  Name = 
REMARK  5 active torsions:
REMARK  status: ('A' for Active; 'I' for Inactive)
REMARK    1  A    between atoms: C_4  and  O_5
REMARK    2  A    between atoms: O_5  and  C_6
REMARK    3  A    between atoms: C_6  and  C_7
REMARK    4  A    between atoms: C_11  and  C_12
REMARK    5  A    between atoms: C_18  and  C_19
REMARK                            x       y       z     vdW  Elec       q    Type
REMARK                         _______ _______ _______ _____ _____    ______ ____
ROOT
ATOM      1  F   UNL     1      43.108   4.177  12.982  0.00  0.00    +0.000 F 
ATOM      2  C   UNL     1      43.989   5.010  12.407  0.00  0.00    +0.000 A 
ATOM      3  C   UNL     1      44.516   4.681  11.164  0.00  0.00    +0.000 A 
ATOM      4  C   UNL     1      45.406   5.551  10.541  0.00  0.00    +0.000 A 
ATOM      5  C   UNL     1      45.791   6.720  11.209  0.00  0.00    +0.000 A 
ATOM      6  C   UNL     1      45.248   7.069  12.469  0.00  0.00    +0.000 A 
ATOM      7  C   UNL     1      44.333   6.192  13.059  0.00  0.00    +0.000 A 
ENDROOT
BRANCH   6   8
ATOM      8  C   UNL     1      45.637   8.404  13.085  0.00  0.00    +0.000 C 
ATOM      9  C   UNL     1      45.026   9.644  12.403  0.00  0.00    +0.000 C 
ATOM     10  C   UNL     1      45.973  10.445  11.512  0.00  0.00    +0.000 C 
ATOM     11  N   UNL     1      47.287  10.622  12.116  0.00  0.00    +0.000 NA
ATOM     12  C   UNL     1      47.918   9.320  12.310  0.00  0.00    +0.000 C 
ATOM     13  C   UNL     1      47.155   8.492  13.336  0.00  0.00    +0.000 C 
ATOM     14  H   UNL     1      47.196  11.098  13.015  0.00  0.00    +0.000 HD
ENDBRANCH   6   8
BRANCH   4  15
ATOM     15  O   UNL     1      45.834   5.176   9.297  0.00  0.00    +0.000 OA
BRANCH  15  16
ATOM     16  C   UNL     1      44.920   4.377   8.539  0.00  0.00    +0.000 C 
BRANCH  16  17
ATOM     17  C   UNL     1      45.604   3.148   7.999  0.00  0.00    +0.000 A 
ATOM     18  C   UNL     1      45.713   2.010   8.795  0.00  0.00    +0.000 A 
ATOM     19  N   UNL     1      46.289   0.854   8.398  0.00  0.00    +0.000 NA
ATOM     20  C   UNL     1      46.784   0.817   7.140  0.00  0.00    +0.000 A 
ATOM     21  C   UNL     1      46.717   1.881   6.252  0.00  0.00    +0.000 A 
ATOM     22  C   UNL     1      46.105   3.062   6.696  0.00  0.00    +0.000 A 
BRANCH  21  23
ATOM     23  C   UNL     1      47.284   1.760   4.872  0.00  0.00    +0.000 C 
ATOM     24  F   UNL     1      46.349   1.866   3.886  0.00  0.00    +0.000 F 
ATOM     25  F   UNL     1      48.214   2.718   4.605  0.00  0.00    +0.000 F 
ATOM     26  F   UNL     1      47.907   0.567   4.665  0.00  0.00    +0.000 F 
ENDBRANCH  21  23
ENDBRANCH  16  17
ENDBRANCH  15  16
ENDBRANCH   4  15
TORSDOF 5
ENDMDL
MODEL 4
REMARK VINA RESULT:    -6.894      4.430      8.225
REMARK INTER + INTRA:          -9.772
REMARK INTER:                  -8.845
REMARK INTRA:                  -0.927
REMARK UNBOUND:                -0.863
REMARK  Name = 
REMARK  5 active torsions:
REMARK  status: ('A' for Active; 'I' for Inactive)
REMARK    1  A    between atoms: C_4  and  O_5
REMARK    2  A    between atoms: O_5  and  C_6
REMARK    3  A    between atoms: C_6  and  C_7
REMARK    4  A    between atoms: C_11  and  C_12
REMARK    5  A    between atoms: C_18  and  C_19
REMARK                            x       y       z     vdW  Elec       q    Type
REMARK                         _______ _______ _______ _____ _____    ______ ____
ROOT
ATOM      1  F   UNL     1      45.835   9.829  12.221  0.00  0.00    +0.000 F 
ATOM      2  C   UNL     1      45.940   8.491  12.232  0.00  0.00    +0.000 A 
ATOM      3  C   UNL     1      47.074   7.907  12.784  0.00  0.00    +0.000 A 
ATOM      4  C   UNL     1      47.181   6.520  12.832  0.00  0.00    +0.000 A 
ATOM      5  C   UNL     1      46.160   5.742  12.272  0.00  0.00    +0.000 A 
ATOM      6  C   UNL     1      44.996   6.329  11.720  0.00  0.00    +0.000 A 
ATOM      7  C   UNL     1      44.900   7.723  11.713  0.00  0.00    +0.000 A 
ENDROOT
BRANCH   6   8
ATOM      8  C   UNL     1      43.885   5.415  11.225  0.00  0.00    +0.000 C 
ATOM      9  C   UNL     1      43.170   4.599  12.319  0.00  0.00    +0.000 C 
ATOM     10  C   UNL     1      43.549   3.121  12.398  0.00  0.00    +0.000 C 
ATOM     11  N   UNL     1      43.639   2.500  11.083  0.00  0.00    +0.000 NA
ATOM     12  C   UNL     1      44.691   3.147  10.304  0.00  0.00    +0.000 C 
ATOM     13  C   UNL     1      44.331   4.595   9.998  0.00  0.00    +0.000 C 
ATOM     14  H   UNL     1      42.746   2.588  10.595  0.00  0.00    +0.000 HD
ENDBRANCH   6   8
BRANCH   4  15
ATOM     15  O   UNL     1      48.304   6.030  13.439  0.00  0.00    +0.000 OA
BRANCH  15  16
ATOM     16  C   UNL     1      48.901   6.881  14.424  0.00  0.00    +0.000 C 
BRANCH  16  17
ATOM     17  C   UNL     1      48.695   6.323  15.808  0.00  0.00    +0.000 A 
ATOM     18  C   UNL     1      48.763   7.169  16.913  0.00  0.00    +0.000 A 
ATOM     19  N   UNL     1      48.575   6.772  18.190  0.00  0.00    +0.000 NA
ATOM     20  C   UNL     1      48.299   5.463  18.390  0.00  0.00    +0.000 A 
ATOM     21  C   UNL     1      48.189   4.532  17.367  0.00  0.00    +0.000 A 
ATOM     22  C   UNL     1      48.383   4.982  16.054  0.00  0.00    +0.000 A 
BRANCH  21  23
ATOM     23  C   UNL     1      47.875   3.100  17.670  0.00  0.00    +0.000 C 
ATOM     24  F   UNL     1      48.493   2.217  16.837  0.00  0.00    +0.000 F 
ATOM     25  F   UNL     1      48.246   2.741  18.931  0.00  0.00    +0.000 F 
ATOM     26  F   UNL     1      46.545   2.826  17.581  0.00  0.00    +0.000 F 
ENDBRANCH  21  23
ENDBRANCH  16  17
ENDBRANCH  15  16
ENDBRANCH   4  15
TORSDOF 5
ENDMDL
MODEL 5
REMARK VINA RESULT:    -6.740      4.734      8.573
REMARK INTER + INTRA:          -9.574
REMARK INTER:                  -8.969
REMARK INTRA:                  -0.604
REMARK UNBOUND:                -0.863
REMARK  Name = 
REMARK  5 active torsions:
REMARK  status: ('A' for Active; 'I' for Inactive)
REMARK    1  A    between atoms: C_4  and  O_5
REMARK    2  A    between atoms: O_5  and  C_6
REMARK    3  A    between atoms: C_6  and  C_7
REMARK    4  A    between atoms: C_11  and  C_12
REMARK    5  A    between atoms: C_18  and  C_19
REMARK                            x       y       z     vdW  Elec       q    Type
REMARK                         _______ _______ _______ _____ _____    ______ ____
ROOT
ATOM      1  F   UNL     1      48.803   7.670  13.456  0.00  0.00    +0.000 F 
ATOM      2  C   UNL     1      47.928   6.653  13.504  0.00  0.00    +0.000 A 
ATOM      3  C   UNL     1      47.893   5.846  14.635  0.00  0.00    +0.000 A 
ATOM      4  C   UNL     1      46.968   4.809  14.712  0.00  0.00    +0.000 A 
ATOM      5  C   UNL     1      46.124   4.570  13.620  0.00  0.00    +0.000 A 
ATOM      6  C   UNL     1      46.145   5.395  12.471  0.00  0.00    +0.000 A 
ATOM      7  C   UNL     1      47.062   6.449  12.431  0.00  0.00    +0.000 A 
ENDROOT
BRANCH   6   8
ATOM      8  C   UNL     1      45.129   5.136  11.369  0.00  0.00    +0.000 C 
ATOM      9  C   UNL     1      43.846   5.987  11.446  0.00  0.00    +0.000 C 
ATOM     10  C   UNL     1      42.601   5.266  11.958  0.00  0.00    +0.000 C 
ATOM     11  N   UNL     1      42.458   3.933  11.388  0.00  0.00    +0.000 NA
ATOM     12  C   UNL     1      43.595   3.106  11.781  0.00  0.00    +0.000 C 
ATOM     13  C   UNL     1      44.887   3.627  11.165  0.00  0.00    +0.000 C 
ATOM     14  H   UNL     1      42.411   3.992  10.370  0.00  0.00    +0.000 HD
ENDBRANCH   6   8
BRANCH   4  15
ATOM     15  O   UNL     1      46.966   4.099  15.881  0.00  0.00    +0.000 OA
BRANCH  15  16
ATOM     16  C   UNL     1      47.837   4.586  16.907  0.00  0.00    +0.000 C 
BRANCH  16  17
ATOM     17  C   UNL     1      49.041   3.692  17.056  0.00  0.00    +0.000 A 
ATOM     18  C   UNL     1      49.001   2.390  16.563  0.00  0.00    +0.000 A 
ATOM     19  N   UNL     1      50.031   1.517  16.629  0.00  0.00    +0.000 NA
ATOM     20  C   UNL     1      51.169   1.958  17.211  0.00  0.00    +0.000 A 
ATOM     21  C   UNL     1      51.331   3.238  17.721  0.00  0.00    +0.000 A 
ATOM     22  C   UNL     1      50.244   4.118  17.628  0.00  0.00    +0.000 A 
BRANCH  21  23
ATOM     23  C   UNL     1      52.627   3.651  18.347  0.00  0.00    +0.000 C 
ATOM     24  F   UNL     1      52.888   3.025  19.528  0.00  0.00    +0.000 F 
ATOM     25  F   UNL     1      53.698   3.392  17.546  0.00  0.00    +0.000 F 
ATOM     26  F   UNL     1      52.676   4.985  18.615  0.00  0.00    +0.000 F 
ENDBRANCH  21  23
ENDBRANCH  16  17
ENDBRANCH  15  16
ENDBRANCH   4  15
TORSDOF 5
ENDMDL
MODEL 6
REMARK VINA RESULT:    -6.700      3.570      4.881
REMARK INTER + INTRA:          -9.521
REMARK INTER:                  -8.687
REMARK INTRA:                  -0.835
REMARK UNBOUND:                -0.863
REMARK  Name = 
REMARK  5 active torsions:
REMARK  status: ('A' for Active; 'I' for Inactive)
REMARK    1  A    between atoms: C_4  and  O_5
REMARK    2  A    between atoms: O_5  and  C_6
REMARK    3  A    between atoms: C_6  and  C_7
REMARK    4  A    between atoms: C_11  and  C_12
REMARK    5  A    between atoms: C_18  and  C_19
REMARK                            x       y       z     vdW  Elec       q    Type
REMARK                         _______ _______ _______ _____ _____    ______ ____
ROOT
ATOM      1  F   UNL     1      51.038   8.405  13.801  0.00  0.00    +0.000 F 
ATOM      2  C   UNL     1      49.963   7.635  14.031  0.00  0.00    +0.000 A 
ATOM      3  C   UNL     1      49.053   7.421  13.003  0.00  0.00    +0.000 A 
ATOM      4  C   UNL     1      47.952   6.598  13.218  0.00  0.00    +0.000 A 
ATOM      5  C   UNL     1      47.758   6.043  14.489  0.00  0.00    +0.000 A 
ATOM      6  C   UNL     1      48.688   6.245  15.538  0.00  0.00    +0.000 A 
ATOM      7  C   UNL     1      49.801   7.051  15.286  0.00  0.00    +0.000 A 
ENDROOT
BRANCH   6   8
ATOM      8  C   UNL     1      48.463   5.526  16.859  0.00  0.00    +0.000 C 
ATOM      9  C   UNL     1      49.739   5.231  17.671  0.00  0.00    +0.000 C 
ATOM     10  C   UNL     1      50.225   3.783  17.639  0.00  0.00    +0.000 C 
ATOM     11  N   UNL     1      49.134   2.828  17.780  0.00  0.00    +0.000 NA
ATOM     12  C   UNL     1      48.209   2.969  16.660  0.00  0.00    +0.000 C 
ATOM     13  C   UNL     1      47.512   4.323  16.695  0.00  0.00    +0.000 C 
ATOM     14  H   UNL     1      48.639   2.992  18.658  0.00  0.00    +0.000 HD
ENDBRANCH   6   8
BRANCH   4  15
ATOM     15  O   UNL     1      47.137   6.398  12.138  0.00  0.00    +0.000 OA
BRANCH  15  16
ATOM     16  C   UNL     1      45.731   6.429  12.404  0.00  0.00    +0.000 C 
BRANCH  16  17
ATOM     17  C   UNL     1      45.089   5.116  12.038  0.00  0.00    +0.000 A 
ATOM     18  C   UNL     1      44.253   4.476  12.950  0.00  0.00    +0.000 A 
ATOM     19  N   UNL     1      43.615   3.309  12.712  0.00  0.00    +0.000 NA
ATOM     20  C   UNL     1      43.811   2.741  11.500  0.00  0.00    +0.000 A 
ATOM     21  C   UNL     1      44.608   3.294  10.508  0.00  0.00    +0.000 A 
ATOM     22  C   UNL     1      45.247   4.510  10.788  0.00  0.00    +0.000 A 
BRANCH  21  23
ATOM     23  C   UNL     1      44.770   2.605   9.188  0.00  0.00    +0.000 C 
ATOM     24  F   UNL     1      44.150   3.245   8.158  0.00  0.00    +0.000 F 
ATOM     25  F   UNL     1      46.076   2.489   8.819  0.00  0.00    +0.000 F 
ATOM     26  F   UNL     1      44.270   1.339   9.194  0.00  0.00    +0.000 F 
ENDBRANCH  21  23
ENDBRANCH  16  17
ENDBRANCH  15  16
ENDBRANCH   4  15
TORSDOF 5
ENDMDL
MODEL 7
REMARK VINA RESULT:    -6.585      1.760      2.308
REMARK INTER + INTRA:          -9.373
REMARK INTER:                  -8.480
REMARK INTRA:                  -0.894
REMARK UNBOUND:                -0.863
REMARK  Name = 
REMARK  5 active torsions:
REMARK  status: ('A' for Active; 'I' for Inactive)
REMARK    1  A    between atoms: C_4  and  O_5
REMARK    2  A    between atoms: O_5  and  C_6
REMARK    3  A    between atoms: C_6  and  C_7
REMARK    4  A    between atoms: C_11  and  C_12
REMARK    5  A    between atoms: C_18  and  C_19
REMARK                            x       y       z     vdW  Elec       q    Type
REMARK                         _______ _______ _______ _____ _____    ______ ____
ROOT
ATOM      1  F   UNL     1      49.185   6.258  15.799  0.00  0.00    +0.000 F 
ATOM      2  C   UNL     1      48.644   6.510  14.597  0.00  0.00    +0.000 A 
ATOM      3  C   UNL     1      47.371   6.030  14.316  0.00  0.00    +0.000 A 
ATOM      4  C   UNL     1      46.784   6.312  13.086  0.00  0.00    +0.000 A 
ATOM      5  C   UNL     1      47.517   7.034  12.135  0.00  0.00    +0.000 A 
ATOM      6  C   UNL     1      48.808   7.538  12.419  0.00  0.00    +0.000 A 
ATOM      7  C   UNL     1      49.362   7.267  13.673  0.00  0.00    +0.000 A 
ENDROOT
BRANCH   6   8
ATOM      8  C   UNL     1      49.499   8.401  11.374  0.00  0.00    +0.000 C 
ATOM      9  C   UNL     1      50.976   8.050  11.106  0.00  0.00    +0.000 C 
ATOM     10  C   UNL     1      52.004   9.000  11.718  0.00  0.00    +0.000 C 
ATOM     11  N   UNL     1      51.633  10.399  11.557  0.00  0.00    +0.000 NA
ATOM     12  C   UNL     1      50.377  10.658  12.254  0.00  0.00    +0.000 C 
ATOM     13  C   UNL     1      49.226   9.900  11.606  0.00  0.00    +0.000 C 
ATOM     14  H   UNL     1      51.527  10.619  10.565  0.00  0.00    +0.000 HD
ENDBRANCH   6   8
BRANCH   4  15
ATOM     15  O   UNL     1      45.509   5.847  12.914  0.00  0.00    +0.000 OA
BRANCH  15  16
ATOM     16  C   UNL     1      44.893   6.170  11.662  0.00  0.00    +0.000 C 
BRANCH  16  17
ATOM     17  C   UNL     1      44.813   4.953  10.777  0.00  0.00    +0.000 A 
ATOM     18  C   UNL     1      43.898   3.944  11.067  0.00  0.00    +0.000 A 
ATOM     19  N   UNL     1      43.735   2.826  10.326  0.00  0.00    +0.000 NA
ATOM     20  C   UNL     1      44.518   2.698   9.231  0.00  0.00    +0.000 A 
ATOM     21  C   UNL     1      45.451   3.645   8.834  0.00  0.00    +0.000 A 
ATOM     22  C   UNL     1      45.587   4.796   9.622  0.00  0.00    +0.000 A 
BRANCH  21  23
ATOM     23  C   UNL     1      46.277   3.432   7.604  0.00  0.00    +0.000 C 
ATOM     24  F   UNL     1      47.109   4.472   7.317  0.00  0.00    +0.000 F 
ATOM     25  F   UNL     1      47.078   2.333   7.698  0.00  0.00    +0.000 F 
ATOM     26  F   UNL     1      45.518   3.245   6.489  0.00  0.00    +0.000 F 
ENDBRANCH  21  23
ENDBRANCH  16  17
ENDBRANCH  15  16
ENDBRANCH   4  15
TORSDOF 5
ENDMDL
MODEL 8
REMARK VINA RESULT:    -6.485      4.524      8.987
REMARK INTER + INTRA:          -9.244
REMARK INTER:                  -8.469
REMARK INTRA:                  -0.775
REMARK UNBOUND:                -0.863
REMARK  Name = 
REMARK  5 active torsions:
REMARK  status: ('A' for Active; 'I' for Inactive)
REMARK    1  A    between atoms: C_4  and  O_5
REMARK    2  A    between atoms: O_5  and  C_6
REMARK    3  A    between atoms: C_6  and  C_7
REMARK    4  A    between atoms: C_11  and  C_12
REMARK    5  A    between atoms: C_18  and  C_19
REMARK                            x       y       z     vdW  Elec       q    Type
REMARK                         _______ _______ _______ _____ _____    ______ ____
ROOT
ATOM      1  F   UNL     1      46.941   9.129  12.447  0.00  0.00    +0.000 F 
ATOM      2  C   UNL     1      46.684   7.817  12.568  0.00  0.00    +0.000 A 
ATOM      3  C   UNL     1      47.466   7.053  13.426  0.00  0.00    +0.000 A 
ATOM      4  C   UNL     1      47.190   5.699  13.586  0.00  0.00    +0.000 A 
ATOM      5  C   UNL     1      46.156   5.124  12.836  0.00  0.00    +0.000 A 
ATOM      6  C   UNL     1      45.346   5.898  11.972  0.00  0.00    +0.000 A 
ATOM      7  C   UNL     1      45.625   7.263  11.852  0.00  0.00    +0.000 A 
ENDROOT
BRANCH   6   8
ATOM      8  C   UNL     1      44.178   5.223  11.270  0.00  0.00    +0.000 C 
ATOM      9  C   UNL     1      43.257   4.389  12.183  0.00  0.00    +0.000 C 
ATOM     10  C   UNL     1      43.428   2.874  12.089  0.00  0.00    +0.000 C 
ATOM     11  N   UNL     1      43.562   2.414  10.713  0.00  0.00    +0.000 NA
ATOM     12  C   UNL     1      44.761   2.994  10.116  0.00  0.00    +0.000 C 
ATOM     13  C   UNL     1      44.628   4.505   9.982  0.00  0.00    +0.000 C 
ATOM     14  H   UNL     1      42.741   2.690  10.172  0.00  0.00    +0.000 HD
ENDBRANCH   6   8
BRANCH   4  15
ATOM     15  O   UNL     1      47.974   5.034  14.489  0.00  0.00    +0.000 OA
BRANCH  15  16
ATOM     16  C   UNL     1      47.309   4.046  15.282  0.00  0.00    +0.000 C 
BRANCH  16  17
ATOM     17  C   UNL     1      47.723   4.152  16.727  0.00  0.00    +0.000 A 
ATOM     18  C   UNL     1      48.333   3.069  17.354  0.00  0.00    +0.000 A 
ATOM     19  N   UNL     1      48.759   3.070  18.637  0.00  0.00    +0.000 NA
ATOM     20  C   UNL     1      48.574   4.209  19.341  0.00  0.00    +0.000 A 
ATOM     21  C   UNL     1      47.994   5.355  18.818  0.00  0.00    +0.000 A 
ATOM     22  C   UNL     1      47.572   5.320  17.481  0.00  0.00    +0.000 A 
BRANCH  21  23
ATOM     23  C   UNL     1      47.830   6.581  19.662  0.00  0.00    +0.000 C 
ATOM     24  F   UNL     1      47.203   6.347  20.849  0.00  0.00    +0.000 F 
ATOM     25  F   UNL     1      49.023   7.156  19.981  0.00  0.00    +0.000 F 
ATOM     26  F   UNL     1      47.102   7.550  19.043  0.00  0.00    +0.000 F 
ENDBRANCH  21  23
ENDBRANCH  16  17
ENDBRANCH  15  16
ENDBRANCH   4  15
TORSDOF 5
ENDMDL
MODEL 9
REMARK VINA RESULT:    -6.268      3.755      4.854
REMARK INTER + INTRA:          -8.963
REMARK INTER:                  -8.213
REMARK INTRA:                  -0.751
REMARK UNBOUND:                -0.863
REMARK  Name = 
REMARK  5 active torsions:
REMARK  status: ('A' for Active; 'I' for Inactive)
REMARK    1  A    between atoms: C_4  and  O_5
REMARK    2  A    between atoms: O_5  and  C_6
REMARK    3  A    between atoms: C_6  and  C_7
REMARK    4  A    between atoms: C_11  and  C_12
REMARK    5  A    between atoms: C_18  and  C_19
REMARK                            x       y       z     vdW  Elec       q    Type
REMARK                         _______ _______ _______ _____ _____    ______ ____
ROOT
ATOM      1  F   UNL     1      46.925   2.470  17.756  0.00  0.00    +0.000 F 
ATOM      2  C   UNL     1      47.380   3.572  17.141  0.00  0.00    +0.000 A 
ATOM      3  C   UNL     1      47.270   3.669  15.759  0.00  0.00    +0.000 A 
ATOM      4  C   UNL     1      47.708   4.820  15.112  0.00  0.00    +0.000 A 
ATOM      5  C   UNL     1      48.299   5.840  15.869  0.00  0.00    +0.000 A 
ATOM      6  C   UNL     1      48.402   5.756  17.278  0.00  0.00    +0.000 A 
ATOM      7  C   UNL     1      47.927   4.601  17.906  0.00  0.00    +0.000 A 
ENDROOT
BRANCH   6   8
ATOM      8  C   UNL     1      48.963   6.947  18.040  0.00  0.00    +0.000 C 
ATOM      9  C   UNL     1      48.258   7.262  19.373  0.00  0.00    +0.000 C 
ATOM     10  C   UNL     1      47.314   8.464  19.357  0.00  0.00    +0.000 C 
ATOM     11  N   UNL     1      47.875   9.600  18.637  0.00  0.00    +0.000 NA
ATOM     12  C   UNL     1      48.094   9.238  17.240  0.00  0.00    +0.000 C 
ATOM     13  C   UNL     1      49.168   8.164  17.117  0.00  0.00    +0.000 C 
ATOM     14  H   UNL     1      48.760   9.879  19.063  0.00  0.00    +0.000 HD
ENDBRANCH   6   8
BRANCH   4  15
ATOM     15  O   UNL     1      47.513   4.854  13.759  0.00  0.00    +0.000 OA
BRANCH  15  16
ATOM     16  C   UNL     1      46.447   5.694  13.304  0.00  0.00    +0.000 C 
BRANCH  16  17
ATOM     17  C   UNL     1      45.421   4.892  12.546  0.00  0.00    +0.000 A 
ATOM     18  C   UNL     1      44.256   4.476  13.187  0.00  0.00    +0.000 A 
ATOM     19  N   UNL     1      43.268   3.772  12.592  0.00  0.00    +0.000 NA
ATOM     20  C   UNL     1      43.437   3.464  11.287  0.00  0.00    +0.000 A 
ATOM     21  C   UNL     1      44.546   3.838  10.541  0.00  0.00    +0.000 A 
ATOM     22  C   UNL     1      45.547   4.575  11.190  0.00  0.00    +0.000 A 
BRANCH  21  23
ATOM     23  C   UNL     1      44.657   3.462   9.097  0.00  0.00    +0.000 C 
ATOM     24  F   UNL     1      44.034   4.334   8.256  0.00  0.00    +0.000 F 
ATOM     25  F   UNL     1      45.950   3.398   8.673  0.00  0.00    +0.000 F 
ATOM     26  F   UNL     1      44.117   2.240   8.831  0.00  0.00    +0.000 F 
ENDBRANCH  21  23
ENDBRANCH  16  17
ENDBRANCH  15  16
ENDBRANCH   4  15
TORSDOF 5
ENDMDL
