MODEL 1
REMARK VINA RESULT:    -8.372      0.000      0.000
REMARK INTER + INTRA:         -11.365
REMARK INTER:                 -10.819
REMARK INTRA:                  -0.546
REMARK UNBOUND:                -0.546
REMARK  Name = 
REMARK  6 active torsions:
REMARK  status: ('A' for Active; 'I' for Inactive)
REMARK    1  A    between atoms: C_1  and  C_2
REMARK    2  A    between atoms: C_5  and  C_6
REMARK    3  A    between atoms: C_10  and  C_11
REMARK    4  A    between atoms: C_11  and  C_12
REMARK    5  A    between atoms: C_12  and  C_13
REMARK    6  A    between atoms: C_16  and  C_17
REMARK                            x       y       z     vdW  Elec       q    Type
REMARK                         _______ _______ _______ _____ _____    ______ ____
ROOT
ATOM      1  C   UNL     1      46.871   5.256  13.847  0.00  0.00    +0.000 A 
ATOM      2  C   UNL     1      47.340   6.364  13.130  0.00  0.00    +0.000 A 
ATOM      3  C   UNL     1      46.775   6.665  11.903  0.00  0.00    +0.000 A 
ATOM      4  N   UNL     1      45.782   5.949  11.337  0.00  0.00    +0.000 NA
ATOM      5  C   UNL     1      45.336   4.863  12.009  0.00  0.00    +0.000 A 
ATOM      6  C   UNL     1      45.845   4.502  13.255  0.00  0.00    +0.000 A 
ENDROOT
BRANCH   1  11
ATOM      7  C   UNL     1      49.033   3.903  18.924  0.00  0.00    +0.000 C 
ATOM      8  C   UNL     1      48.458   4.246  17.595  0.00  0.00    +0.000 A 
ATOM      9  C   UNL     1      47.461   3.512  16.991  0.00  0.00    +0.000 A 
ATOM     10  N   UNL     1      46.927   3.814  15.791  0.00  0.00    +0.000 NA
ATOM     11  C   UNL     1      47.420   4.904  15.169  0.00  0.00    +0.000 A 
ATOM     12  N   UNL     1      48.395   5.688  15.672  0.00  0.00    +0.000 NA
ATOM     13  C   UNL     1      48.889   5.339  16.875  0.00  0.00    +0.000 A 
ENDBRANCH   1  11
BRANCH   5  14
ATOM     14  C   UNL     1      44.192   4.081  11.409  0.00  0.00    +0.000 C 
BRANCH  14  15
ATOM     15  C   UNL     1      43.945   4.425   9.937  0.00  0.00    +0.000 C 
BRANCH  15  16
ATOM     16  C   UNL     1      44.918   3.722   9.028  0.00  0.00    +0.000 A 
ATOM     17  C   UNL     1      45.073   2.336   9.075  0.00  0.00    +0.000 A 
ATOM     18  N   UNL     1      45.938   1.654   8.282  0.00  0.00    +0.000 NA
ATOM     19  C   UNL     1      46.647   2.432   7.416  0.00  0.00    +0.000 A 
ATOM     20  C   UNL     1      46.490   3.807   7.347  0.00  0.00    +0.000 A 
ATOM     21  N   UNL     1      45.623   4.479   8.148  0.00  0.00    +0.000 NA
BRANCH  19  22
ATOM     22  C   UNL     1      47.637   1.761   6.531  0.00  0.00    +0.000 C 
ATOM     23  N   UNL     1      48.750   2.490   6.210  0.00  0.00    +0.000 N 
ATOM     24  O   UNL     1      47.469   0.625   6.104  0.00  0.00    +0.000 OA
ATOM     25  H   UNL     1      48.862   3.431   6.570  0.00  0.00    +0.000 HD
ATOM     26  H   UNL     1      49.445   2.088   5.599  0.00  0.00    +0.000 HD
ENDBRANCH  19  22
ENDBRANCH  15  16
ENDBRANCH  14  15
ENDBRANCH   5  14
TORSDOF 5
ENDMDL
MODEL 2
REMARK VINA RESULT:    -8.119      2.162      3.977
REMARK INTER + INTRA:         -11.039
REMARK INTER:                 -10.331
REMARK INTRA:                  -0.707
REMARK UNBOUND:                -0.546
REMARK  Name = 
REMARK  6 active torsions:
REMARK  status: ('A' for Active; 'I' for Inactive)
REMARK    1  A    between atoms: C_1  and  C_2
REMARK    2  A    between atoms: C_5  and  C_6
REMARK    3  A    between atoms: C_10  and  C_11
REMARK    4  A    between atoms: C_11  and  C_12
REMARK    5  A    between atoms: C_12  and  C_13
REMARK    6  A    between atoms: C_16  and  C_17
REMARK                            x       y       z     vdW  Elec       q    Type
REMARK                         _______ _______ _______ _____ _____    ______ ____
ROOT
ATOM      1  C   UNL     1      46.688   6.122  12.640  0.00  0.00    +0.000 A 
ATOM      2  C   UNL     1      47.310   5.316  13.603  0.00  0.00    +0.000 A 
ATOM      3  C   UNL     1      46.833   4.035  13.823  0.00  0.00    +0.000 A 
ATOM      4  N   UNL     1      45.788   3.498  13.162  0.00  0.00    +0.000 NA
ATOM      5  C   UNL     1      45.165   4.274  12.247  0.00  0.00    +0.000 A 
ATOM      6  C   UNL     1      45.592   5.569  11.958  0.00  0.00    +0.000 A 
ENDROOT
BRANCH   1  11
ATOM      7  C   UNL     1      48.503  11.380  11.482  0.00  0.00    +0.000 C 
ATOM      8  C   UNL     1      48.040   9.998  11.782  0.00  0.00    +0.000 A 
ATOM      9  C   UNL     1      48.863   8.894  11.715  0.00  0.00    +0.000 A 
ATOM     10  N   UNL     1      48.460   7.638  11.989  0.00  0.00    +0.000 NA
ATOM     11  C   UNL     1      47.169   7.484  12.347  0.00  0.00    +0.000 A 
ATOM     12  N   UNL     1      46.283   8.496  12.443  0.00  0.00    +0.000 NA
ATOM     13  C   UNL     1      46.742   9.729  12.158  0.00  0.00    +0.000 A 
ENDBRANCH   1  11
BRANCH   5  14
ATOM     14  C   UNL     1      44.023   3.669  11.465  0.00  0.00    +0.000 C 
BRANCH  14  15
ATOM     15  C   UNL     1      43.905   4.242  10.049  0.00  0.00    +0.000 C 
BRANCH  15  16
ATOM     16  C   UNL     1      44.880   3.596   9.102  0.00  0.00    +0.000 A 
ATOM     17  C   UNL     1      45.127   2.223   9.149  0.00  0.00    +0.000 A 
ATOM     18  N   UNL     1      45.999   1.593   8.322  0.00  0.00    +0.000 NA
ATOM     19  C   UNL     1      46.617   2.409   7.420  0.00  0.00    +0.000 A 
ATOM     20  C   UNL     1      46.367   3.770   7.351  0.00  0.00    +0.000 A 
ATOM     21  N   UNL     1      45.495   4.390   8.187  0.00  0.00    +0.000 NA
BRANCH  19  22
ATOM     22  C   UNL     1      47.608   1.796   6.495  0.00  0.00    +0.000 C 
ATOM     23  N   UNL     1      48.770   2.495   6.309  0.00  0.00    +0.000 N 
ATOM     24  O   UNL     1      47.400   0.732   5.924  0.00  0.00    +0.000 OA
ATOM     25  H   UNL     1      48.915   3.377   6.787  0.00  0.00    +0.000 HD
ATOM     26  H   UNL     1      49.470   2.132   5.678  0.00  0.00    +0.000 HD
ENDBRANCH  19  22
ENDBRANCH  15  16
ENDBRANCH  14  15
ENDBRANCH   5  14
TORSDOF 5
ENDMDL
MODEL 3
REMARK VINA RESULT:    -7.991      2.745      7.947
REMARK INTER + INTRA:         -10.873
REMARK INTER:                 -10.458
REMARK INTRA:                  -0.415
REMARK UNBOUND:                -0.546
REMARK  Name = 
REMARK  6 active torsions:
REMARK  status: ('A' for Active; 'I' for Inactive)
REMARK    1  A    between atoms: C_1  and  C_2
REMARK    2  A    between atoms: C_5  and  C_6
REMARK    3  A    between atoms: C_10  and  C_11
REMARK    4  A    between atoms: C_11  and  C_12
REMARK    5  A    between atoms: C_12  and  C_13
REMARK    6  A    between atoms: C_16  and  C_17
REMARK                            x       y       z     vdW  Elec       q    Type
REMARK                         _______ _______ _______ _____ _____    ______ ____
ROOT
ATOM      1  C   UNL     1      45.025   4.557   9.826  0.00  0.00    +0.000 A 
ATOM      2  C   UNL     1      43.646   4.560  10.074  0.00  0.00    +0.000 A 
ATOM      3  C   UNL     1      43.137   5.385  11.062  0.00  0.00    +0.000 A 
ATOM      4  N   UNL     1      43.893   6.203  11.820  0.00  0.00    +0.000 NA
ATOM      5  C   UNL     1      45.229   6.193  11.607  0.00  0.00    +0.000 A 
ATOM      6  C   UNL     1      45.816   5.401  10.623  0.00  0.00    +0.000 A 
ENDROOT
BRANCH   1  11
ATOM      7  C   UNL     1      47.336   1.295   5.789  0.00  0.00    +0.000 C 
ATOM      8  C   UNL     1      46.734   2.161   6.839  0.00  0.00    +0.000 A 
ATOM      9  C   UNL     1      46.645   3.531   6.728  0.00  0.00    +0.000 A 
ATOM     10  N   UNL     1      46.097   4.327   7.668  0.00  0.00    +0.000 NA
ATOM     11  C   UNL     1      45.618   3.717   8.770  0.00  0.00    +0.000 A 
ATOM     12  N   UNL     1      45.657   2.385   8.977  0.00  0.00    +0.000 NA
ATOM     13  C   UNL     1      46.214   1.640   8.004  0.00  0.00    +0.000 A 
ENDBRANCH   1  11
BRANCH   5  14
ATOM     14  C   UNL     1      46.082   7.141  12.416  0.00  0.00    +0.000 C 
BRANCH  14  15
ATOM     15  C   UNL     1      47.493   6.600  12.668  0.00  0.00    +0.000 C 
BRANCH  15  16
ATOM     16  C   UNL     1      47.537   5.692  13.868  0.00  0.00    +0.000 A 
ATOM     17  C   UNL     1      46.935   4.434  13.840  0.00  0.00    +0.000 A 
ATOM     18  N   UNL     1      46.941   3.579  14.895  0.00  0.00    +0.000 NA
ATOM     19  C   UNL     1      47.598   4.042  15.996  0.00  0.00    +0.000 A 
ATOM     20  C   UNL     1      48.216   5.282  16.030  0.00  0.00    +0.000 A 
ATOM     21  N   UNL     1      48.200   6.130  14.970  0.00  0.00    +0.000 NA
BRANCH  19  22
ATOM     22  C   UNL     1      47.627   3.174  17.204  0.00  0.00    +0.000 C 
ATOM     23  N   UNL     1      48.856   2.971  17.771  0.00  0.00    +0.000 N 
ATOM     24  O   UNL     1      46.614   2.661  17.666  0.00  0.00    +0.000 OA
ATOM     25  H   UNL     1      49.680   3.401  17.365  0.00  0.00    +0.000 HD
ATOM     26  H   UNL     1      48.934   2.377  18.582  0.00  0.00    +0.000 HD
ENDBRANCH  19  22
ENDBRANCH  15  16
ENDBRANCH  14  15
ENDBRANCH   5  14
TORSDOF 5
ENDMDL
MODEL 4
REMARK VINA RESULT:    -7.849      2.216      4.365
REMARK INTER + INTRA:         -10.689
REMARK INTER:                  -9.938
REMARK INTRA:                  -0.751
REMARK UNBOUND:                -0.546
REMARK  Name = 
REMARK  6 active torsions:
REMARK  status: ('A' for Active; 'I' for Inactive)
REMARK    1  A    between atoms: C_1  and  C_2
REMARK    2  A    between atoms: C_5  and  C_6
REMARK    3  A    between atoms: C_10  and  C_11
REMARK    4  A    between atoms: C_11  and  C_12
REMARK    5  A    between atoms: C_12  and  C_13
REMARK    6  A    between atoms: C_16  and  C_17
REMARK                            x       y       z     vdW  Elec       q    Type
REMARK                         _______ _______ _______ _____ _____    ______ ____
ROOT
ATOM      1  C   UNL     1      46.146   6.431  12.710  0.00  0.00    +0.000 A 
ATOM      2  C   UNL     1      47.058   5.815  13.578  0.00  0.00    +0.000 A 
ATOM      3  C   UNL     1      46.977   4.449  13.786  0.00  0.00    +0.000 A 
ATOM      4  N   UNL     1      46.061   3.652  13.199  0.00  0.00    +0.000 NA
ATOM      5  C   UNL     1      45.161   4.237  12.377  0.00  0.00    +0.000 A 
ATOM      6  C   UNL     1      45.184   5.604  12.106  0.00  0.00    +0.000 A 
ENDROOT
BRANCH   1  11
ATOM      7  C   UNL     1      46.331  11.999  11.599  0.00  0.00    +0.000 C 
ATOM      8  C   UNL     1      46.297  10.540  11.892  0.00  0.00    +0.000 A 
ATOM      9  C   UNL     1      47.418   9.809  12.217  0.00  0.00    +0.000 A 
ATOM     10  N   UNL     1      47.401   8.489  12.490  0.00  0.00    +0.000 NA
ATOM     11  C   UNL     1      46.201   7.877  12.432  0.00  0.00    +0.000 A 
ATOM     12  N   UNL     1      45.046   8.500  12.123  0.00  0.00    +0.000 NA
ATOM     13  C   UNL     1      45.123   9.819  11.862  0.00  0.00    +0.000 A 
ENDBRANCH   1  11
BRANCH   5  14
ATOM     14  C   UNL     1      44.161   3.350  11.676  0.00  0.00    +0.000 C 
BRANCH  14  15
ATOM     15  C   UNL     1      43.828   3.833  10.261  0.00  0.00    +0.000 C 
BRANCH  15  16
ATOM     16  C   UNL     1      44.829   3.337   9.252  0.00  0.00    +0.000 A 
ATOM     17  C   UNL     1      45.461   4.218   8.373  0.00  0.00    +0.000 A 
ATOM     18  N   UNL     1      46.366   3.822   7.442  0.00  0.00    +0.000 NA
ATOM     19  C   UNL     1      46.626   2.484   7.436  0.00  0.00    +0.000 A 
ATOM     20  C   UNL     1      46.019   1.602   8.316  0.00  0.00    +0.000 A 
ATOM     21  N   UNL     1      45.112   2.009   9.240  0.00  0.00    +0.000 NA
BRANCH  19  22
ATOM     22  C   UNL     1      47.589   1.968   6.426  0.00  0.00    +0.000 C 
ATOM     23  N   UNL     1      48.750   2.678   6.284  0.00  0.00    +0.000 N 
ATOM     24  O   UNL     1      47.360   0.971   5.752  0.00  0.00    +0.000 OA
ATOM     25  H   UNL     1      48.913   3.504   6.848  0.00  0.00    +0.000 HD
ATOM     26  H   UNL     1      49.431   2.381   5.601  0.00  0.00    +0.000 HD
ENDBRANCH  19  22
ENDBRANCH  15  16
ENDBRANCH  14  15
ENDBRANCH   5  14
TORSDOF 5
ENDMDL
MODEL 5
REMARK VINA RESULT:    -7.209      2.306      2.804
REMARK INTER + INTRA:          -9.862
REMARK INTER:                  -9.279
REMARK INTRA:                  -0.583
REMARK UNBOUND:                -0.546
REMARK  Name = 
REMARK  6 active torsions:
REMARK  status: ('A' for Active; 'I' for Inactive)
REMARK    1  A    between atoms: C_1  and  C_2
REMARK    2  A    between atoms: C_5  and  C_6
REMARK    3  A    between atoms: C_10  and  C_11
REMARK    4  A    between atoms: C_11  and  C_12
REMARK    5  A    between atoms: C_12  and  C_13
REMARK    6  A    between atoms: C_16  and  C_17
REMARK                            x       y       z     vdW  Elec       q    Type
REMARK                         _______ _______ _______ _____ _____    ______ ____
ROOT
ATOM      1  C   UNL     1      46.673   7.087  12.983  0.00  0.00    +0.000 A 
ATOM      2  C   UNL     1      45.804   7.996  12.366  0.00  0.00    +0.000 A 
ATOM      3  C   UNL     1      44.749   7.516  11.609  0.00  0.00    +0.000 A 
ATOM      4  N   UNL     1      44.494   6.206  11.420  0.00  0.00    +0.000 NA
ATOM      5  C   UNL     1      45.339   5.318  11.992  0.00  0.00    +0.000 A 
ATOM      6  C   UNL     1      46.416   5.721  12.778  0.00  0.00    +0.000 A 
ENDROOT
BRANCH   1  11
ATOM      7  C   UNL     1      51.010   8.882  16.184  0.00  0.00    +0.000 C 
ATOM      8  C   UNL     1      49.881   8.400  15.343  0.00  0.00    +0.000 A 
ATOM      9  C   UNL     1      49.869   7.166  14.730  0.00  0.00    +0.000 A 
ATOM     10  N   UNL     1      48.852   6.714  13.970  0.00  0.00    +0.000 NA
ATOM     11  C   UNL     1      47.798   7.541  13.820  0.00  0.00    +0.000 A 
ATOM     12  N   UNL     1      47.711   8.767  14.375  0.00  0.00    +0.000 NA
ATOM     13  C   UNL     1      48.756   9.165  15.125  0.00  0.00    +0.000 A 
ENDBRANCH   1  11
BRANCH   5  14
ATOM     14  C   UNL     1      45.037   3.848  11.829  0.00  0.00    +0.000 C 
BRANCH  14  15
ATOM     15  C   UNL     1      44.172   3.553  10.599  0.00  0.00    +0.000 C 
BRANCH  15  16
ATOM     16  C   UNL     1      45.011   3.276   9.380  0.00  0.00    +0.000 A 
ATOM     17  C   UNL     1      45.389   4.306   8.518  0.00  0.00    +0.000 A 
ATOM     18  N   UNL     1      46.140   4.110   7.404  0.00  0.00    +0.000 NA
ATOM     19  C   UNL     1      46.513   2.816   7.192  0.00  0.00    +0.000 A 
ATOM     20  C   UNL     1      46.159   1.787   8.050  0.00  0.00    +0.000 A 
ATOM     21  N   UNL     1      45.405   1.995   9.160  0.00  0.00    +0.000 NA
BRANCH  19  22
ATOM     22  C   UNL     1      47.316   2.515   5.976  0.00  0.00    +0.000 C 
ATOM     23  N   UNL     1      48.676   2.519   6.137  0.00  0.00    +0.000 N 
ATOM     24  O   UNL     1      46.799   2.283   4.890  0.00  0.00    +0.000 OA
ATOM     25  H   UNL     1      49.080   2.722   7.045  0.00  0.00    +0.000 HD
ATOM     26  H   UNL     1      49.268   2.338   5.341  0.00  0.00    +0.000 HD
ENDBRANCH  19  22
ENDBRANCH  15  16
ENDBRANCH  14  15
ENDBRANCH   5  14
TORSDOF 5
ENDMDL
MODEL 6
REMARK VINA RESULT:    -6.961      3.412      5.848
REMARK INTER + INTRA:          -9.541
REMARK INTER:                  -8.888
REMARK INTRA:                  -0.654
REMARK UNBOUND:                -0.546
REMARK  Name = 
REMARK  6 active torsions:
REMARK  status: ('A' for Active; 'I' for Inactive)
REMARK    1  A    between atoms: C_1  and  C_2
REMARK    2  A    between atoms: C_5  and  C_6
REMARK    3  A    between atoms: C_10  and  C_11
REMARK    4  A    between atoms: C_11  and  C_12
REMARK    5  A    between atoms: C_12  and  C_13
REMARK    6  A    between atoms: C_16  and  C_17
REMARK                            x       y       z     vdW  Elec       q    Type
REMARK                         _______ _______ _______ _____ _____    ______ ____
ROOT
ATOM      1  C   UNL     1      44.859   8.438  11.795  0.00  0.00    +0.000 A 
ATOM      2  C   UNL     1      46.092   8.605  12.439  0.00  0.00    +0.000 A 
ATOM      3  C   UNL     1      46.809   7.487  12.829  0.00  0.00    +0.000 A 
ATOM      4  N   UNL     1      46.394   6.221  12.628  0.00  0.00    +0.000 NA
ATOM      5  C   UNL     1      45.194   6.045  12.028  0.00  0.00    +0.000 A 
ATOM      6  C   UNL     1      44.419   7.119  11.594  0.00  0.00    +0.000 A 
ENDROOT
BRANCH   1  11
ATOM      7  C   UNL     1      41.798  12.904  10.073  0.00  0.00    +0.000 C 
ATOM      8  C   UNL     1      42.591  11.726  10.517  0.00  0.00    +0.000 A 
ATOM      9  C   UNL     1      42.287  10.431  10.156  0.00  0.00    +0.000 A 
ATOM     10  N   UNL     1      42.999   9.355  10.546  0.00  0.00    +0.000 NA
ATOM     11  C   UNL     1      44.065   9.592  11.336  0.00  0.00    +0.000 A 
ATOM     12  N   UNL     1      44.447  10.818  11.747  0.00  0.00    +0.000 NA
ATOM     13  C   UNL     1      43.700  11.855  11.325  0.00  0.00    +0.000 A 
ENDBRANCH   1  11
BRANCH   5  14
ATOM     14  C   UNL     1      44.740   4.632  11.754  0.00  0.00    +0.000 C 
BRANCH  14  15
ATOM     15  C   UNL     1      44.036   4.488  10.401  0.00  0.00    +0.000 C 
BRANCH  15  16
ATOM     16  C   UNL     1      44.934   3.862   9.367  0.00  0.00    +0.000 A 
ATOM     17  C   UNL     1      45.680   4.652   8.491  0.00  0.00    +0.000 A 
ATOM     18  N   UNL     1      46.501   4.139   7.539  0.00  0.00    +0.000 NA
ATOM     19  C   UNL     1      46.553   2.777   7.509  0.00  0.00    +0.000 A 
ATOM     20  C   UNL     1      45.831   1.983   8.385  0.00  0.00    +0.000 A 
ATOM     21  N   UNL     1      45.011   2.507   9.331  0.00  0.00    +0.000 NA
BRANCH  19  22
ATOM     22  C   UNL     1      47.411   2.138   6.475  0.00  0.00    +0.000 C 
ATOM     23  N   UNL     1      48.735   2.485   6.493  0.00  0.00    +0.000 N 
ATOM     24  O   UNL     1      46.965   1.352   5.648  0.00  0.00    +0.000 OA
ATOM     25  H   UNL     1      49.079   3.144   7.183  0.00  0.00    +0.000 HD
ATOM     26  H   UNL     1      49.359   2.093   5.803  0.00  0.00    +0.000 HD
ENDBRANCH  19  22
ENDBRANCH  15  16
ENDBRANCH  14  15
ENDBRANCH   5  14
TORSDOF 5
ENDMDL
MODEL 7
REMARK VINA RESULT:    -6.437      4.327      6.231
REMARK INTER + INTRA:          -8.865
REMARK INTER:                  -8.201
REMARK INTRA:                  -0.664
REMARK UNBOUND:                -0.546
REMARK  Name = 
REMARK  6 active torsions:
REMARK  status: ('A' for Active; 'I' for Inactive)
REMARK    1  A    between atoms: C_1  and  C_2
REMARK    2  A    between atoms: C_5  and  C_6
REMARK    3  A    between atoms: C_10  and  C_11
REMARK    4  A    between atoms: C_11  and  C_12
REMARK    5  A    between atoms: C_12  and  C_13
REMARK    6  A    between atoms: C_16  and  C_17
REMARK                            x       y       z     vdW  Elec       q    Type
REMARK                         _______ _______ _______ _____ _____    ______ ____
ROOT
ATOM      1  C   UNL     1      49.977   5.464  17.498  0.00  0.00    +0.000 A 
ATOM      2  C   UNL     1      49.393   6.038  18.634  0.00  0.00    +0.000 A 
ATOM      3  C   UNL     1      48.685   7.220  18.507  0.00  0.00    +0.000 A 
ATOM      4  N   UNL     1      48.514   7.872  17.340  0.00  0.00    +0.000 NA
ATOM      5  C   UNL     1      49.092   7.340  16.239  0.00  0.00    +0.000 A 
ATOM      6  C   UNL     1      49.811   6.147  16.282  0.00  0.00    +0.000 A 
ENDROOT
BRANCH   1  11
ATOM      7  C   UNL     1      52.809   0.547  17.797  0.00  0.00    +0.000 C 
ATOM      8  C   UNL     1      52.078   1.842  17.725  0.00  0.00    +0.000 A 
ATOM      9  C   UNL     1      52.591   3.027  18.205  0.00  0.00    +0.000 A 
ATOM     10  N   UNL     1      51.943   4.207  18.142  0.00  0.00    +0.000 NA
ATOM     11  C   UNL     1      50.722   4.194  17.571  0.00  0.00    +0.000 A 
ATOM     12  N   UNL     1      50.130   3.090  17.072  0.00  0.00    +0.000 NA
ATOM     13  C   UNL     1      50.825   1.941  17.161  0.00  0.00    +0.000 A 
ENDBRANCH   1  11
BRANCH   5  14
ATOM     14  C   UNL     1      48.868   8.035  14.916  0.00  0.00    +0.000 C 
BRANCH  14  15
ATOM     15  C   UNL     1      48.865   7.065  13.731  0.00  0.00    +0.000 C 
BRANCH  15  16
ATOM     16  C   UNL     1      47.523   6.407  13.551  0.00  0.00    +0.000 A 
ATOM     17  C   UNL     1      46.445   7.109  13.008  0.00  0.00    +0.000 A 
ATOM     18  N   UNL     1      45.214   6.565  12.830  0.00  0.00    +0.000 NA
ATOM     19  C   UNL     1      45.109   5.261  13.213  0.00  0.00    +0.000 A 
ATOM     20  C   UNL     1      46.176   4.548  13.736  0.00  0.00    +0.000 A 
ATOM     21  N   UNL     1      47.402   5.104  13.914  0.00  0.00    +0.000 NA
BRANCH  19  22
ATOM     22  C   UNL     1      43.783   4.601  13.073  0.00  0.00    +0.000 C 
ATOM     23  N   UNL     1      42.695   5.431  13.056  0.00  0.00    +0.000 N 
ATOM     24  O   UNL     1      43.663   3.384  12.983  0.00  0.00    +0.000 OA
ATOM     25  H   UNL     1      42.821   6.434  13.139  0.00  0.00    +0.000 HD
ATOM     26  H   UNL     1      41.771   5.035  12.979  0.00  0.00    +0.000 HD
ENDBRANCH  19  22
ENDBRANCH  15  16
ENDBRANCH  14  15
ENDBRANCH   5  14
TORSDOF 5
ENDMDL
MODEL 8
REMARK VINA RESULT:    -6.390      3.718      8.454
REMARK INTER + INTRA:          -8.804
REMARK INTER:                  -8.153
REMARK INTRA:                  -0.650
REMARK UNBOUND:                -0.546
REMARK  Name = 
REMARK  6 active torsions:
REMARK  status: ('A' for Active; 'I' for Inactive)
REMARK    1  A    between atoms: C_1  and  C_2
REMARK    2  A    between atoms: C_5  and  C_6
REMARK    3  A    between atoms: C_10  and  C_11
REMARK    4  A    between atoms: C_11  and  C_12
REMARK    5  A    between atoms: C_12  and  C_13
REMARK    6  A    between atoms: C_16  and  C_17
REMARK                            x       y       z     vdW  Elec       q    Type
REMARK                         _______ _______ _______ _____ _____    ______ ____
ROOT
ATOM      1  C   UNL     1      45.577   6.659  11.581  0.00  0.00    +0.000 A 
ATOM      2  C   UNL     1      44.722   7.754  11.397  0.00  0.00    +0.000 A 
ATOM      3  C   UNL     1      44.979   8.934  12.073  0.00  0.00    +0.000 A 
ATOM      4  N   UNL     1      46.018   9.108  12.914  0.00  0.00    +0.000 NA
ATOM      5  C   UNL     1      46.838   8.052  13.118  0.00  0.00    +0.000 A 
ATOM      6  C   UNL     1      46.654   6.834  12.466  0.00  0.00    +0.000 A 
ENDROOT
BRANCH   1  11
ATOM      7  C   UNL     1      44.785   1.729   8.870  0.00  0.00    +0.000 C 
ATOM      8  C   UNL     1      44.997   3.027   9.569  0.00  0.00    +0.000 A 
ATOM      9  C   UNL     1      45.434   4.166   8.929  0.00  0.00    +0.000 A 
ATOM     10  N   UNL     1      45.625   5.348   9.546  0.00  0.00    +0.000 NA
ATOM     11  C   UNL     1      45.365   5.387  10.868  0.00  0.00    +0.000 A 
ATOM     12  N   UNL     1      44.936   4.330  11.587  0.00  0.00    +0.000 NA
ATOM     13  C   UNL     1      44.761   3.176  10.918  0.00  0.00    +0.000 A 
ENDBRANCH   1  11
BRANCH   5  14
ATOM     14  C   UNL     1      48.033   8.247  14.020  0.00  0.00    +0.000 C 
BRANCH  14  15
ATOM     15  C   UNL     1      48.884   6.981  14.160  0.00  0.00    +0.000 C 
BRANCH  15  16
ATOM     16  C   UNL     1      48.753   6.369  15.530  0.00  0.00    +0.000 A 
ATOM     17  C   UNL     1      49.272   7.009  16.656  0.00  0.00    +0.000 A 
ATOM     18  N   UNL     1      49.186   6.499  17.911  0.00  0.00    +0.000 NA
ATOM     19  C   UNL     1      48.534   5.304  17.994  0.00  0.00    +0.000 A 
ATOM     20  C   UNL     1      47.998   4.667  16.886  0.00  0.00    +0.000 A 
ATOM     21  N   UNL     1      48.094   5.185  15.635  0.00  0.00    +0.000 NA
BRANCH  19  22
ATOM     22  C   UNL     1      48.421   4.667  19.334  0.00  0.00    +0.000 C 
ATOM     23  N   UNL     1      48.404   3.298  19.350  0.00  0.00    +0.000 N 
ATOM     24  O   UNL     1      48.341   5.323  20.366  0.00  0.00    +0.000 OA
ATOM     25  H   UNL     1      48.464   2.779  18.482  0.00  0.00    +0.000 HD
ATOM     26  H   UNL     1      48.312   2.816  20.232  0.00  0.00    +0.000 HD
ENDBRANCH  19  22
ENDBRANCH  15  16
ENDBRANCH  14  15
ENDBRANCH   5  14
TORSDOF 5
ENDMDL
MODEL 9
REMARK VINA RESULT:    -6.296      4.655      7.662
REMARK INTER + INTRA:          -8.682
REMARK INTER:                  -7.949
REMARK INTRA:                  -0.733
REMARK UNBOUND:                -0.546
REMARK  Name = 
REMARK  6 active torsions:
REMARK  status: ('A' for Active; 'I' for Inactive)
REMARK    1  A    between atoms: C_1  and  C_2
REMARK    2  A    between atoms: C_5  and  C_6
REMARK    3  A    between atoms: C_10  and  C_11
REMARK    4  A    between atoms: C_11  and  C_12
REMARK    5  A    between atoms: C_12  and  C_13
REMARK    6  A    between atoms: C_16  and  C_17
REMARK                            x       y       z     vdW  Elec       q    Type
REMARK                         _______ _______ _______ _____ _____    ______ ____
ROOT
ATOM      1  C   UNL     1      44.897  10.797  11.382  0.00  0.00    +0.000 A 
ATOM      2  C   UNL     1      45.850  11.656  10.820  0.00  0.00    +0.000 A 
ATOM      3  C   UNL     1      47.190  11.459  11.105  0.00  0.00    +0.000 A 
ATOM      4  N   UNL     1      47.652  10.476  11.904  0.00  0.00    +0.000 NA
ATOM      5  C   UNL     1      46.740   9.654  12.471  0.00  0.00    +0.000 A 
ATOM      6  C   UNL     1      45.374   9.779  12.224  0.00  0.00    +0.000 A 
ENDROOT
BRANCH   1  11
ATOM      7  C   UNL     1      39.366  11.402  10.232  0.00  0.00    +0.000 C 
ATOM      8  C   UNL     1      40.812  11.246  10.547  0.00  0.00    +0.000 A 
ATOM      9  C   UNL     1      41.321  11.341  11.823  0.00  0.00    +0.000 A 
ATOM     10  N   UNL     1      42.627  11.196  12.124  0.00  0.00    +0.000 NA
ATOM     11  C   UNL     1      43.459  10.946  11.093  0.00  0.00    +0.000 A 
ATOM     12  N   UNL     1      43.063  10.836   9.809  0.00  0.00    +0.000 NA
ATOM     13  C   UNL     1      41.747  10.988   9.568  0.00  0.00    +0.000 A 
ENDBRANCH   1  11
BRANCH   5  14
ATOM     14  C   UNL     1      47.246   8.519  13.329  0.00  0.00    +0.000 C 
BRANCH  14  15
ATOM     15  C   UNL     1      47.843   7.373  12.506  0.00  0.00    +0.000 C 
BRANCH  15  16
ATOM     16  C   UNL     1      46.833   6.286  12.249  0.00  0.00    +0.000 A 
ATOM     17  C   UNL     1      46.493   5.371  13.245  0.00  0.00    +0.000 A 
ATOM     18  N   UNL     1      45.594   4.370  13.064  0.00  0.00    +0.000 NA
ATOM     19  C   UNL     1      45.031   4.331  11.823  0.00  0.00    +0.000 A 
ATOM     20  C   UNL     1      45.347   5.246  10.831  0.00  0.00    +0.000 A 
ATOM     21  N   UNL     1      46.251   6.240  11.023  0.00  0.00    +0.000 NA
BRANCH  19  22
ATOM     22  C   UNL     1      44.054   3.246  11.538  0.00  0.00    +0.000 C 
ATOM     23  N   UNL     1      43.841   2.346  12.547  0.00  0.00    +0.000 N 
ATOM     24  O   UNL     1      43.474   3.153  10.462  0.00  0.00    +0.000 OA
ATOM     25  H   UNL     1      44.339   2.441  13.425  0.00  0.00    +0.000 HD
ATOM     26  H   UNL     1      43.201   1.581  12.401  0.00  0.00    +0.000 HD
ENDBRANCH  19  22
ENDBRANCH  15  16
ENDBRANCH  14  15
ENDBRANCH   5  14
TORSDOF 5
ENDMDL
