MODEL 1
REMARK VINA RESULT:    -6.680      0.000      0.000
REMARK INTER + INTRA:         -11.389
REMARK INTER:                  -9.413
REMARK INTRA:                  -1.975
REMARK UNBOUND:                -1.975
REMARK  Name = 
REMARK  8 active torsions:
REMARK  status: ('A' for Active; 'I' for Inactive)
REMARK    1  A    between atoms: C_1  and  C_2
REMARK    2  A    between atoms: C_2  and  C_3
REMARK    3  A    between atoms: C_3  and  N_4
REMARK    4  A    between atoms: N_4  and  C_5
REMARK    5  A    between atoms: C_5  and  C_6
REMARK    6  A    between atoms: C_10  and  C_11
REMARK    7  A    between atoms: C_11  and  C_12
REMARK    8  A    between atoms: C_19  and  C_21
REMARK                            x       y       z     vdW  Elec       q    Type
REMARK                         _______ _______ _______ _____ _____    ______ ____
ROOT
ATOM      1  N   UNL     1      46.388   7.131  12.187  0.00  0.00    +0.000 N 
ATOM      2  C   UNL     1      45.104   6.804  11.690  0.00  0.00    +0.000 C 
ATOM      3  O   UNL     1      44.324   7.669  11.299  0.00  0.00    +0.000 OA
ENDROOT
BRANCH   2   4
ATOM      4  C   UNL     1      44.669   5.399  11.666  0.00  0.00    +0.000 A 
ATOM      5  C   UNL     1      43.936   4.767  12.660  0.00  0.00    +0.000 A 
ATOM      6  S   UNL     1      43.533   3.149  12.295  0.00  0.00    +0.000 S 
ATOM      7  C   UNL     1      44.189   3.290  10.732  0.00  0.00    +0.000 A 
ATOM      8  N   UNL     1      44.076   2.280   9.828  0.00  0.00    +0.000 NA
ATOM      9  C   UNL     1      44.559   2.556   8.666  0.00  0.00    +0.000 A 
ATOM     10  N   UNL     1      45.181   3.736   8.333  0.00  0.00    +0.000 N 
ATOM     11  C   UNL     1      45.443   4.729   9.253  0.00  0.00    +0.000 A 
ATOM     12  O   UNL     1      46.210   5.648   8.997  0.00  0.00    +0.000 OA
ATOM     13  C   UNL     1      44.799   4.515  10.537  0.00  0.00    +0.000 A 
ATOM     14  H   UNL     1      45.602   3.858   7.427  0.00  0.00    +0.000 HD
ENDBRANCH   2   4
BRANCH   1  15
ATOM     15  C   UNL     1      46.713   8.559  12.292  0.00  0.00    +0.000 C 
BRANCH  15  17
ATOM     16  C   UNL     1      48.856   9.710  13.082  0.00  0.00    +0.000 C 
ATOM     17  C   UNL     1      48.172   8.901  11.991  0.00  0.00    +0.000 C 
ENDBRANCH  15  17
ENDBRANCH   1  15
BRANCH   1  18
ATOM     18  C   UNL     1      47.311   6.102  12.661  0.00  0.00    +0.000 C 
BRANCH  18  19
ATOM     19  C   UNL     1      47.488   5.764  14.119  0.00  0.00    +0.000 A 
ATOM     20  C   UNL     1      46.957   4.579  14.647  0.00  0.00    +0.000 A 
ATOM     21  C   UNL     1      47.353   4.123  15.903  0.00  0.00    +0.000 A 
ATOM     22  C   UNL     1      48.274   4.854  16.654  0.00  0.00    +0.000 A 
ATOM     23  C   UNL     1      48.775   6.071  16.176  0.00  0.00    +0.000 A 
ATOM     24  C   UNL     1      48.375   6.519  14.908  0.00  0.00    +0.000 A 
BRANCH  23  25
ATOM     25  C   UNL     1      49.701   6.903  17.035  0.00  0.00    +0.000 C 
BRANCH  25  26
ATOM     26  C   UNL     1      49.014   8.123  17.590  0.00  0.00    +0.000 A 
ATOM     27  C   UNL     1      47.993   8.020  18.539  0.00  0.00    +0.000 A 
ATOM     28  C   UNL     1      47.317   9.165  18.952  0.00  0.00    +0.000 A 
ATOM     29  C   UNL     1      47.693  10.382  18.407  0.00  0.00    +0.000 A 
ATOM     30  N   UNL     1      48.687  10.525  17.505  0.00  0.00    +0.000 NA
ATOM     31  C   UNL     1      49.318   9.395  17.114  0.00  0.00    +0.000 A 
ENDBRANCH  25  26
ENDBRANCH  23  25
ENDBRANCH  18  19
ENDBRANCH   1  18
TORSDOF 7
ENDMDL
MODEL 2
REMARK VINA RESULT:    -6.270      3.935      7.579
REMARK INTER + INTRA:         -10.811
REMARK INTER:                  -8.858
REMARK INTRA:                  -1.953
REMARK UNBOUND:                -1.975
REMARK  Name = 
REMARK  8 active torsions:
REMARK  status: ('A' for Active; 'I' for Inactive)
REMARK    1  A    between atoms: C_1  and  C_2
REMARK    2  A    between atoms: C_2  and  C_3
REMARK    3  A    between atoms: C_3  and  N_4
REMARK    4  A    between atoms: N_4  and  C_5
REMARK    5  A    between atoms: C_5  and  C_6
REMARK    6  A    between atoms: C_10  and  C_11
REMARK    7  A    between atoms: C_11  and  C_12
REMARK    8  A    between atoms: C_19  and  C_21
REMARK                            x       y       z     vdW  Elec       q    Type
REMARK                         _______ _______ _______ _____ _____    ______ ____
ROOT
ATOM      1  N   UNL     1      49.580   7.320  16.911  0.00  0.00    +0.000 N 
ATOM      2  C   UNL     1      48.974   6.404  17.803  0.00  0.00    +0.000 C 
ATOM      3  O   UNL     1      48.579   6.750  18.913  0.00  0.00    +0.000 OA
ENDROOT
BRANCH   2   4
ATOM      4  C   UNL     1      48.838   4.992  17.414  0.00  0.00    +0.000 A 
ATOM      5  C   UNL     1      47.799   4.460  16.664  0.00  0.00    +0.000 A 
ATOM      6  S   UNL     1      47.973   2.796  16.328  0.00  0.00    +0.000 S 
ATOM      7  C   UNL     1      49.519   2.767  17.039  0.00  0.00    +0.000 A 
ATOM      8  N   UNL     1      50.293   1.650  16.994  0.00  0.00    +0.000 NA
ATOM      9  C   UNL     1      51.463   1.798  17.512  0.00  0.00    +0.000 A 
ATOM     10  N   UNL     1      51.918   2.951  18.107  0.00  0.00    +0.000 N 
ATOM     11  C   UNL     1      51.122   4.058  18.302  0.00  0.00    +0.000 A 
ATOM     12  O   UNL     1      51.463   4.966  19.048  0.00  0.00    +0.000 OA
ATOM     13  C   UNL     1      49.843   3.980  17.616  0.00  0.00    +0.000 A 
ATOM     14  H   UNL     1      52.818   2.975  18.559  0.00  0.00    +0.000 HD
ENDBRANCH   2   4
BRANCH   1  15
ATOM     15  C   UNL     1      49.790   8.686  17.407  0.00  0.00    +0.000 C 
BRANCH  15  17
ATOM     16  C   UNL     1      49.101  10.672  15.949  0.00  0.00    +0.000 C 
ATOM     17  C   UNL     1      48.691   9.676  17.023  0.00  0.00    +0.000 C 
ENDBRANCH  15  17
ENDBRANCH   1  15
BRANCH   1  18
ATOM     18  C   UNL     1      50.059   6.904  15.594  0.00  0.00    +0.000 C 
BRANCH  18  19
ATOM     19  C   UNL     1      49.407   7.340  14.306  0.00  0.00    +0.000 A 
ATOM     20  C   UNL     1      50.186   7.715  13.203  0.00  0.00    +0.000 A 
ATOM     21  C   UNL     1      49.611   7.839  11.940  0.00  0.00    +0.000 A 
ATOM     22  C   UNL     1      48.246   7.608  11.766  0.00  0.00    +0.000 A 
ATOM     23  C   UNL     1      47.433   7.290  12.862  0.00  0.00    +0.000 A 
ATOM     24  C   UNL     1      48.023   7.160  14.129  0.00  0.00    +0.000 A 
BRANCH  23  25
ATOM     25  C   UNL     1      45.940   7.131  12.682  0.00  0.00    +0.000 C 
BRANCH  25  26
ATOM     26  C   UNL     1      45.570   5.744  12.227  0.00  0.00    +0.000 A 
ATOM     27  C   UNL     1      45.272   5.467  10.889  0.00  0.00    +0.000 A 
ATOM     28  C   UNL     1      44.839   4.195  10.528  0.00  0.00    +0.000 A 
ATOM     29  C   UNL     1      44.726   3.234  11.520  0.00  0.00    +0.000 A 
ATOM     30  N   UNL     1      45.023   3.456  12.817  0.00  0.00    +0.000 NA
ATOM     31  C   UNL     1      45.431   4.704  13.141  0.00  0.00    +0.000 A 
ENDBRANCH  25  26
ENDBRANCH  23  25
ENDBRANCH  18  19
ENDBRANCH   1  18
TORSDOF 7
ENDMDL
MODEL 3
REMARK VINA RESULT:    -6.196      3.266      7.980
REMARK INTER + INTRA:         -10.706
REMARK INTER:                  -8.953
REMARK INTRA:                  -1.753
REMARK UNBOUND:                -1.975
REMARK  Name = 
REMARK  8 active torsions:
REMARK  status: ('A' for Active; 'I' for Inactive)
REMARK    1  A    between atoms: C_1  and  C_2
REMARK    2  A    between atoms: C_2  and  C_3
REMARK    3  A    between atoms: C_3  and  N_4
REMARK    4  A    between atoms: N_4  and  C_5
REMARK    5  A    between atoms: C_5  and  C_6
REMARK    6  A    between atoms: C_10  and  C_11
REMARK    7  A    between atoms: C_11  and  C_12
REMARK    8  A    between atoms: C_19  and  C_21
REMARK                            x       y       z     vdW  Elec       q    Type
REMARK                         _______ _______ _______ _____ _____    ______ ____
ROOT
ATOM      1  N   UNL     1      49.277   8.024  13.864  0.00  0.00    +0.000 N 
ATOM      2  C   UNL     1      49.974   8.392  15.039  0.00  0.00    +0.000 C 
ATOM      3  O   UNL     1      51.187   8.582  15.036  0.00  0.00    +0.000 OA
ENDROOT
BRANCH   2   4
ATOM      4  C   UNL     1      49.242   8.522  16.308  0.00  0.00    +0.000 A 
ATOM      5  C   UNL     1      48.610   9.672  16.759  0.00  0.00    +0.000 A 
ATOM      6  S   UNL     1      47.792   9.472  18.243  0.00  0.00    +0.000 S 
ATOM      7  C   UNL     1      48.121   7.803  18.253  0.00  0.00    +0.000 A 
ATOM      8  N   UNL     1      47.602   6.989  19.210  0.00  0.00    +0.000 NA
ATOM      9  C   UNL     1      47.880   5.742  19.049  0.00  0.00    +0.000 A 
ATOM     10  N   UNL     1      48.666   5.235  18.041  0.00  0.00    +0.000 N 
ATOM     11  C   UNL     1      49.328   6.035  17.134  0.00  0.00    +0.000 A 
ATOM     12  O   UNL     1      50.208   5.587  16.413  0.00  0.00    +0.000 OA
ATOM     13  C   UNL     1      48.934   7.432  17.198  0.00  0.00    +0.000 A 
ATOM     14  H   UNL     1      48.905   4.257  18.016  0.00  0.00    +0.000 HD
ENDBRANCH   2   4
BRANCH   1  15
ATOM     15  C   UNL     1      50.085   7.798  12.659  0.00  0.00    +0.000 C 
BRANCH  15  17
ATOM     16  C   UNL     1      49.505  10.012  11.516  0.00  0.00    +0.000 C 
ATOM     17  C   UNL     1      49.561   8.496  11.404  0.00  0.00    +0.000 C 
ENDBRANCH  15  17
ENDBRANCH   1  15
BRANCH   1  18
ATOM     18  C   UNL     1      47.834   7.789  13.871  0.00  0.00    +0.000 C 
BRANCH  18  19
ATOM     19  C   UNL     1      47.209   6.492  13.423  0.00  0.00    +0.000 A 
ATOM     20  C   UNL     1      47.422   5.311  14.147  0.00  0.00    +0.000 A 
ATOM     21  C   UNL     1      46.632   4.187  13.914  0.00  0.00    +0.000 A 
ATOM     22  C   UNL     1      45.631   4.224  12.943  0.00  0.00    +0.000 A 
ATOM     23  C   UNL     1      45.437   5.371  12.164  0.00  0.00    +0.000 A 
ATOM     24  C   UNL     1      46.233   6.501  12.410  0.00  0.00    +0.000 A 
BRANCH  23  25
ATOM     25  C   UNL     1      44.413   5.373  11.051  0.00  0.00    +0.000 C 
BRANCH  25  26
ATOM     26  C   UNL     1      44.854   4.542   9.875  0.00  0.00    +0.000 A 
ATOM     27  C   UNL     1      44.452   3.211   9.728  0.00  0.00    +0.000 A 
ATOM     28  C   UNL     1      44.961   2.449   8.680  0.00  0.00    +0.000 A 
ATOM     29  C   UNL     1      45.852   3.048   7.805  0.00  0.00    +0.000 A 
ATOM     30  N   UNL     1      46.248   4.335   7.901  0.00  0.00    +0.000 NA
ATOM     31  C   UNL     1      45.746   5.048   8.935  0.00  0.00    +0.000 A 
ENDBRANCH  25  26
ENDBRANCH  23  25
ENDBRANCH  18  19
ENDBRANCH   1  18
TORSDOF 7
ENDMDL
MODEL 4
REMARK VINA RESULT:    -6.130      2.819      4.878
REMARK INTER + INTRA:         -10.614
REMARK INTER:                  -8.333
REMARK INTRA:                  -2.281
REMARK UNBOUND:                -1.975
REMARK  Name = 
REMARK  8 active torsions:
REMARK  status: ('A' for Active; 'I' for Inactive)
REMARK    1  A    between atoms: C_1  and  C_2
REMARK    2  A    between atoms: C_2  and  C_3
REMARK    3  A    between atoms: C_3  and  N_4
REMARK    4  A    between atoms: N_4  and  C_5
REMARK    5  A    between atoms: C_5  and  C_6
REMARK    6  A    between atoms: C_10  and  C_11
REMARK    7  A    between atoms: C_11  and  C_12
REMARK    8  A    between atoms: C_19  and  C_21
REMARK                            x       y       z     vdW  Elec       q    Type
REMARK                         _______ _______ _______ _____ _____    ______ ____
ROOT
ATOM      1  N   UNL     1      49.364   8.443  14.302  0.00  0.00    +0.000 N 
ATOM      2  C   UNL     1      48.928   7.752  13.147  0.00  0.00    +0.000 C 
ATOM      3  O   UNL     1      49.724   7.253  12.355  0.00  0.00    +0.000 OA
ENDROOT
BRANCH   2   4
ATOM      4  C   UNL     1      47.489   7.650  12.859  0.00  0.00    +0.000 A 
ATOM      5  C   UNL     1      46.752   8.554  12.109  0.00  0.00    +0.000 A 
ATOM      6  S   UNL     1      45.117   8.109  11.905  0.00  0.00    +0.000 S 
ATOM      7  C   UNL     1      45.378   6.617  12.679  0.00  0.00    +0.000 A 
ATOM      8  N   UNL     1      44.396   5.679  12.749  0.00  0.00    +0.000 NA
ATOM      9  C   UNL     1      44.760   4.575  13.303  0.00  0.00    +0.000 A 
ATOM     10  N   UNL     1      46.007   4.333  13.830  0.00  0.00    +0.000 N 
ATOM     11  C   UNL     1      46.986   5.300  13.908  0.00  0.00    +0.000 A 
ATOM     12  O   UNL     1      47.985   5.141  14.598  0.00  0.00    +0.000 OA
ATOM     13  C   UNL     1      46.663   6.513  13.178  0.00  0.00    +0.000 A 
ATOM     14  H   UNL     1      46.203   3.473  14.315  0.00  0.00    +0.000 HD
ENDBRANCH   2   4
BRANCH   1  15
ATOM     15  C   UNL     1      50.813   8.609  14.466  0.00  0.00    +0.000 C 
BRANCH  15  17
ATOM     16  C   UNL     1      51.741  10.437  15.997  0.00  0.00    +0.000 C 
ATOM     17  C   UNL     1      51.274  10.060  14.599  0.00  0.00    +0.000 C 
ENDBRANCH  15  17
ENDBRANCH   1  15
BRANCH   1  18
ATOM     18  C   UNL     1      48.416   9.045  15.238  0.00  0.00    +0.000 C 
BRANCH  18  19
ATOM     19  C   UNL     1      48.441   8.778  16.721  0.00  0.00    +0.000 A 
ATOM     20  C   UNL     1      47.757   9.618  17.610  0.00  0.00    +0.000 A 
ATOM     21  C   UNL     1      47.537   9.225  18.928  0.00  0.00    +0.000 A 
ATOM     22  C   UNL     1      48.014   7.995  19.381  0.00  0.00    +0.000 A 
ATOM     23  C   UNL     1      48.753   7.162  18.531  0.00  0.00    +0.000 A 
ATOM     24  C   UNL     1      48.963   7.563  17.202  0.00  0.00    +0.000 A 
BRANCH  23  25
ATOM     25  C   UNL     1      49.345   5.872  19.054  0.00  0.00    +0.000 C 
BRANCH  25  26
ATOM     26  C   UNL     1      49.001   4.696  18.180  0.00  0.00    +0.000 A 
ATOM     27  C   UNL     1      47.684   4.248  18.040  0.00  0.00    +0.000 A 
ATOM     28  C   UNL     1      47.421   3.098  17.303  0.00  0.00    +0.000 A 
ATOM     29  C   UNL     1      48.488   2.436  16.716  0.00  0.00    +0.000 A 
ATOM     30  N   UNL     1      49.769   2.848  16.810  0.00  0.00    +0.000 NA
ATOM     31  C   UNL     1      49.996   3.961  17.543  0.00  0.00    +0.000 A 
ENDBRANCH  25  26
ENDBRANCH  23  25
ENDBRANCH  18  19
ENDBRANCH   1  18
TORSDOF 7
ENDMDL
MODEL 5
REMARK VINA RESULT:    -5.762      3.301      7.974
REMARK INTER + INTRA:         -10.095
REMARK INTER:                  -8.589
REMARK INTRA:                  -1.506
REMARK UNBOUND:                -1.975
REMARK  Name = 
REMARK  8 active torsions:
REMARK  status: ('A' for Active; 'I' for Inactive)
REMARK    1  A    between atoms: C_1  and  C_2
REMARK    2  A    between atoms: C_2  and  C_3
REMARK    3  A    between atoms: C_3  and  N_4
REMARK    4  A    between atoms: N_4  and  C_5
REMARK    5  A    between atoms: C_5  and  C_6
REMARK    6  A    between atoms: C_10  and  C_11
REMARK    7  A    between atoms: C_11  and  C_12
REMARK    8  A    between atoms: C_19  and  C_21
REMARK                            x       y       z     vdW  Elec       q    Type
REMARK                         _______ _______ _______ _____ _____    ______ ____
ROOT
ATOM      1  N   UNL     1      48.616   8.557  13.125  0.00  0.00    +0.000 N 
ATOM      2  C   UNL     1      48.970   9.062  14.398  0.00  0.00    +0.000 C 
ATOM      3  O   UNL     1      48.815  10.246  14.688  0.00  0.00    +0.000 OA
ENDROOT
BRANCH   2   4
ATOM      4  C   UNL     1      49.567   8.164  15.398  0.00  0.00    +0.000 A 
ATOM      5  C   UNL     1      48.866   7.447  16.357  0.00  0.00    +0.000 A 
ATOM      6  S   UNL     1      49.852   6.442  17.322  0.00  0.00    +0.000 S 
ATOM      7  C   UNL     1      51.225   6.812  16.389  0.00  0.00    +0.000 A 
ATOM      8  N   UNL     1      52.414   6.191  16.609  0.00  0.00    +0.000 NA
ATOM      9  C   UNL     1      53.343   6.522  15.781  0.00  0.00    +0.000 A 
ATOM     10  N   UNL     1      53.205   7.449  14.775  0.00  0.00    +0.000 N 
ATOM     11  C   UNL     1      52.066   8.205  14.604  0.00  0.00    +0.000 A 
ATOM     12  O   UNL     1      52.055   9.186  13.873  0.00  0.00    +0.000 OA
ATOM     13  C   UNL     1      50.952   7.769  15.429  0.00  0.00    +0.000 A 
ATOM     14  H   UNL     1      53.995   7.716  14.209  0.00  0.00    +0.000 HD
ENDBRANCH   2   4
BRANCH   1  15
ATOM     15  C   UNL     1      48.134   9.530  12.137  0.00  0.00    +0.000 C 
BRANCH  15  17
ATOM     16  C   UNL     1      45.866   9.031  13.208  0.00  0.00    +0.000 C 
ATOM     17  C   UNL     1      46.613   9.612  12.018  0.00  0.00    +0.000 C 
ENDBRANCH  15  17
ENDBRANCH   1  15
BRANCH   1  18
ATOM     18  C   UNL     1      48.809   7.150  12.779  0.00  0.00    +0.000 C 
BRANCH  18  19
ATOM     19  C   UNL     1      47.695   6.134  12.810  0.00  0.00    +0.000 A 
ATOM     20  C   UNL     1      47.430   5.401  13.974  0.00  0.00    +0.000 A 
ATOM     21  C   UNL     1      46.243   4.682  14.104  0.00  0.00    +0.000 A 
ATOM     22  C   UNL     1      45.314   4.674  13.064  0.00  0.00    +0.000 A 
ATOM     23  C   UNL     1      45.580   5.349  11.866  0.00  0.00    +0.000 A 
ATOM     24  C   UNL     1      46.775   6.076  11.748  0.00  0.00    +0.000 A 
BRANCH  23  25
ATOM     25  C   UNL     1      44.609   5.260  10.709  0.00  0.00    +0.000 C 
BRANCH  25  26
ATOM     26  C   UNL     1      45.087   4.310   9.643  0.00  0.00    +0.000 A 
ATOM     27  C   UNL     1      44.931   2.927   9.771  0.00  0.00    +0.000 A 
ATOM     28  C   UNL     1      45.474   2.080   8.810  0.00  0.00    +0.000 A 
ATOM     29  C   UNL     1      46.150   2.646   7.741  0.00  0.00    +0.000 A 
ATOM     30  N   UNL     1      46.303   3.976   7.571  0.00  0.00    +0.000 NA
ATOM     31  C   UNL     1      45.776   4.775   8.526  0.00  0.00    +0.000 A 
ENDBRANCH  25  26
ENDBRANCH  23  25
ENDBRANCH  18  19
ENDBRANCH   1  18
TORSDOF 7
ENDMDL
MODEL 6
REMARK VINA RESULT:    -5.480      3.459      8.170
REMARK INTER + INTRA:          -9.698
REMARK INTER:                  -8.564
REMARK INTRA:                  -1.134
REMARK UNBOUND:                -1.975
REMARK  Name = 
REMARK  8 active torsions:
REMARK  status: ('A' for Active; 'I' for Inactive)
REMARK    1  A    between atoms: C_1  and  C_2
REMARK    2  A    between atoms: C_2  and  C_3
REMARK    3  A    between atoms: C_3  and  N_4
REMARK    4  A    between atoms: N_4  and  C_5
REMARK    5  A    between atoms: C_5  and  C_6
REMARK    6  A    between atoms: C_10  and  C_11
REMARK    7  A    between atoms: C_11  and  C_12
REMARK    8  A    between atoms: C_19  and  C_21
REMARK                            x       y       z     vdW  Elec       q    Type
REMARK                         _______ _______ _______ _____ _____    ______ ____
ROOT
ATOM      1  N   UNL     1      46.793   8.969  12.190  0.00  0.00    +0.000 N 
ATOM      2  C   UNL     1      47.839   9.791  12.670  0.00  0.00    +0.000 C 
ATOM      3  O   UNL     1      47.611  10.829  13.287  0.00  0.00    +0.000 OA
ENDROOT
BRANCH   2   4
ATOM      4  C   UNL     1      49.238   9.422  12.403  0.00  0.00    +0.000 A 
ATOM      5  C   UNL     1      49.946   9.734  11.251  0.00  0.00    +0.000 A 
ATOM      6  S   UNL     1      51.572   9.218  11.282  0.00  0.00    +0.000 S 
ATOM      7  C   UNL     1      51.427   8.702  12.896  0.00  0.00    +0.000 A 
ATOM      8  N   UNL     1      52.504   8.248  13.590  0.00  0.00    +0.000 NA
ATOM      9  C   UNL     1      52.256   7.958  14.820  0.00  0.00    +0.000 A 
ATOM     10  N   UNL     1      51.018   8.043  15.413  0.00  0.00    +0.000 N 
ATOM     11  C   UNL     1      49.873   8.361  14.714  0.00  0.00    +0.000 A 
ATOM     12  O   UNL     1      48.763   8.187  15.197  0.00  0.00    +0.000 OA
ATOM     13  C   UNL     1      50.130   8.823  13.361  0.00  0.00    +0.000 A 
ATOM     14  H   UNL     1      50.879   7.730  16.360  0.00  0.00    +0.000 HD
ENDBRANCH   2   4
BRANCH   1  15
ATOM     15  C   UNL     1      45.423   9.456  12.390  0.00  0.00    +0.000 C 
BRANCH  15  17
ATOM     16  C   UNL     1      43.447  10.401  11.068  0.00  0.00    +0.000 C 
ATOM     17  C   UNL     1      44.519   9.326  11.165  0.00  0.00    +0.000 C 
ENDBRANCH  15  17
ENDBRANCH   1  15
BRANCH   1  18
ATOM     18  C   UNL     1      47.065   7.739  11.448  0.00  0.00    +0.000 C 
BRANCH  18  19
ATOM     19  C   UNL     1      46.459   6.408  11.810  0.00  0.00    +0.000 A 
ATOM     20  C   UNL     1      46.443   5.969  13.141  0.00  0.00    +0.000 A 
ATOM     21  C   UNL     1      45.643   4.893  13.522  0.00  0.00    +0.000 A 
ATOM     22  C   UNL     1      44.862   4.231  12.575  0.00  0.00    +0.000 A 
ATOM     23  C   UNL     1      44.905   4.611  11.227  0.00  0.00    +0.000 A 
ATOM     24  C   UNL     1      45.708   5.700  10.854  0.00  0.00    +0.000 A 
BRANCH  23  25
ATOM     25  C   UNL     1      44.126   3.831  10.191  0.00  0.00    +0.000 C 
BRANCH  25  26
ATOM     26  C   UNL     1      45.008   3.338   9.074  0.00  0.00    +0.000 A 
ATOM     27  C   UNL     1      45.406   2.001   8.990  0.00  0.00    +0.000 A 
ATOM     28  C   UNL     1      46.300   1.608   7.999  0.00  0.00    +0.000 A 
ATOM     29  C   UNL     1      46.762   2.568   7.114  0.00  0.00    +0.000 A 
ATOM     30  N   UNL     1      46.386   3.864   7.149  0.00  0.00    +0.000 NA
ATOM     31  C   UNL     1      45.526   4.219   8.129  0.00  0.00    +0.000 A 
ENDBRANCH  25  26
ENDBRANCH  23  25
ENDBRANCH  18  19
ENDBRANCH   1  18
TORSDOF 7
ENDMDL
MODEL 7
REMARK VINA RESULT:    -5.436      3.604      7.445
REMARK INTER + INTRA:          -9.636
REMARK INTER:                  -7.529
REMARK INTRA:                  -2.107
REMARK UNBOUND:                -1.975
REMARK  Name = 
REMARK  8 active torsions:
REMARK  status: ('A' for Active; 'I' for Inactive)
REMARK    1  A    between atoms: C_1  and  C_2
REMARK    2  A    between atoms: C_2  and  C_3
REMARK    3  A    between atoms: C_3  and  N_4
REMARK    4  A    between atoms: N_4  and  C_5
REMARK    5  A    between atoms: C_5  and  C_6
REMARK    6  A    between atoms: C_10  and  C_11
REMARK    7  A    between atoms: C_11  and  C_12
REMARK    8  A    between atoms: C_19  and  C_21
REMARK                            x       y       z     vdW  Elec       q    Type
REMARK                         _______ _______ _______ _____ _____    ______ ____
ROOT
ATOM      1  N   UNL     1      50.151   9.309  15.693  0.00  0.00    +0.000 N 
ATOM      2  C   UNL     1      50.538   8.753  16.934  0.00  0.00    +0.000 C 
ATOM      3  O   UNL     1      51.720   8.630  17.246  0.00  0.00    +0.000 OA
ENDROOT
BRANCH   2   4
ATOM      4  C   UNL     1      49.509   8.276  17.872  0.00  0.00    +0.000 A 
ATOM      5  C   UNL     1      48.857   9.057  18.815  0.00  0.00    +0.000 A 
ATOM      6  S   UNL     1      47.666   8.214  19.701  0.00  0.00    +0.000 S 
ATOM      7  C   UNL     1      47.874   6.822  18.746  0.00  0.00    +0.000 A 
ATOM      8  N   UNL     1      47.070   5.736  18.901  0.00  0.00    +0.000 NA
ATOM      9  C   UNL     1      47.301   4.786  18.062  0.00  0.00    +0.000 A 
ATOM     10  N   UNL     1      48.288   4.803  17.106  0.00  0.00    +0.000 N 
ATOM     11  C   UNL     1      49.215   5.819  17.006  0.00  0.00    +0.000 A 
ATOM     12  O   UNL     1      50.224   5.696  16.324  0.00  0.00    +0.000 OA
ATOM     13  C   UNL     1      48.909   6.967  17.842  0.00  0.00    +0.000 A 
ATOM     14  H   UNL     1      48.463   3.995  16.531  0.00  0.00    +0.000 HD
ENDBRANCH   2   4
BRANCH   1  15
ATOM     15  C   UNL     1      51.229   9.656  14.758  0.00  0.00    +0.000 C 
BRANCH  15  17
ATOM     16  C   UNL     1      51.520   8.685  12.409  0.00  0.00    +0.000 C 
ATOM     17  C   UNL     1      51.725   8.490  13.903  0.00  0.00    +0.000 C 
ENDBRANCH  15  17
ENDBRANCH   1  15
BRANCH   1  18
ATOM     18  C   UNL     1      48.744   9.446  15.320  0.00  0.00    +0.000 C 
BRANCH  18  19
ATOM     19  C   UNL     1      48.126   8.713  14.157  0.00  0.00    +0.000 A 
ATOM     20  C   UNL     1      47.976   9.344  12.914  0.00  0.00    +0.000 A 
ATOM     21  C   UNL     1      47.678   8.600  11.774  0.00  0.00    +0.000 A 
ATOM     22  C   UNL     1      47.510   7.218  11.864  0.00  0.00    +0.000 A 
ATOM     23  C   UNL     1      47.595   6.570  13.103  0.00  0.00    +0.000 A 
ATOM     24  C   UNL     1      47.902   7.327  14.245  0.00  0.00    +0.000 A 
BRANCH  23  25
ATOM     25  C   UNL     1      47.320   5.087  13.207  0.00  0.00    +0.000 C 
BRANCH  25  26
ATOM     26  C   UNL     1      45.873   4.760  12.948  0.00  0.00    +0.000 A 
ATOM     27  C   UNL     1      44.868   5.719  13.094  0.00  0.00    +0.000 A 
ATOM     28  C   UNL     1      43.535   5.351  12.941  0.00  0.00    +0.000 A 
ATOM     29  C   UNL     1      43.250   4.030  12.636  0.00  0.00    +0.000 A 
ATOM     30  N   UNL     1      44.192   3.079  12.466  0.00  0.00    +0.000 NA
ATOM     31  C   UNL     1      45.478   3.463  12.632  0.00  0.00    +0.000 A 
ENDBRANCH  25  26
ENDBRANCH  23  25
ENDBRANCH  18  19
ENDBRANCH   1  18
TORSDOF 7
ENDMDL
MODEL 8
REMARK VINA RESULT:    -5.189      3.343      5.580
REMARK INTER + INTRA:          -9.287
REMARK INTER:                  -7.485
REMARK INTRA:                  -1.802
REMARK UNBOUND:                -1.975
REMARK  Name = 
REMARK  8 active torsions:
REMARK  status: ('A' for Active; 'I' for Inactive)
REMARK    1  A    between atoms: C_1  and  C_2
REMARK    2  A    between atoms: C_2  and  C_3
REMARK    3  A    between atoms: C_3  and  N_4
REMARK    4  A    between atoms: N_4  and  C_5
REMARK    5  A    between atoms: C_5  and  C_6
REMARK    6  A    between atoms: C_10  and  C_11
REMARK    7  A    between atoms: C_11  and  C_12
REMARK    8  A    between atoms: C_19  and  C_21
REMARK                            x       y       z     vdW  Elec       q    Type
REMARK                         _______ _______ _______ _____ _____    ______ ____
ROOT
ATOM      1  N   UNL     1      49.922   8.279  14.203  0.00  0.00    +0.000 N 
ATOM      2  C   UNL     1      49.563   7.731  12.950  0.00  0.00    +0.000 C 
ATOM      3  O   UNL     1      50.403   7.499  12.083  0.00  0.00    +0.000 OA
ENDROOT
BRANCH   2   4
ATOM      4  C   UNL     1      48.148   7.458  12.652  0.00  0.00    +0.000 A 
ATOM      5  C   UNL     1      47.525   6.223  12.769  0.00  0.00    +0.000 A 
ATOM      6  S   UNL     1      45.857   6.258  12.412  0.00  0.00    +0.000 S 
ATOM      7  C   UNL     1      45.880   7.950  12.244  0.00  0.00    +0.000 A 
ATOM      8  N   UNL     1      44.734   8.654  12.043  0.00  0.00    +0.000 NA
ATOM      9  C   UNL     1      44.898   9.930  12.004  0.00  0.00    +0.000 A 
ATOM     10  N   UNL     1      46.111  10.570  12.108  0.00  0.00    +0.000 N 
ATOM     11  C   UNL     1      47.311   9.895  12.170  0.00  0.00    +0.000 A 
ATOM     12  O   UNL     1      48.377  10.474  12.010  0.00  0.00    +0.000 OA
ATOM     13  C   UNL     1      47.160   8.461  12.351  0.00  0.00    +0.000 A 
ATOM     14  H   UNL     1      46.177  11.569  11.995  0.00  0.00    +0.000 HD
ENDBRANCH   2   4
BRANCH   1  15
ATOM     15  C   UNL     1      51.334   8.636  14.390  0.00  0.00    +0.000 C 
BRANCH  15  17
ATOM     16  C   UNL     1      53.562   7.497  14.920  0.00  0.00    +0.000 C 
ATOM     17  C   UNL     1      52.107   7.698  15.316  0.00  0.00    +0.000 C 
ENDBRANCH  15  17
ENDBRANCH   1  15
BRANCH   1  18
ATOM     18  C   UNL     1      48.920   8.564  15.230  0.00  0.00    +0.000 C 
BRANCH  18  19
ATOM     19  C   UNL     1      48.874   7.848  16.555  0.00  0.00    +0.000 A 
ATOM     20  C   UNL     1      49.069   8.549  17.753  0.00  0.00    +0.000 A 
ATOM     21  C   UNL     1      48.748   7.964  18.976  0.00  0.00    +0.000 A 
ATOM     22  C   UNL     1      48.244   6.665  19.020  0.00  0.00    +0.000 A 
ATOM     23  C   UNL     1      48.095   5.920  17.843  0.00  0.00    +0.000 A 
ATOM     24  C   UNL     1      48.415   6.519  16.615  0.00  0.00    +0.000 A 
BRANCH  23  25
ATOM     25  C   UNL     1      47.635   4.480  17.906  0.00  0.00    +0.000 C 
BRANCH  25  26
ATOM     26  C   UNL     1      48.746   3.517  17.581  0.00  0.00    +0.000 A 
ATOM     27  C   UNL     1      50.016   3.643  18.151  0.00  0.00    +0.000 A 
ATOM     28  C   UNL     1      51.040   2.792  17.748  0.00  0.00    +0.000 A 
ATOM     29  C   UNL     1      50.758   1.831  16.791  0.00  0.00    +0.000 A 
ATOM     30  N   UNL     1      49.541   1.664  16.233  0.00  0.00    +0.000 NA
ATOM     31  C   UNL     1      48.568   2.512  16.634  0.00  0.00    +0.000 A 
ENDBRANCH  25  26
ENDBRANCH  23  25
ENDBRANCH  18  19
ENDBRANCH   1  18
TORSDOF 7
ENDMDL
MODEL 9
REMARK VINA RESULT:    -5.128      5.338      7.879
REMARK INTER + INTRA:          -9.202
REMARK INTER:                  -7.709
REMARK INTRA:                  -1.492
REMARK UNBOUND:                -1.975
REMARK  Name = 
REMARK  8 active torsions:
REMARK  status: ('A' for Active; 'I' for Inactive)
REMARK    1  A    between atoms: C_1  and  C_2
REMARK    2  A    between atoms: C_2  and  C_3
REMARK    3  A    between atoms: C_3  and  N_4
REMARK    4  A    between atoms: N_4  and  C_5
REMARK    5  A    between atoms: C_5  and  C_6
REMARK    6  A    between atoms: C_10  and  C_11
REMARK    7  A    between atoms: C_11  and  C_12
REMARK    8  A    between atoms: C_19  and  C_21
REMARK                            x       y       z     vdW  Elec       q    Type
REMARK                         _______ _______ _______ _____ _____    ______ ____
ROOT
ATOM      1  N   UNL     1      52.094   8.334  11.454  0.00  0.00    +0.000 N 
ATOM      2  C   UNL     1      53.229   8.511  10.627  0.00  0.00    +0.000 C 
ATOM      3  O   UNL     1      54.306   8.886  11.083  0.00  0.00    +0.000 OA
ENDROOT
BRANCH   2   4
ATOM      4  C   UNL     1      53.119   8.274   9.179  0.00  0.00    +0.000 A 
ATOM      5  C   UNL     1      52.939   9.256   8.215  0.00  0.00    +0.000 A 
ATOM      6  S   UNL     1      52.920   8.656   6.617  0.00  0.00    +0.000 S 
ATOM      7  C   UNL     1      53.308   7.088   7.151  0.00  0.00    +0.000 A 
ATOM      8  N   UNL     1      53.556   6.085   6.268  0.00  0.00    +0.000 NA
ATOM      9  C   UNL     1      53.904   4.973   6.817  0.00  0.00    +0.000 A 
ATOM     10  N   UNL     1      53.990   4.758   8.172  0.00  0.00    +0.000 N 
ATOM     11  C   UNL     1      53.612   5.701   9.105  0.00  0.00    +0.000 A 
ATOM     12  O   UNL     1      53.458   5.406  10.282  0.00  0.00    +0.000 OA
ATOM     13  C   UNL     1      53.342   7.008   8.531  0.00  0.00    +0.000 A 
ATOM     14  H   UNL     1      54.196   3.843   8.536  0.00  0.00    +0.000 HD
ENDBRANCH   2   4
BRANCH   1  15
ATOM     15  C   UNL     1      52.242   8.699  12.868  0.00  0.00    +0.000 C 
BRANCH  15  17
ATOM     16  C   UNL     1      51.051  10.568  14.146  0.00  0.00    +0.000 C 
ATOM     17  C   UNL     1      52.139  10.198  13.149  0.00  0.00    +0.000 C 
ENDBRANCH  15  17
ENDBRANCH   1  15
BRANCH   1  18
ATOM     18  C   UNL     1      50.810   7.897  10.908  0.00  0.00    +0.000 C 
BRANCH  18  19
ATOM     19  C   UNL     1      49.506   8.052  11.649  0.00  0.00    +0.000 A 
ATOM     20  C   UNL     1      48.833   9.281  11.660  0.00  0.00    +0.000 A 
ATOM     21  C   UNL     1      47.510   9.360  12.089  0.00  0.00    +0.000 A 
ATOM     22  C   UNL     1      46.848   8.214  12.529  0.00  0.00    +0.000 A 
ATOM     23  C   UNL     1      47.515   6.983  12.584  0.00  0.00    +0.000 A 
ATOM     24  C   UNL     1      48.845   6.913  12.144  0.00  0.00    +0.000 A 
BRANCH  23  25
ATOM     25  C   UNL     1      46.819   5.764  13.148  0.00  0.00    +0.000 C 
BRANCH  25  26
ATOM     26  C   UNL     1      45.517   5.481  12.447  0.00  0.00    +0.000 A 
ATOM     27  C   UNL     1      44.305   5.440  13.141  0.00  0.00    +0.000 A 
ATOM     28  C   UNL     1      43.139   5.077  12.473  0.00  0.00    +0.000 A 
ATOM     29  C   UNL     1      43.223   4.775  11.124  0.00  0.00    +0.000 A 
ATOM     30  N   UNL     1      44.369   4.822  10.414  0.00  0.00    +0.000 NA
ATOM     31  C   UNL     1      45.488   5.166  11.091  0.00  0.00    +0.000 A 
ENDBRANCH  25  26
ENDBRANCH  23  25
ENDBRANCH  18  19
ENDBRANCH   1  18
TORSDOF 7
ENDMDL
