MODEL 1
REMARK VINA RESULT:    -8.022      0.000      0.000
REMARK INTER + INTRA:         -13.144
REMARK INTER:                 -11.774
REMARK INTRA:                  -1.371
REMARK UNBOUND:                -1.371
REMARK  Name = 
REMARK  9 active torsions:
REMARK  status: ('A' for Active; 'I' for Inactive)
REMARK    1  A    between atoms: C_1  and  C_2
REMARK    2  A    between atoms: C_2  and  N_3
REMARK    3  A    between atoms: C_2  and  C_20
REMARK    4  A    between atoms: N_3  and  C_4
REMARK    5  A    between atoms: C_4  and  C_5
REMARK    6  A    between atoms: C_8  and  C_9
REMARK    7  A    between atoms: C_9  and  N_10
REMARK    8  A    between atoms: N_10  and  C_11
REMARK    9  A    between atoms: C_11  and  C_12
REMARK                            x       y       z     vdW  Elec       q    Type
REMARK                         _______ _______ _______ _____ _____    ______ ____
ROOT
ATOM      1  C   UNL     1      46.497   8.256  12.745  0.00  0.00    +0.000 C 
ENDROOT
BRANCH   1   2
ATOM      2  C   UNL     1      45.783   7.054  12.173  0.00  0.00    +0.000 A 
ATOM      3  C   UNL     1      44.759   6.433  12.901  0.00  0.00    +0.000 A 
ATOM      4  C   UNL     1      44.123   5.296  12.407  0.00  0.00    +0.000 A 
ATOM      5  C   UNL     1      44.488   4.761  11.163  0.00  0.00    +0.000 A 
ATOM      6  C   UNL     1      45.493   5.397  10.423  0.00  0.00    +0.000 A 
ATOM      7  C   UNL     1      46.137   6.531  10.923  0.00  0.00    +0.000 A 
BRANCH   5   8
ATOM      8  C   UNL     1      43.835   3.499  10.650  0.00  0.00    +0.000 C 
BRANCH   8   9
ATOM      9  N   UNL     1      44.826   2.447  10.445  0.00  0.00    +0.000 NA
ATOM     10  H   UNL     1      44.719   1.752  11.185  0.00  0.00    +0.000 HD
BRANCH   9  11
ATOM     11  C   UNL     1      44.639   1.785   9.150  0.00  0.00    +0.000 C 
BRANCH  11  12
ATOM     12  C   UNL     1      45.801   2.042   8.220  0.00  0.00    +0.000 A 
ATOM     13  C   UNL     1      45.978   3.285   7.625  0.00  0.00    +0.000 A 
ATOM     14  C   UNL     1      47.062   3.474   6.781  0.00  0.00    +0.000 A 
ATOM     15  C   UNL     1      47.911   2.407   6.572  0.00  0.00    +0.000 A 
ATOM     16  N   UNL     1      47.728   1.207   7.157  0.00  0.00    +0.000 NA
ATOM     17  N   UNL     1      46.662   1.023   7.991  0.00  0.00    +0.000 NA
ENDBRANCH  11  12
ENDBRANCH   9  11
ENDBRANCH   8   9
ENDBRANCH   5   8
ENDBRANCH   1   2
BRANCH   1  18
ATOM     18  N   UNL     1      47.147   7.895  14.002  0.00  0.00    +0.000 NA
ATOM     19  H   UNL     1      46.428   7.555  14.641  0.00  0.00    +0.000 HD
BRANCH  18  21
ATOM     20  C   UNL     1      49.391   7.294  13.047  0.00  0.00    +0.000 C 
ATOM     21  C   UNL     1      48.175   6.858  13.871  0.00  0.00    +0.000 C 
BRANCH  21  22
ATOM     22  C   UNL     1      48.580   6.501  15.288  0.00  0.00    +0.000 A 
ATOM     23  C   UNL     1      49.412   7.280  16.083  0.00  0.00    +0.000 A 
ATOM     24  S   UNL     1      49.654   6.636  17.643  0.00  0.00    +0.000 S 
ATOM     25  C   UNL     1      48.655   5.298  17.309  0.00  0.00    +0.000 A 
ATOM     26  N   UNL     1      48.419   4.344  18.249  0.00  0.00    +0.000 NA
ATOM     27  C   UNL     1      47.622   3.405  17.861  0.00  0.00    +0.000 A 
ATOM     28  N   UNL     1      47.047   3.325  16.617  0.00  0.00    +0.000 N 
ATOM     29  C   UNL     1      47.291   4.240  15.619  0.00  0.00    +0.000 A 
ATOM     30  O   UNL     1      46.811   4.104  14.498  0.00  0.00    +0.000 OA
ATOM     31  C   UNL     1      48.155   5.335  16.021  0.00  0.00    +0.000 A 
ATOM     32  H   UNL     1      46.443   2.555  16.374  0.00  0.00    +0.000 HD
ENDBRANCH  21  22
ENDBRANCH  18  21
ENDBRANCH   1  18
TORSDOF 8
ENDMDL
MODEL 2
REMARK VINA RESULT:    -7.948      2.254      3.109
REMARK INTER + INTRA:         -13.036
REMARK INTER:                 -12.397
REMARK INTRA:                  -0.639
REMARK UNBOUND:                -1.371
REMARK  Name = 
REMARK  9 active torsions:
REMARK  status: ('A' for Active; 'I' for Inactive)
REMARK    1  A    between atoms: C_1  and  C_2
REMARK    2  A    between atoms: C_2  and  N_3
REMARK    3  A    between atoms: C_2  and  C_20
REMARK    4  A    between atoms: N_3  and  C_4
REMARK    5  A    between atoms: C_4  and  C_5
REMARK    6  A    between atoms: C_8  and  C_9
REMARK    7  A    between atoms: C_9  and  N_10
REMARK    8  A    between atoms: N_10  and  C_11
REMARK    9  A    between atoms: C_11  and  C_12
REMARK                            x       y       z     vdW  Elec       q    Type
REMARK                         _______ _______ _______ _____ _____    ______ ____
ROOT
ATOM      1  C   UNL     1      47.769   5.476  14.785  0.00  0.00    +0.000 C 
ENDROOT
BRANCH   1   2
ATOM      2  C   UNL     1      46.777   5.235  13.670  0.00  0.00    +0.000 A 
ATOM      3  C   UNL     1      46.366   6.299  12.855  0.00  0.00    +0.000 A 
ATOM      4  C   UNL     1      45.418   6.102  11.852  0.00  0.00    +0.000 A 
ATOM      5  C   UNL     1      44.868   4.830  11.634  0.00  0.00    +0.000 A 
ATOM      6  C   UNL     1      45.299   3.761  12.432  0.00  0.00    +0.000 A 
ATOM      7  C   UNL     1      46.243   3.962  13.442  0.00  0.00    +0.000 A 
BRANCH   5   8
ATOM      8  C   UNL     1      43.803   4.625  10.583  0.00  0.00    +0.000 C 
BRANCH   8   9
ATOM      9  N   UNL     1      44.143   3.508   9.709  0.00  0.00    +0.000 NA
ATOM     10  H   UNL     1      43.287   3.003   9.478  0.00  0.00    +0.000 HD
BRANCH   9  11
ATOM     11  C   UNL     1      44.760   3.976   8.463  0.00  0.00    +0.000 C 
BRANCH  11  12
ATOM     12  C   UNL     1      45.763   2.979   7.930  0.00  0.00    +0.000 A 
ATOM     13  C   UNL     1      46.681   3.345   6.954  0.00  0.00    +0.000 A 
ATOM     14  C   UNL     1      47.584   2.397   6.497  0.00  0.00    +0.000 A 
ATOM     15  C   UNL     1      47.518   1.130   7.038  0.00  0.00    +0.000 A 
ATOM     16  N   UNL     1      46.623   0.789   7.986  0.00  0.00    +0.000 NA
ATOM     17  N   UNL     1      45.736   1.725   8.437  0.00  0.00    +0.000 NA
ENDBRANCH  11  12
ENDBRANCH   9  11
ENDBRANCH   8   9
ENDBRANCH   5   8
ENDBRANCH   1   2
BRANCH   1  18
ATOM     18  N   UNL     1      48.031   4.228  15.494  0.00  0.00    +0.000 NA
ATOM     19  H   UNL     1      49.005   3.972  15.332  0.00  0.00    +0.000 HD
BRANCH  18  21
ATOM     20  C   UNL     1      46.999   3.125  17.501  0.00  0.00    +0.000 C 
ATOM     21  C   UNL     1      47.808   4.300  16.941  0.00  0.00    +0.000 C 
BRANCH  21  22
ATOM     22  C   UNL     1      49.188   4.354  17.567  0.00  0.00    +0.000 A 
ATOM     23  C   UNL     1      49.658   5.414  18.333  0.00  0.00    +0.000 A 
ATOM     24  S   UNL     1      51.235   5.169  18.934  0.00  0.00    +0.000 S 
ATOM     25  C   UNL     1      51.341   3.640  18.192  0.00  0.00    +0.000 A 
ATOM     26  N   UNL     1      52.454   2.869  18.324  0.00  0.00    +0.000 NA
ATOM     27  C   UNL     1      52.380   1.726  17.729  0.00  0.00    +0.000 A 
ATOM     28  N   UNL     1      51.301   1.285  17.004  0.00  0.00    +0.000 N 
ATOM     29  C   UNL     1      50.172   2.045  16.804  0.00  0.00    +0.000 A 
ATOM     30  O   UNL     1      49.252   1.646  16.098  0.00  0.00    +0.000 OA
ATOM     31  C   UNL     1      50.195   3.327  17.485  0.00  0.00    +0.000 A 
ATOM     32  H   UNL     1      51.314   0.384  16.551  0.00  0.00    +0.000 HD
ENDBRANCH  21  22
ENDBRANCH  18  21
ENDBRANCH   1  18
TORSDOF 8
ENDMDL
MODEL 3
REMARK VINA RESULT:    -7.438      1.702      2.168
REMARK INTER + INTRA:         -12.287
REMARK INTER:                 -11.057
REMARK INTRA:                  -1.230
REMARK UNBOUND:                -1.371
REMARK  Name = 
REMARK  9 active torsions:
REMARK  status: ('A' for Active; 'I' for Inactive)
REMARK    1  A    between atoms: C_1  and  C_2
REMARK    2  A    between atoms: C_2  and  N_3
REMARK    3  A    between atoms: C_2  and  C_20
REMARK    4  A    between atoms: N_3  and  C_4
REMARK    5  A    between atoms: C_4  and  C_5
REMARK    6  A    between atoms: C_8  and  C_9
REMARK    7  A    between atoms: C_9  and  N_10
REMARK    8  A    between atoms: N_10  and  C_11
REMARK    9  A    between atoms: C_11  and  C_12
REMARK                            x       y       z     vdW  Elec       q    Type
REMARK                         _______ _______ _______ _____ _____    ______ ____
ROOT
ATOM      1  C   UNL     1      48.442   6.715  13.418  0.00  0.00    +0.000 C 
ENDROOT
BRANCH   1   2
ATOM      2  C   UNL     1      47.185   6.148  12.799  0.00  0.00    +0.000 A 
ATOM      3  C   UNL     1      46.779   6.569  11.525  0.00  0.00    +0.000 A 
ATOM      4  C   UNL     1      45.599   6.089  10.959  0.00  0.00    +0.000 A 
ATOM      5  C   UNL     1      44.803   5.165  11.652  0.00  0.00    +0.000 A 
ATOM      6  C   UNL     1      45.223   4.724  12.914  0.00  0.00    +0.000 A 
ATOM      7  C   UNL     1      46.402   5.212  13.484  0.00  0.00    +0.000 A 
BRANCH   5   8
ATOM      8  C   UNL     1      43.498   4.684  11.063  0.00  0.00    +0.000 C 
BRANCH   8   9
ATOM      9  N   UNL     1      43.704   4.125   9.732  0.00  0.00    +0.000 NA
ATOM     10  H   UNL     1      44.329   4.743   9.212  0.00  0.00    +0.000 HD
BRANCH   9  11
ATOM     11  C   UNL     1      44.314   2.794   9.801  0.00  0.00    +0.000 C 
BRANCH  11  12
ATOM     12  C   UNL     1      45.367   2.607   8.734  0.00  0.00    +0.000 A 
ATOM     13  C   UNL     1      45.799   3.678   7.963  0.00  0.00    +0.000 A 
ATOM     14  C   UNL     1      46.770   3.457   6.996  0.00  0.00    +0.000 A 
ATOM     15  C   UNL     1      47.254   2.174   6.849  0.00  0.00    +0.000 A 
ATOM     16  N   UNL     1      46.826   1.145   7.606  0.00  0.00    +0.000 NA
ATOM     17  N   UNL     1      45.873   1.364   8.559  0.00  0.00    +0.000 NA
ENDBRANCH  11  12
ENDBRANCH   9  11
ENDBRANCH   8   9
ENDBRANCH   5   8
ENDBRANCH   1   2
BRANCH   1  18
ATOM     18  N   UNL     1      48.601   6.201  14.775  0.00  0.00    +0.000 NA
ATOM     19  H   UNL     1      48.846   5.213  14.711  0.00  0.00    +0.000 HD
BRANCH  18  21
ATOM     20  C   UNL     1      50.010   8.267  15.017  0.00  0.00    +0.000 C 
ATOM     21  C   UNL     1      49.636   6.882  15.558  0.00  0.00    +0.000 C 
BRANCH  21  22
ATOM     22  C   UNL     1      49.086   6.981  16.968  0.00  0.00    +0.000 A 
ATOM     23  C   UNL     1      48.506   8.125  17.501  0.00  0.00    +0.000 A 
ATOM     24  S   UNL     1      47.946   7.918  19.099  0.00  0.00    +0.000 S 
ATOM     25  C   UNL     1      48.458   6.295  19.128  0.00  0.00    +0.000 A 
ATOM     26  N   UNL     1      48.261   5.514  20.225  0.00  0.00    +0.000 NA
ATOM     27  C   UNL     1      48.677   4.300  20.092  0.00  0.00    +0.000 A 
ATOM     28  N   UNL     1      49.281   3.794  18.968  0.00  0.00    +0.000 N 
ATOM     29  C   UNL     1      49.542   4.554  17.851  0.00  0.00    +0.000 A 
ATOM     30  O   UNL     1      50.141   4.087  16.888  0.00  0.00    +0.000 OA
ATOM     31  C   UNL     1      49.059   5.920  17.942  0.00  0.00    +0.000 A 
ATOM     32  H   UNL     1      49.596   2.836  18.935  0.00  0.00    +0.000 HD
ENDBRANCH  21  22
ENDBRANCH  18  21
ENDBRANCH   1  18
TORSDOF 8
ENDMDL
MODEL 4
REMARK VINA RESULT:    -7.410      3.373      4.994
REMARK INTER + INTRA:         -12.246
REMARK INTER:                 -10.726
REMARK INTRA:                  -1.520
REMARK UNBOUND:                -1.371
REMARK  Name = 
REMARK  9 active torsions:
REMARK  status: ('A' for Active; 'I' for Inactive)
REMARK    1  A    between atoms: C_1  and  C_2
REMARK    2  A    between atoms: C_2  and  N_3
REMARK    3  A    between atoms: C_2  and  C_20
REMARK    4  A    between atoms: N_3  and  C_4
REMARK    5  A    between atoms: C_4  and  C_5
REMARK    6  A    between atoms: C_8  and  C_9
REMARK    7  A    between atoms: C_9  and  N_10
REMARK    8  A    between atoms: N_10  and  C_11
REMARK    9  A    between atoms: C_11  and  C_12
REMARK                            x       y       z     vdW  Elec       q    Type
REMARK                         _______ _______ _______ _____ _____    ______ ____
ROOT
ATOM      1  C   UNL     1      48.197   6.783  12.772  0.00  0.00    +0.000 C 
ENDROOT
BRANCH   1   2
ATOM      2  C   UNL     1      46.975   6.033  12.294  0.00  0.00    +0.000 A 
ATOM      3  C   UNL     1      46.434   5.002  13.076  0.00  0.00    +0.000 A 
ATOM      4  C   UNL     1      45.335   4.272  12.629  0.00  0.00    +0.000 A 
ATOM      5  C   UNL     1      44.742   4.565  11.392  0.00  0.00    +0.000 A 
ATOM      6  C   UNL     1      45.265   5.613  10.623  0.00  0.00    +0.000 A 
ATOM      7  C   UNL     1      46.373   6.339  11.068  0.00  0.00    +0.000 A 
BRANCH   5   8
ATOM      8  C   UNL     1      43.584   3.741  10.882  0.00  0.00    +0.000 C 
BRANCH   8   9
ATOM      9  N   UNL     1      43.863   3.220   9.548  0.00  0.00    +0.000 NA
ATOM     10  H   UNL     1      44.274   3.967   8.987  0.00  0.00    +0.000 HD
BRANCH   9  11
ATOM     11  C   UNL     1      44.808   2.101   9.601  0.00  0.00    +0.000 C 
BRANCH  11  12
ATOM     12  C   UNL     1      45.764   2.122   8.431  0.00  0.00    +0.000 A 
ATOM     13  C   UNL     1      45.974   3.287   7.703  0.00  0.00    +0.000 A 
ATOM     14  C   UNL     1      46.863   3.259   6.639  0.00  0.00    +0.000 A 
ATOM     15  C   UNL     1      47.494   2.065   6.356  0.00  0.00    +0.000 A 
ATOM     16  N   UNL     1      47.282   0.944   7.073  0.00  0.00    +0.000 NA
ATOM     17  N   UNL     1      46.409   0.973   8.122  0.00  0.00    +0.000 NA
ENDBRANCH  11  12
ENDBRANCH   9  11
ENDBRANCH   8   9
ENDBRANCH   5   8
ENDBRANCH   1   2
BRANCH   1  18
ATOM     18  N   UNL     1      48.429   7.946  11.921  0.00  0.00    +0.000 NA
ATOM     19  H   UNL     1      47.638   8.031  11.282  0.00  0.00    +0.000 HD
BRANCH  18  21
ATOM     20  C   UNL     1      50.021   9.626  12.897  0.00  0.00    +0.000 C 
ATOM     21  C   UNL     1      48.566   9.208  12.653  0.00  0.00    +0.000 C 
BRANCH  21  22
ATOM     22  C   UNL     1      47.837  10.247  11.822  0.00  0.00    +0.000 A 
ATOM     23  C   UNL     1      48.466  11.159  10.985  0.00  0.00    +0.000 A 
ATOM     24  S   UNL     1      47.378  12.174  10.151  0.00  0.00    +0.000 S 
ATOM     25  C   UNL     1      46.033  11.427  10.880  0.00  0.00    +0.000 A 
ATOM     26  N   UNL     1      44.764  11.818  10.584  0.00  0.00    +0.000 NA
ATOM     27  C   UNL     1      43.847  11.143  11.193  0.00  0.00    +0.000 A 
ATOM     28  N   UNL     1      44.079  10.121  12.078  0.00  0.00    +0.000 N 
ATOM     29  C   UNL     1      45.344   9.718  12.443  0.00  0.00    +0.000 A 
ATOM     30  O   UNL     1      45.516   8.844  13.285  0.00  0.00    +0.000 OA
ATOM     31  C   UNL     1      46.409  10.426  11.756  0.00  0.00    +0.000 A 
ATOM     32  H   UNL     1      43.315   9.642  12.530  0.00  0.00    +0.000 HD
ENDBRANCH  21  22
ENDBRANCH  18  21
ENDBRANCH   1  18
TORSDOF 8
ENDMDL
MODEL 5
REMARK VINA RESULT:    -7.274      2.291      3.188
REMARK INTER + INTRA:         -12.047
REMARK INTER:                 -11.073
REMARK INTRA:                  -0.974
REMARK UNBOUND:                -1.371
REMARK  Name = 
REMARK  9 active torsions:
REMARK  status: ('A' for Active; 'I' for Inactive)
REMARK    1  A    between atoms: C_1  and  C_2
REMARK    2  A    between atoms: C_2  and  N_3
REMARK    3  A    between atoms: C_2  and  C_20
REMARK    4  A    between atoms: N_3  and  C_4
REMARK    5  A    between atoms: C_4  and  C_5
REMARK    6  A    between atoms: C_8  and  C_9
REMARK    7  A    between atoms: C_9  and  N_10
REMARK    8  A    between atoms: N_10  and  C_11
REMARK    9  A    between atoms: C_11  and  C_12
REMARK                            x       y       z     vdW  Elec       q    Type
REMARK                         _______ _______ _______ _____ _____    ______ ____
ROOT
ATOM      1  C   UNL     1      48.881   6.898  14.906  0.00  0.00    +0.000 C 
ENDROOT
BRANCH   1   2
ATOM      2  C   UNL     1      47.893   6.528  13.824  0.00  0.00    +0.000 A 
ATOM      3  C   UNL     1      47.741   7.353  12.700  0.00  0.00    +0.000 A 
ATOM      4  C   UNL     1      46.802   7.049  11.717  0.00  0.00    +0.000 A 
ATOM      5  C   UNL     1      46.000   5.903  11.829  0.00  0.00    +0.000 A 
ATOM      6  C   UNL     1      46.170   5.065  12.938  0.00  0.00    +0.000 A 
ATOM      7  C   UNL     1      47.106   5.375  13.928  0.00  0.00    +0.000 A 
BRANCH   5   8
ATOM      8  C   UNL     1      44.946   5.601  10.790  0.00  0.00    +0.000 C 
BRANCH   8   9
ATOM      9  N   UNL     1      45.560   5.204   9.527  0.00  0.00    +0.000 NA
ATOM     10  H   UNL     1      46.496   4.844   9.719  0.00  0.00    +0.000 HD
BRANCH   9  11
ATOM     11  C   UNL     1      44.782   4.152   8.865  0.00  0.00    +0.000 C 
BRANCH  11  12
ATOM     12  C   UNL     1      45.676   3.123   8.213  0.00  0.00    +0.000 A 
ATOM     13  C   UNL     1      46.526   3.475   7.172  0.00  0.00    +0.000 A 
ATOM     14  C   UNL     1      47.330   2.496   6.607  0.00  0.00    +0.000 A 
ATOM     15  C   UNL     1      47.238   1.215   7.110  0.00  0.00    +0.000 A 
ATOM     16  N   UNL     1      46.410   0.889   8.122  0.00  0.00    +0.000 NA
ATOM     17  N   UNL     1      45.621   1.854   8.679  0.00  0.00    +0.000 NA
ENDBRANCH  11  12
ENDBRANCH   9  11
ENDBRANCH   8   9
ENDBRANCH   5   8
ENDBRANCH   1   2
BRANCH   1  18
ATOM     18  N   UNL     1      48.167   7.268  16.124  0.00  0.00    +0.000 NA
ATOM     19  H   UNL     1      47.244   6.835  16.092  0.00  0.00    +0.000 HD
BRANCH  18  21
ATOM     20  C   UNL     1      48.251   7.494  18.624  0.00  0.00    +0.000 C 
ATOM     21  C   UNL     1      48.830   6.847  17.362  0.00  0.00    +0.000 C 
BRANCH  21  22
ATOM     22  C   UNL     1      48.686   5.338  17.412  0.00  0.00    +0.000 A 
ATOM     23  C   UNL     1      47.469   4.669  17.412  0.00  0.00    +0.000 A 
ATOM     24  S   UNL     1      47.630   2.971  17.435  0.00  0.00    +0.000 S 
ATOM     25  C   UNL     1      49.329   3.075  17.442  0.00  0.00    +0.000 A 
ATOM     26  N   UNL     1      50.103   1.956  17.445  0.00  0.00    +0.000 NA
ATOM     27  C   UNL     1      51.372   2.190  17.423  0.00  0.00    +0.000 A 
ATOM     28  N   UNL     1      51.941   3.439  17.410  0.00  0.00    +0.000 N 
ATOM     29  C   UNL     1      51.203   4.599  17.451  0.00  0.00    +0.000 A 
ATOM     30  O   UNL     1      51.745   5.698  17.503  0.00  0.00    +0.000 OA
ATOM     31  C   UNL     1      49.767   4.386  17.441  0.00  0.00    +0.000 A 
ATOM     32  H   UNL     1      52.944   3.552  17.407  0.00  0.00    +0.000 HD
ENDBRANCH  21  22
ENDBRANCH  18  21
ENDBRANCH   1  18
TORSDOF 8
ENDMDL
MODEL 6
REMARK VINA RESULT:    -7.135      3.661      6.175
REMARK INTER + INTRA:         -11.842
REMARK INTER:                 -10.924
REMARK INTRA:                  -0.918
REMARK UNBOUND:                -1.371
REMARK  Name = 
REMARK  9 active torsions:
REMARK  status: ('A' for Active; 'I' for Inactive)
REMARK    1  A    between atoms: C_1  and  C_2
REMARK    2  A    between atoms: C_2  and  N_3
REMARK    3  A    between atoms: C_2  and  C_20
REMARK    4  A    between atoms: N_3  and  C_4
REMARK    5  A    between atoms: C_4  and  C_5
REMARK    6  A    between atoms: C_8  and  C_9
REMARK    7  A    between atoms: C_9  and  N_10
REMARK    8  A    between atoms: N_10  and  C_11
REMARK    9  A    between atoms: C_11  and  C_12
REMARK                            x       y       z     vdW  Elec       q    Type
REMARK                         _______ _______ _______ _____ _____    ______ ____
ROOT
ATOM      1  C   UNL     1      44.116   3.874   9.806  0.00  0.00    +0.000 C 
ENDROOT
BRANCH   1   2
ATOM      2  C   UNL     1      45.107   3.285   8.829  0.00  0.00    +0.000 A 
ATOM      3  C   UNL     1      45.351   1.904   8.824  0.00  0.00    +0.000 A 
ATOM      4  C   UNL     1      46.294   1.351   7.960  0.00  0.00    +0.000 A 
ATOM      5  C   UNL     1      47.008   2.168   7.071  0.00  0.00    +0.000 A 
ATOM      6  C   UNL     1      46.745   3.544   7.057  0.00  0.00    +0.000 A 
ATOM      7  C   UNL     1      45.805   4.098   7.929  0.00  0.00    +0.000 A 
BRANCH   5   8
ATOM      8  C   UNL     1      48.068   1.577   6.171  0.00  0.00    +0.000 C 
BRANCH   8   9
ATOM      9  N   UNL     1      47.778   1.863   4.770  0.00  0.00    +0.000 NA
ATOM     10  H   UNL     1      48.580   1.578   4.206  0.00  0.00    +0.000 HD
BRANCH   9  11
ATOM     11  C   UNL     1      46.597   1.124   4.309  0.00  0.00    +0.000 C 
BRANCH  11  12
ATOM     12  C   UNL     1      46.976  -0.193   3.675  0.00  0.00    +0.000 A 
ATOM     13  C   UNL     1      46.439  -1.388   4.136  0.00  0.00    +0.000 A 
ATOM     14  C   UNL     1      46.815  -2.573   3.520  0.00  0.00    +0.000 A 
ATOM     15  C   UNL     1      47.713  -2.500   2.476  0.00  0.00    +0.000 A 
ATOM     16  N   UNL     1      48.225  -1.333   2.037  0.00  0.00    +0.000 NA
ATOM     17  N   UNL     1      47.852  -0.167   2.643  0.00  0.00    +0.000 NA
ENDBRANCH  11  12
ENDBRANCH   9  11
ENDBRANCH   8   9
ENDBRANCH   5   8
ENDBRANCH   1   2
BRANCH   1  18
ATOM     18  N   UNL     1      44.496   5.246  10.130  0.00  0.00    +0.000 NA
ATOM     19  H   UNL     1      44.091   5.860   9.423  0.00  0.00    +0.000 HD
BRANCH  18  21
ATOM     20  C   UNL     1      43.763   4.560  12.432  0.00  0.00    +0.000 C 
ATOM     21  C   UNL     1      44.043   5.700  11.448  0.00  0.00    +0.000 C 
BRANCH  21  22
ATOM     22  C   UNL     1      45.140   6.609  11.969  0.00  0.00    +0.000 A 
ATOM     23  C   UNL     1      46.274   6.162  12.635  0.00  0.00    +0.000 A 
ATOM     24  S   UNL     1      47.346   7.416  13.064  0.00  0.00    +0.000 S 
ATOM     25  C   UNL     1      46.332   8.596  12.372  0.00  0.00    +0.000 A 
ATOM     26  N   UNL     1      46.675   9.913  12.382  0.00  0.00    +0.000 NA
ATOM     27  C   UNL     1      45.822  10.686  11.798  0.00  0.00    +0.000 A 
ATOM     28  N   UNL     1      44.653  10.269  11.214  0.00  0.00    +0.000 N 
ATOM     29  C   UNL     1      44.241   8.956  11.218  0.00  0.00    +0.000 A 
ATOM     30  O   UNL     1      43.159   8.626  10.744  0.00  0.00    +0.000 OA
ATOM     31  C   UNL     1      45.186   8.043  11.834  0.00  0.00    +0.000 A 
ATOM     32  H   UNL     1      44.022  10.929  10.786  0.00  0.00    +0.000 HD
ENDBRANCH  21  22
ENDBRANCH  18  21
ENDBRANCH   1  18
TORSDOF 8
ENDMDL
MODEL 7
REMARK VINA RESULT:    -7.054      3.068      5.505
REMARK INTER + INTRA:         -11.723
REMARK INTER:                 -11.512
REMARK INTRA:                  -0.212
REMARK UNBOUND:                -1.371
REMARK  Name = 
REMARK  9 active torsions:
REMARK  status: ('A' for Active; 'I' for Inactive)
REMARK    1  A    between atoms: C_1  and  C_2
REMARK    2  A    between atoms: C_2  and  N_3
REMARK    3  A    between atoms: C_2  and  C_20
REMARK    4  A    between atoms: N_3  and  C_4
REMARK    5  A    between atoms: C_4  and  C_5
REMARK    6  A    between atoms: C_8  and  C_9
REMARK    7  A    between atoms: C_9  and  N_10
REMARK    8  A    between atoms: N_10  and  C_11
REMARK    9  A    between atoms: C_11  and  C_12
REMARK                            x       y       z     vdW  Elec       q    Type
REMARK                         _______ _______ _______ _____ _____    ______ ____
ROOT
ATOM      1  C   UNL     1      44.004   3.769   9.899  0.00  0.00    +0.000 C 
ENDROOT
BRANCH   1   2
ATOM      2  C   UNL     1      45.013   3.224   8.915  0.00  0.00    +0.000 A 
ATOM      3  C   UNL     1      45.360   1.866   8.945  0.00  0.00    +0.000 A 
ATOM      4  C   UNL     1      46.322   1.358   8.074  0.00  0.00    +0.000 A 
ATOM      5  C   UNL     1      46.952   2.197   7.143  0.00  0.00    +0.000 A 
ATOM      6  C   UNL     1      46.585   3.548   7.094  0.00  0.00    +0.000 A 
ATOM      7  C   UNL     1      45.627   4.059   7.974  0.00  0.00    +0.000 A 
BRANCH   5   8
ATOM      8  C   UNL     1      48.031   1.659   6.234  0.00  0.00    +0.000 C 
BRANCH   8   9
ATOM      9  N   UNL     1      47.683   1.868   4.832  0.00  0.00    +0.000 NA
ATOM     10  H   UNL     1      48.480   1.597   4.255  0.00  0.00    +0.000 HD
BRANCH   9  11
ATOM     11  C   UNL     1      46.526   1.054   4.445  0.00  0.00    +0.000 C 
BRANCH  11  12
ATOM     12  C   UNL     1      46.948  -0.216   3.743  0.00  0.00    +0.000 A 
ATOM     13  C   UNL     1      46.468  -1.452   4.156  0.00  0.00    +0.000 A 
ATOM     14  C   UNL     1      46.882  -2.590   3.479  0.00  0.00    +0.000 A 
ATOM     15  C   UNL     1      47.758  -2.432   2.426  0.00  0.00    +0.000 A 
ATOM     16  N   UNL     1      48.214  -1.225   2.035  0.00  0.00    +0.000 NA
ATOM     17  N   UNL     1      47.804  -0.106   2.700  0.00  0.00    +0.000 NA
ENDBRANCH  11  12
ENDBRANCH   9  11
ENDBRANCH   8   9
ENDBRANCH   5   8
ENDBRANCH   1   2
BRANCH   1  18
ATOM     18  N   UNL     1      44.173   5.212  10.035  0.00  0.00    +0.000 NA
ATOM     19  H   UNL     1      43.781   5.655   9.204  0.00  0.00    +0.000 HD
BRANCH  18  21
ATOM     20  C   UNL     1      43.122   4.747  12.268  0.00  0.00    +0.000 C 
ATOM     21  C   UNL     1      43.519   5.786  11.214  0.00  0.00    +0.000 C 
BRANCH  21  22
ATOM     22  C   UNL     1      44.504   6.788  11.784  0.00  0.00    +0.000 A 
ATOM     23  C   UNL     1      44.367   8.166  11.678  0.00  0.00    +0.000 A 
ATOM     24  S   UNL     1      45.615   9.033  12.453  0.00  0.00    +0.000 S 
ATOM     25  C   UNL     1      46.377   7.596  12.957  0.00  0.00    +0.000 A 
ATOM     26  N   UNL     1      47.518   7.627  13.697  0.00  0.00    +0.000 NA
ATOM     27  C   UNL     1      47.966   6.462  14.028  0.00  0.00    +0.000 A 
ATOM     28  N   UNL     1      47.385   5.268  13.680  0.00  0.00    +0.000 N 
ATOM     29  C   UNL     1      46.256   5.184  12.897  0.00  0.00    +0.000 A 
ATOM     30  O   UNL     1      45.800   4.099  12.551  0.00  0.00    +0.000 OA
ATOM     31  C   UNL     1      45.696   6.472  12.529  0.00  0.00    +0.000 A 
ATOM     32  H   UNL     1      47.795   4.390  13.961  0.00  0.00    +0.000 HD
ENDBRANCH  21  22
ENDBRANCH  18  21
ENDBRANCH   1  18
TORSDOF 8
ENDMDL
MODEL 8
REMARK VINA RESULT:    -6.825      2.177      3.485
REMARK INTER + INTRA:         -11.388
REMARK INTER:                 -10.807
REMARK INTRA:                  -0.580
REMARK UNBOUND:                -1.371
REMARK  Name = 
REMARK  9 active torsions:
REMARK  status: ('A' for Active; 'I' for Inactive)
REMARK    1  A    between atoms: C_1  and  C_2
REMARK    2  A    between atoms: C_2  and  N_3
REMARK    3  A    between atoms: C_2  and  C_20
REMARK    4  A    between atoms: N_3  and  C_4
REMARK    5  A    between atoms: C_4  and  C_5
REMARK    6  A    between atoms: C_8  and  C_9
REMARK    7  A    between atoms: C_9  and  N_10
REMARK    8  A    between atoms: N_10  and  C_11
REMARK    9  A    between atoms: C_11  and  C_12
REMARK                            x       y       z     vdW  Elec       q    Type
REMARK                         _______ _______ _______ _____ _____    ______ ____
ROOT
ATOM      1  C   UNL     1      47.508   3.766  15.242  0.00  0.00    +0.000 C 
ENDROOT
BRANCH   1   2
ATOM      2  C   UNL     1      46.820   4.205  13.970  0.00  0.00    +0.000 A 
ATOM      3  C   UNL     1      46.887   5.545  13.563  0.00  0.00    +0.000 A 
ATOM      4  C   UNL     1      46.221   5.975  12.417  0.00  0.00    +0.000 A 
ATOM      5  C   UNL     1      45.480   5.069  11.644  0.00  0.00    +0.000 A 
ATOM      6  C   UNL     1      45.434   3.725  12.036  0.00  0.00    +0.000 A 
ATOM      7  C   UNL     1      46.096   3.296  13.190  0.00  0.00    +0.000 A 
BRANCH   5   8
ATOM      8  C   UNL     1      44.714   5.543  10.431  0.00  0.00    +0.000 C 
BRANCH   8   9
ATOM      9  N   UNL     1      45.427   5.209   9.203  0.00  0.00    +0.000 NA
ATOM     10  H   UNL     1      46.363   4.882   9.448  0.00  0.00    +0.000 HD
BRANCH   9  11
ATOM     11  C   UNL     1      44.740   4.147   8.462  0.00  0.00    +0.000 C 
BRANCH  11  12
ATOM     12  C   UNL     1      45.710   3.107   7.950  0.00  0.00    +0.000 A 
ATOM     13  C   UNL     1      46.600   3.404   6.925  0.00  0.00    +0.000 A 
ATOM     14  C   UNL     1      47.473   2.418   6.491  0.00  0.00    +0.000 A 
ATOM     15  C   UNL     1      47.409   1.184   7.103  0.00  0.00    +0.000 A 
ATOM     16  N   UNL     1      46.542   0.910   8.099  0.00  0.00    +0.000 NA
ATOM     17  N   UNL     1      45.684   1.883   8.527  0.00  0.00    +0.000 NA
ENDBRANCH  11  12
ENDBRANCH   9  11
ENDBRANCH   8   9
ENDBRANCH   5   8
ENDBRANCH   1   2
BRANCH   1  18
ATOM     18  N   UNL     1      47.453   4.838  16.231  0.00  0.00    +0.000 NA
ATOM     19  H   UNL     1      46.655   5.433  16.007  0.00  0.00    +0.000 HD
BRANCH  18  21
ATOM     20  C   UNL     1      48.094   3.096  17.924  0.00  0.00    +0.000 C 
ATOM     21  C   UNL     1      47.305   4.373  17.614  0.00  0.00    +0.000 C 
BRANCH  21  22
ATOM     22  C   UNL     1      47.772   5.524  18.485  0.00  0.00    +0.000 A 
ATOM     23  C   UNL     1      46.995   6.125  19.467  0.00  0.00    +0.000 A 
ATOM     24  S   UNL     1      47.808   7.366  20.308  0.00  0.00    +0.000 S 
ATOM     25  C   UNL     1      49.224   7.140  19.389  0.00  0.00    +0.000 A 
ATOM     26  N   UNL     1      50.337   7.889  19.614  0.00  0.00    +0.000 NA
ATOM     27  C   UNL     1      51.340   7.586  18.860  0.00  0.00    +0.000 A 
ATOM     28  N   UNL     1      51.331   6.612  17.893  0.00  0.00    +0.000 N 
ATOM     29  C   UNL     1      50.218   5.859  17.598  0.00  0.00    +0.000 A 
ATOM     30  O   UNL     1      50.226   5.041  16.684  0.00  0.00    +0.000 OA
ATOM     31  C   UNL     1      49.074   6.140  18.446  0.00  0.00    +0.000 A 
ATOM     32  H   UNL     1      52.148   6.435  17.328  0.00  0.00    +0.000 HD
ENDBRANCH  21  22
ENDBRANCH  18  21
ENDBRANCH   1  18
TORSDOF 8
ENDMDL
MODEL 9
REMARK VINA RESULT:    -6.671      1.937      2.309
REMARK INTER + INTRA:         -11.162
REMARK INTER:                 -10.295
REMARK INTRA:                  -0.866
REMARK UNBOUND:                -1.371
REMARK  Name = 
REMARK  9 active torsions:
REMARK  status: ('A' for Active; 'I' for Inactive)
REMARK    1  A    between atoms: C_1  and  C_2
REMARK    2  A    between atoms: C_2  and  N_3
REMARK    3  A    between atoms: C_2  and  C_20
REMARK    4  A    between atoms: N_3  and  C_4
REMARK    5  A    between atoms: C_4  and  C_5
REMARK    6  A    between atoms: C_8  and  C_9
REMARK    7  A    between atoms: C_9  and  N_10
REMARK    8  A    between atoms: N_10  and  C_11
REMARK    9  A    between atoms: C_11  and  C_12
REMARK                            x       y       z     vdW  Elec       q    Type
REMARK                         _______ _______ _______ _____ _____    ______ ____
ROOT
ATOM      1  C   UNL     1      48.637   6.982  12.740  0.00  0.00    +0.000 C 
ENDROOT
BRANCH   1   2
ATOM      2  C   UNL     1      47.309   6.314  12.471  0.00  0.00    +0.000 A 
ATOM      3  C   UNL     1      46.902   5.222  13.250  0.00  0.00    +0.000 A 
ATOM      4  C   UNL     1      45.701   4.566  12.985  0.00  0.00    +0.000 A 
ATOM      5  C   UNL     1      44.872   4.998  11.939  0.00  0.00    +0.000 A 
ATOM      6  C   UNL     1      45.265   6.106  11.178  0.00  0.00    +0.000 A 
ATOM      7  C   UNL     1      46.473   6.757  11.439  0.00  0.00    +0.000 A 
BRANCH   5   8
ATOM      8  C   UNL     1      43.596   4.256  11.618  0.00  0.00    +0.000 C 
BRANCH   8   9
ATOM      9  N   UNL     1      43.549   3.889  10.207  0.00  0.00    +0.000 NA
ATOM     10  H   UNL     1      43.980   4.636   9.661  0.00  0.00    +0.000 HD
BRANCH   9  11
ATOM     11  C   UNL     1      44.284   2.645   9.957  0.00  0.00    +0.000 C 
BRANCH  11  12
ATOM     12  C   UNL     1      45.284   2.803   8.835  0.00  0.00    +0.000 A 
ATOM     13  C   UNL     1      46.026   1.720   8.381  0.00  0.00    +0.000 A 
ATOM     14  C   UNL     1      46.930   1.914   7.347  0.00  0.00    +0.000 A 
ATOM     15  C   UNL     1      47.047   3.184   6.824  0.00  0.00    +0.000 A 
ATOM     16  N   UNL     1      46.320   4.226   7.272  0.00  0.00    +0.000 NA
ATOM     17  N   UNL     1      45.428   4.033   8.289  0.00  0.00    +0.000 NA
ENDBRANCH  11  12
ENDBRANCH   9  11
ENDBRANCH   8   9
ENDBRANCH   5   8
ENDBRANCH   1   2
BRANCH   1  18
ATOM     18  N   UNL     1      49.169   6.529  14.021  0.00  0.00    +0.000 NA
ATOM     19  H   UNL     1      49.894   5.836  13.834  0.00  0.00    +0.000 HD
BRANCH  18  21
ATOM     20  C   UNL     1      48.720   8.398  15.638  0.00  0.00    +0.000 C 
ATOM     21  C   UNL     1      49.753   7.595  14.841  0.00  0.00    +0.000 C 
BRANCH  21  22
ATOM     22  C   UNL     1      50.738   6.908  15.767  0.00  0.00    +0.000 A 
ATOM     23  C   UNL     1      52.095   7.202  15.822  0.00  0.00    +0.000 A 
ATOM     24  S   UNL     1      52.938   6.291  16.991  0.00  0.00    +0.000 S 
ATOM     25  C   UNL     1      51.519   5.477  17.463  0.00  0.00    +0.000 A 
ATOM     26  N   UNL     1      51.538   4.548  18.456  0.00  0.00    +0.000 NA
ATOM     27  C   UNL     1      50.384   4.034  18.723  0.00  0.00    +0.000 A 
ATOM     28  N   UNL     1      49.214   4.356  18.082  0.00  0.00    +0.000 N 
ATOM     29  C   UNL     1      49.151   5.255  17.043  0.00  0.00    +0.000 A 
ATOM     30  O   UNL     1      48.099   5.471  16.450  0.00  0.00    +0.000 OA
ATOM     31  C   UNL     1      50.420   5.885  16.731  0.00  0.00    +0.000 A 
ATOM     32  H   UNL     1      48.346   3.905  18.331  0.00  0.00    +0.000 HD
ENDBRANCH  21  22
ENDBRANCH  18  21
ENDBRANCH   1  18
TORSDOF 8
ENDMDL
