MODEL 1
REMARK VINA RESULT:    -8.317      0.000      0.000
REMARK INTER + INTRA:         -11.935
REMARK INTER:                 -11.477
REMARK INTRA:                  -0.458
REMARK UNBOUND:                -0.458
REMARK  Name = 
REMARK  8 active torsions:
REMARK  status: ('A' for Active; 'I' for Inactive)
REMARK    1  A    between atoms: C_1  and  C_2
REMARK    2  A    between atoms: C_2  and  N_3
REMARK    3  A    between atoms: C_2  and  C_16
REMARK    4  A    between atoms: C_4  and  C_6
REMARK    5  A    between atoms: C_19  and  O_20
REMARK    6  A    between atoms: O_20  and  C_21
REMARK    7  A    between atoms: C_25  and  C_26
REMARK    8  A    between atoms: C_26  and  O_27
REMARK                            x       y       z     vdW  Elec       q    Type
REMARK                         _______ _______ _______ _____ _____    ______ ____
ROOT
ATOM      1  C   UNL     1      43.032   4.628  12.894  0.00  0.00    +0.000 C 
ATOM      2  C   UNL     1      44.085   5.686  12.536  0.00  0.00    +0.000 C 
ENDROOT
BRANCH   2   3
ATOM      3  C   UNL     1      44.571   5.395  11.122  0.00  0.00    +0.000 A 
ATOM      4  C   UNL     1      43.901   4.435  10.350  0.00  0.00    +0.000 A 
ATOM      5  C   UNL     1      44.398   4.048   9.102  0.00  0.00    +0.000 A 
ATOM      6  C   UNL     1      45.533   4.666   8.572  0.00  0.00    +0.000 A 
ATOM      7  C   UNL     1      46.216   5.613   9.338  0.00  0.00    +0.000 A 
ATOM      8  C   UNL     1      45.747   5.966  10.606  0.00  0.00    +0.000 A 
BRANCH   6   9
ATOM      9  O   UNL     1      46.099   4.357   7.357  0.00  0.00    +0.000 OA
BRANCH   9  10
ATOM     10  C   UNL     1      46.451   3.059   7.061  0.00  0.00    +0.000 A 
ATOM     11  C   UNL     1      46.543   2.034   8.005  0.00  0.00    +0.000 A 
ATOM     12  C   UNL     1      46.928   0.754   7.612  0.00  0.00    +0.000 A 
ATOM     13  C   UNL     1      47.148   0.474   6.263  0.00  0.00    +0.000 A 
ATOM     14  C   UNL     1      46.988   1.471   5.290  0.00  0.00    +0.000 A 
ATOM     15  C   UNL     1      46.643   2.767   5.707  0.00  0.00    +0.000 A 
BRANCH  14  16
ATOM     16  C   UNL     1      47.069   1.146   3.820  0.00  0.00    +0.000 C 
BRANCH  16  17
ATOM     17  O   UNL     1      47.399  -0.217   3.590  0.00  0.00    +0.000 OA
ATOM     18  H   UNL     1      48.149  -0.424   4.173  0.00  0.00    +0.000 HD
ENDBRANCH  16  17
ENDBRANCH  14  16
ENDBRANCH   9  10
ENDBRANCH   6   9
ENDBRANCH   2   3
BRANCH   2  19
ATOM     19  N   UNL     1      45.187   5.736  13.485  0.00  0.00    +0.000 N 
ATOM     20  C   UNL     1      45.912   4.619  13.819  0.00  0.00    +0.000 C 
ATOM     21  O   UNL     1      45.716   3.522  13.303  0.00  0.00    +0.000 OA
ATOM     22  H   UNL     1      45.164   6.492  14.162  0.00  0.00    +0.000 HD
BRANCH  20  23
ATOM     23  C   UNL     1      47.000   4.800  14.786  0.00  0.00    +0.000 A 
ATOM     24  C   UNL     1      47.040   4.005  15.923  0.00  0.00    +0.000 A 
ATOM     25  S   UNL     1      48.349   4.359  16.957  0.00  0.00    +0.000 S 
ATOM     26  C   UNL     1      48.884   5.610  15.938  0.00  0.00    +0.000 A 
ATOM     27  N   UNL     1      49.957   6.372  16.272  0.00  0.00    +0.000 NA
ATOM     28  C   UNL     1      50.232   7.305  15.426  0.00  0.00    +0.000 A 
ATOM     29  N   UNL     1      49.545   7.536  14.259  0.00  0.00    +0.000 N 
ATOM     30  C   UNL     1      48.481   6.760  13.859  0.00  0.00    +0.000 A 
ATOM     31  O   UNL     1      47.931   6.933  12.776  0.00  0.00    +0.000 OA
ATOM     32  C   UNL     1      48.104   5.727  14.802  0.00  0.00    +0.000 A 
ATOM     33  H   UNL     1      49.832   8.266  13.628  0.00  0.00    +0.000 HD
ENDBRANCH  20  23
ENDBRANCH   2  19
TORSDOF 7
ENDMDL
MODEL 2
REMARK VINA RESULT:    -8.316      1.408      2.296
REMARK INTER + INTRA:         -11.934
REMARK INTER:                 -11.980
REMARK INTRA:                   0.046
REMARK UNBOUND:                -0.458
REMARK  Name = 
REMARK  8 active torsions:
REMARK  status: ('A' for Active; 'I' for Inactive)
REMARK    1  A    between atoms: C_1  and  C_2
REMARK    2  A    between atoms: C_2  and  N_3
REMARK    3  A    between atoms: C_2  and  C_16
REMARK    4  A    between atoms: C_4  and  C_6
REMARK    5  A    between atoms: C_19  and  O_20
REMARK    6  A    between atoms: O_20  and  C_21
REMARK    7  A    between atoms: C_25  and  C_26
REMARK    8  A    between atoms: C_26  and  O_27
REMARK                            x       y       z     vdW  Elec       q    Type
REMARK                         _______ _______ _______ _____ _____    ______ ____
ROOT
ATOM      1  C   UNL     1      43.629   3.936  13.333  0.00  0.00    +0.000 C 
ATOM      2  C   UNL     1      44.345   5.184  12.798  0.00  0.00    +0.000 C 
ENDROOT
BRANCH   2   3
ATOM      3  C   UNL     1      44.824   4.874  11.385  0.00  0.00    +0.000 A 
ATOM      4  C   UNL     1      45.713   5.754  10.753  0.00  0.00    +0.000 A 
ATOM      5  C   UNL     1      46.069   5.571   9.414  0.00  0.00    +0.000 A 
ATOM      6  C   UNL     1      45.597   4.466   8.703  0.00  0.00    +0.000 A 
ATOM      7  C   UNL     1      44.699   3.591   9.318  0.00  0.00    +0.000 A 
ATOM      8  C   UNL     1      44.306   3.799  10.643  0.00  0.00    +0.000 A 
BRANCH   6   9
ATOM      9  O   UNL     1      45.888   4.198   7.385  0.00  0.00    +0.000 OA
BRANCH   9  10
ATOM     10  C   UNL     1      46.354   2.956   7.012  0.00  0.00    +0.000 A 
ATOM     11  C   UNL     1      46.604   1.910   7.903  0.00  0.00    +0.000 A 
ATOM     12  C   UNL     1      47.095   0.694   7.432  0.00  0.00    +0.000 A 
ATOM     13  C   UNL     1      47.264   0.493   6.061  0.00  0.00    +0.000 A 
ATOM     14  C   UNL     1      46.947   1.505   5.145  0.00  0.00    +0.000 A 
ATOM     15  C   UNL     1      46.495   2.740   5.638  0.00  0.00    +0.000 A 
BRANCH  14  16
ATOM     16  C   UNL     1      46.975   1.249   3.659  0.00  0.00    +0.000 C 
BRANCH  16  17
ATOM     17  O   UNL     1      47.420  -0.065   3.351  0.00  0.00    +0.000 OA
ATOM     18  H   UNL     1      48.380  -0.008   3.210  0.00  0.00    +0.000 HD
ENDBRANCH  16  17
ENDBRANCH  14  16
ENDBRANCH   9  10
ENDBRANCH   6   9
ENDBRANCH   2   3
BRANCH   2  19
ATOM     19  N   UNL     1      45.439   5.623  13.652  0.00  0.00    +0.000 N 
ATOM     20  C   UNL     1      46.398   4.756  14.111  0.00  0.00    +0.000 C 
ATOM     21  O   UNL     1      46.430   3.571  13.790  0.00  0.00    +0.000 OA
ATOM     22  H   UNL     1      45.273   6.461  14.201  0.00  0.00    +0.000 HD
BRANCH  20  23
ATOM     23  C   UNL     1      47.450   5.321  14.963  0.00  0.00    +0.000 A 
ATOM     24  C   UNL     1      48.255   6.339  14.468  0.00  0.00    +0.000 A 
ATOM     25  S   UNL     1      49.444   6.865  15.570  0.00  0.00    +0.000 S 
ATOM     26  C   UNL     1      48.947   5.727  16.731  0.00  0.00    +0.000 A 
ATOM     27  N   UNL     1      49.599   5.609  17.916  0.00  0.00    +0.000 NA
ATOM     28  C   UNL     1      49.138   4.684  18.688  0.00  0.00    +0.000 A 
ATOM     29  N   UNL     1      48.067   3.876  18.393  0.00  0.00    +0.000 N 
ATOM     30  C   UNL     1      47.349   3.992  17.225  0.00  0.00    +0.000 A 
ATOM     31  O   UNL     1      46.349   3.314  17.016  0.00  0.00    +0.000 OA
ATOM     32  C   UNL     1      47.860   4.986  16.303  0.00  0.00    +0.000 A 
ATOM     33  H   UNL     1      47.741   3.191  19.056  0.00  0.00    +0.000 HD
ENDBRANCH  20  23
ENDBRANCH   2  19
TORSDOF 7
ENDMDL
MODEL 3
REMARK VINA RESULT:    -7.810      4.601     10.950
REMARK INTER + INTRA:         -11.235
REMARK INTER:                  -9.857
REMARK INTRA:                  -1.378
REMARK UNBOUND:                -0.458
REMARK  Name = 
REMARK  8 active torsions:
REMARK  status: ('A' for Active; 'I' for Inactive)
REMARK    1  A    between atoms: C_1  and  C_2
REMARK    2  A    between atoms: C_2  and  N_3
REMARK    3  A    between atoms: C_2  and  C_16
REMARK    4  A    between atoms: C_4  and  C_6
REMARK    5  A    between atoms: C_19  and  O_20
REMARK    6  A    between atoms: O_20  and  C_21
REMARK    7  A    between atoms: C_25  and  C_26
REMARK    8  A    between atoms: C_26  and  O_27
REMARK                            x       y       z     vdW  Elec       q    Type
REMARK                         _______ _______ _______ _____ _____    ______ ____
ROOT
ATOM      1  C   UNL     1      47.670   3.099  16.872  0.00  0.00    +0.000 C 
ATOM      2  C   UNL     1      47.970   4.470  16.250  0.00  0.00    +0.000 C 
ENDROOT
BRANCH   2   3
ATOM      3  C   UNL     1      48.024   5.490  17.380  0.00  0.00    +0.000 A 
ATOM      4  C   UNL     1      49.027   6.469  17.373  0.00  0.00    +0.000 A 
ATOM      5  C   UNL     1      49.187   7.337  18.457  0.00  0.00    +0.000 A 
ATOM      6  C   UNL     1      48.302   7.286  19.537  0.00  0.00    +0.000 A 
ATOM      7  C   UNL     1      47.309   6.305  19.561  0.00  0.00    +0.000 A 
ATOM      8  C   UNL     1      47.177   5.407  18.499  0.00  0.00    +0.000 A 
BRANCH   6   9
ATOM      9  O   UNL     1      48.375   8.093  20.649  0.00  0.00    +0.000 OA
BRANCH   9  10
ATOM     10  C   UNL     1      47.454   9.100  20.841  0.00  0.00    +0.000 A 
ATOM     11  C   UNL     1      46.664   9.234  21.985  0.00  0.00    +0.000 A 
ATOM     12  C   UNL     1      45.744  10.276  22.079  0.00  0.00    +0.000 A 
ATOM     13  C   UNL     1      45.665  11.233  21.066  0.00  0.00    +0.000 A 
ATOM     14  C   UNL     1      46.503  11.158  19.945  0.00  0.00    +0.000 A 
ATOM     15  C   UNL     1      47.394  10.077  19.843  0.00  0.00    +0.000 A 
BRANCH  14  16
ATOM     16  C   UNL     1      46.539  12.265  18.922  0.00  0.00    +0.000 C 
BRANCH  16  17
ATOM     17  O   UNL     1      47.287  11.903  17.769  0.00  0.00    +0.000 OA
ATOM     18  H   UNL     1      48.042  12.515  17.724  0.00  0.00    +0.000 HD
ENDBRANCH  16  17
ENDBRANCH  14  16
ENDBRANCH   9  10
ENDBRANCH   6   9
ENDBRANCH   2   3
BRANCH   2  19
ATOM     19  N   UNL     1      47.010   4.851  15.225  0.00  0.00    +0.000 N 
ATOM     20  C   UNL     1      47.379   5.556  14.107  0.00  0.00    +0.000 C 
ATOM     21  O   UNL     1      48.544   5.863  13.870  0.00  0.00    +0.000 OA
ATOM     22  H   UNL     1      46.042   4.929  15.522  0.00  0.00    +0.000 HD
BRANCH  20  23
ATOM     23  C   UNL     1      46.318   5.879  13.147  0.00  0.00    +0.000 A 
ATOM     24  C   UNL     1      46.070   7.206  12.825  0.00  0.00    +0.000 A 
ATOM     25  S   UNL     1      44.790   7.413  11.718  0.00  0.00    +0.000 S 
ATOM     26  C   UNL     1      44.501   5.738  11.660  0.00  0.00    +0.000 A 
ATOM     27  N   UNL     1      43.481   5.232  10.919  0.00  0.00    +0.000 NA
ATOM     28  C   UNL     1      43.355   3.950  10.993  0.00  0.00    +0.000 A 
ATOM     29  N   UNL     1      44.172   3.121  11.722  0.00  0.00    +0.000 N 
ATOM     30  C   UNL     1      45.244   3.586  12.449  0.00  0.00    +0.000 A 
ATOM     31  O   UNL     1      46.007   2.822  13.030  0.00  0.00    +0.000 OA
ATOM     32  C   UNL     1      45.397   5.027  12.437  0.00  0.00    +0.000 A 
ATOM     33  H   UNL     1      44.034   2.123  11.712  0.00  0.00    +0.000 HD
ENDBRANCH  20  23
ENDBRANCH   2  19
TORSDOF 7
ENDMDL
MODEL 4
REMARK VINA RESULT:    -7.777      2.803      4.317
REMARK INTER + INTRA:         -11.190
REMARK INTER:                  -9.817
REMARK INTRA:                  -1.373
REMARK UNBOUND:                -0.458
REMARK  Name = 
REMARK  8 active torsions:
REMARK  status: ('A' for Active; 'I' for Inactive)
REMARK    1  A    between atoms: C_1  and  C_2
REMARK    2  A    between atoms: C_2  and  N_3
REMARK    3  A    between atoms: C_2  and  C_16
REMARK    4  A    between atoms: C_4  and  C_6
REMARK    5  A    between atoms: C_19  and  O_20
REMARK    6  A    between atoms: O_20  and  C_21
REMARK    7  A    between atoms: C_25  and  C_26
REMARK    8  A    between atoms: C_26  and  O_27
REMARK                            x       y       z     vdW  Elec       q    Type
REMARK                         _______ _______ _______ _____ _____    ______ ____
ROOT
ATOM      1  C   UNL     1      47.980   9.056  14.189  0.00  0.00    +0.000 C 
ATOM      2  C   UNL     1      48.249   7.545  14.191  0.00  0.00    +0.000 C 
ENDROOT
BRANCH   2   3
ATOM      3  C   UNL     1      47.288   6.902  13.198  0.00  0.00    +0.000 A 
ATOM      4  C   UNL     1      46.668   7.702  12.227  0.00  0.00    +0.000 A 
ATOM      5  C   UNL     1      45.684   7.173  11.388  0.00  0.00    +0.000 A 
ATOM      6  C   UNL     1      45.352   5.819  11.456  0.00  0.00    +0.000 A 
ATOM      7  C   UNL     1      45.952   5.016  12.429  0.00  0.00    +0.000 A 
ATOM      8  C   UNL     1      46.903   5.555  13.300  0.00  0.00    +0.000 A 
BRANCH   6   9
ATOM      9  O   UNL     1      44.400   5.204  10.676  0.00  0.00    +0.000 OA
BRANCH   9  10
ATOM     10  C   UNL     1      44.737   4.134   9.877  0.00  0.00    +0.000 A 
ATOM     11  C   UNL     1      44.232   2.841  10.039  0.00  0.00    +0.000 A 
ATOM     12  C   UNL     1      44.649   1.817   9.192  0.00  0.00    +0.000 A 
ATOM     13  C   UNL     1      45.513   2.096   8.131  0.00  0.00    +0.000 A 
ATOM     14  C   UNL     1      45.971   3.401   7.907  0.00  0.00    +0.000 A 
ATOM     15  C   UNL     1      45.577   4.415   8.795  0.00  0.00    +0.000 A 
BRANCH  14  16
ATOM     16  C   UNL     1      46.775   3.745   6.678  0.00  0.00    +0.000 C 
BRANCH  16  17
ATOM     17  O   UNL     1      48.006   3.036   6.628  0.00  0.00    +0.000 OA
ATOM     18  H   UNL     1      48.314   3.077   5.707  0.00  0.00    +0.000 HD
ENDBRANCH  16  17
ENDBRANCH  14  16
ENDBRANCH   9  10
ENDBRANCH   6   9
ENDBRANCH   2   3
BRANCH   2  19
ATOM     19  N   UNL     1      48.135   6.949  15.513  0.00  0.00    +0.000 N 
ATOM     20  C   UNL     1      49.215   6.407  16.164  0.00  0.00    +0.000 C 
ATOM     21  O   UNL     1      50.353   6.438  15.701  0.00  0.00    +0.000 OA
ATOM     22  H   UNL     1      47.217   6.601  15.773  0.00  0.00    +0.000 HD
BRANCH  20  23
ATOM     23  C   UNL     1      48.972   5.839  17.493  0.00  0.00    +0.000 A 
ATOM     24  C   UNL     1      49.199   4.486  17.709  0.00  0.00    +0.000 A 
ATOM     25  S   UNL     1      48.841   3.978  19.297  0.00  0.00    +0.000 S 
ATOM     26  C   UNL     1      48.337   5.540  19.739  0.00  0.00    +0.000 A 
ATOM     27  N   UNL     1      47.849   5.790  20.981  0.00  0.00    +0.000 NA
ATOM     28  C   UNL     1      47.473   7.009  21.170  0.00  0.00    +0.000 A 
ATOM     29  N   UNL     1      47.560   8.012  20.236  0.00  0.00    +0.000 N 
ATOM     30  C   UNL     1      48.090   7.815  18.981  0.00  0.00    +0.000 A 
ATOM     31  O   UNL     1      48.230   8.741  18.190  0.00  0.00    +0.000 OA
ATOM     32  C   UNL     1      48.482   6.448  18.705  0.00  0.00    +0.000 A 
ATOM     33  H   UNL     1      47.273   8.952  20.460  0.00  0.00    +0.000 HD
ENDBRANCH  20  23
ENDBRANCH   2  19
TORSDOF 7
ENDMDL
MODEL 5
REMARK VINA RESULT:    -7.770      4.155      8.960
REMARK INTER + INTRA:         -11.180
REMARK INTER:                 -10.011
REMARK INTRA:                  -1.169
REMARK UNBOUND:                -0.458
REMARK  Name = 
REMARK  8 active torsions:
REMARK  status: ('A' for Active; 'I' for Inactive)
REMARK    1  A    between atoms: C_1  and  C_2
REMARK    2  A    between atoms: C_2  and  N_3
REMARK    3  A    between atoms: C_2  and  C_16
REMARK    4  A    between atoms: C_4  and  C_6
REMARK    5  A    between atoms: C_19  and  O_20
REMARK    6  A    between atoms: O_20  and  C_21
REMARK    7  A    between atoms: C_25  and  C_26
REMARK    8  A    between atoms: C_26  and  O_27
REMARK                            x       y       z     vdW  Elec       q    Type
REMARK                         _______ _______ _______ _____ _____    ______ ____
ROOT
ATOM      1  C   UNL     1      49.740   8.209  11.583  0.00  0.00    +0.000 C 
ATOM      2  C   UNL     1      48.526   7.745  12.400  0.00  0.00    +0.000 C 
ENDROOT
BRANCH   2   3
ATOM      3  C   UNL     1      49.031   7.304  13.769  0.00  0.00    +0.000 A 
ATOM      4  C   UNL     1      48.203   6.519  14.585  0.00  0.00    +0.000 A 
ATOM      5  C   UNL     1      48.579   6.208  15.894  0.00  0.00    +0.000 A 
ATOM      6  C   UNL     1      49.820   6.616  16.388  0.00  0.00    +0.000 A 
ATOM      7  C   UNL     1      50.646   7.410  15.589  0.00  0.00    +0.000 A 
ATOM      8  C   UNL     1      50.250   7.762  14.296  0.00  0.00    +0.000 A 
BRANCH   6   9
ATOM      9  O   UNL     1      50.281   6.361  17.659  0.00  0.00    +0.000 OA
BRANCH   9  10
ATOM     10  C   UNL     1      51.142   5.312  17.891  0.00  0.00    +0.000 A 
ATOM     11  C   UNL     1      52.334   5.416  18.612  0.00  0.00    +0.000 A 
ATOM     12  C   UNL     1      53.151   4.301  18.777  0.00  0.00    +0.000 A 
ATOM     13  C   UNL     1      52.743   3.058  18.290  0.00  0.00    +0.000 A 
ATOM     14  C   UNL     1      51.515   2.916  17.630  0.00  0.00    +0.000 A 
ATOM     15  C   UNL     1      50.723   4.059  17.432  0.00  0.00    +0.000 A 
BRANCH  14  16
ATOM     16  C   UNL     1      50.991   1.557  17.238  0.00  0.00    +0.000 C 
BRANCH  16  17
ATOM     17  O   UNL     1      50.004   1.639  16.219  0.00  0.00    +0.000 OA
ATOM     18  H   UNL     1      50.477   1.607  15.370  0.00  0.00    +0.000 HD
ENDBRANCH  16  17
ENDBRANCH  14  16
ENDBRANCH   9  10
ENDBRANCH   6   9
ENDBRANCH   2   3
BRANCH   2  19
ATOM     19  N   UNL     1      47.766   6.694  11.742  0.00  0.00    +0.000 N 
ATOM     20  C   UNL     1      46.413   6.793  11.535  0.00  0.00    +0.000 C 
ATOM     21  O   UNL     1      45.767   7.793  11.840  0.00  0.00    +0.000 OA
ATOM     22  H   UNL     1      48.158   5.759  11.787  0.00  0.00    +0.000 HD
BRANCH  20  23
ATOM     23  C   UNL     1      45.761   5.668  10.859  0.00  0.00    +0.000 A 
ATOM     24  C   UNL     1      45.833   5.568   9.476  0.00  0.00    +0.000 A 
ATOM     25  S   UNL     1      45.002   4.221   8.844  0.00  0.00    +0.000 S 
ATOM     26  C   UNL     1      44.487   3.746  10.393  0.00  0.00    +0.000 A 
ATOM     27  N   UNL     1      43.676   2.669  10.558  0.00  0.00    +0.000 NA
ATOM     28  C   UNL     1      43.335   2.442  11.782  0.00  0.00    +0.000 A 
ATOM     29  N   UNL     1      43.750   3.181  12.863  0.00  0.00    +0.000 N 
ATOM     30  C   UNL     1      44.607   4.252  12.746  0.00  0.00    +0.000 A 
ATOM     31  O   UNL     1      45.027   4.849  13.731  0.00  0.00    +0.000 OA
ATOM     32  C   UNL     1      44.979   4.576  11.383  0.00  0.00    +0.000 A 
ATOM     33  H   UNL     1      43.468   2.931  13.797  0.00  0.00    +0.000 HD
ENDBRANCH  20  23
ENDBRANCH   2  19
TORSDOF 7
ENDMDL
MODEL 6
REMARK VINA RESULT:    -7.754      3.009      4.722
REMARK INTER + INTRA:         -11.158
REMARK INTER:                 -10.249
REMARK INTRA:                  -0.910
REMARK UNBOUND:                -0.458
REMARK  Name = 
REMARK  8 active torsions:
REMARK  status: ('A' for Active; 'I' for Inactive)
REMARK    1  A    between atoms: C_1  and  C_2
REMARK    2  A    between atoms: C_2  and  N_3
REMARK    3  A    between atoms: C_2  and  C_16
REMARK    4  A    between atoms: C_4  and  C_6
REMARK    5  A    between atoms: C_19  and  O_20
REMARK    6  A    between atoms: O_20  and  C_21
REMARK    7  A    between atoms: C_25  and  C_26
REMARK    8  A    between atoms: C_26  and  O_27
REMARK                            x       y       z     vdW  Elec       q    Type
REMARK                         _______ _______ _______ _____ _____    ______ ____
ROOT
ATOM      1  C   UNL     1      49.437   8.487  13.560  0.00  0.00    +0.000 C 
ATOM      2  C   UNL     1      48.878   7.194  14.172  0.00  0.00    +0.000 C 
ENDROOT
BRANCH   2   3
ATOM      3  C   UNL     1      47.689   6.758  13.325  0.00  0.00    +0.000 A 
ATOM      4  C   UNL     1      47.054   5.540  13.610  0.00  0.00    +0.000 A 
ATOM      5  C   UNL     1      46.047   5.048  12.775  0.00  0.00    +0.000 A 
ATOM      6  C   UNL     1      45.609   5.796  11.681  0.00  0.00    +0.000 A 
ATOM      7  C   UNL     1      46.243   7.003  11.380  0.00  0.00    +0.000 A 
ATOM      8  C   UNL     1      47.282   7.475  12.187  0.00  0.00    +0.000 A 
BRANCH   6   9
ATOM      9  O   UNL     1      44.627   5.400  10.802  0.00  0.00    +0.000 OA
BRANCH   9  10
ATOM     10  C   UNL     1      44.804   4.281  10.017  0.00  0.00    +0.000 A 
ATOM     11  C   UNL     1      44.202   3.045  10.261  0.00  0.00    +0.000 A 
ATOM     12  C   UNL     1      44.458   1.965   9.420  0.00  0.00    +0.000 A 
ATOM     13  C   UNL     1      45.256   2.135   8.288  0.00  0.00    +0.000 A 
ATOM     14  C   UNL     1      45.810   3.386   7.984  0.00  0.00    +0.000 A 
ATOM     15  C   UNL     1      45.578   4.455   8.865  0.00  0.00    +0.000 A 
BRANCH  14  16
ATOM     16  C   UNL     1      46.541   3.622   6.686  0.00  0.00    +0.000 C 
BRANCH  16  17
ATOM     17  O   UNL     1      47.923   3.305   6.787  0.00  0.00    +0.000 OA
ATOM     18  H   UNL     1      48.205   3.568   7.680  0.00  0.00    +0.000 HD
ENDBRANCH  16  17
ENDBRANCH  14  16
ENDBRANCH   9  10
ENDBRANCH   6   9
ENDBRANCH   2   3
BRANCH   2  19
ATOM     19  N   UNL     1      48.517   7.338  15.574  0.00  0.00    +0.000 N 
ATOM     20  C   UNL     1      49.145   6.626  16.565  0.00  0.00    +0.000 C 
ATOM     21  O   UNL     1      50.083   5.865  16.343  0.00  0.00    +0.000 OA
ATOM     22  H   UNL     1      47.575   7.664  15.765  0.00  0.00    +0.000 HD
BRANCH  20  23
ATOM     23  C   UNL     1      48.692   6.862  17.939  0.00  0.00    +0.000 A 
ATOM     24  C   UNL     1      48.381   8.154  18.343  0.00  0.00    +0.000 A 
ATOM     25  S   UNL     1      47.898   8.262  19.974  0.00  0.00    +0.000 S 
ATOM     26  C   UNL     1      48.124   6.593  20.206  0.00  0.00    +0.000 A 
ATOM     27  N   UNL     1      47.930   6.026  21.425  0.00  0.00    +0.000 NA
ATOM     28  C   UNL     1      48.170   4.759  21.467  0.00  0.00    +0.000 A 
ATOM     29  N   UNL     1      48.564   3.998  20.394  0.00  0.00    +0.000 N 
ATOM     30  C   UNL     1      48.728   4.523  19.132  0.00  0.00    +0.000 A 
ATOM     31  O   UNL     1      49.004   3.812  18.171  0.00  0.00    +0.000 OA
ATOM     32  C   UNL     1      48.517   5.953  19.045  0.00  0.00    +0.000 A 
ATOM     33  H   UNL     1      48.707   3.006  20.490  0.00  0.00    +0.000 HD
ENDBRANCH  20  23
ENDBRANCH   2  19
TORSDOF 7
ENDMDL
MODEL 7
REMARK VINA RESULT:    -7.337      3.628      9.920
REMARK INTER + INTRA:         -10.583
REMARK INTER:                  -9.417
REMARK INTRA:                  -1.166
REMARK UNBOUND:                -0.458
REMARK  Name = 
REMARK  8 active torsions:
REMARK  status: ('A' for Active; 'I' for Inactive)
REMARK    1  A    between atoms: C_1  and  C_2
REMARK    2  A    between atoms: C_2  and  N_3
REMARK    3  A    between atoms: C_2  and  C_16
REMARK    4  A    between atoms: C_4  and  C_6
REMARK    5  A    between atoms: C_19  and  O_20
REMARK    6  A    between atoms: O_20  and  C_21
REMARK    7  A    between atoms: C_25  and  C_26
REMARK    8  A    between atoms: C_26  and  O_27
REMARK                            x       y       z     vdW  Elec       q    Type
REMARK                         _______ _______ _______ _____ _____    ______ ____
ROOT
ATOM      1  C   UNL     1      49.087   7.826  11.419  0.00  0.00    +0.000 C 
ATOM      2  C   UNL     1      47.956   7.686  12.447  0.00  0.00    +0.000 C 
ENDROOT
BRANCH   2   3
ATOM      3  C   UNL     1      48.588   7.670  13.833  0.00  0.00    +0.000 A 
ATOM      4  C   UNL     1      48.435   6.536  14.644  0.00  0.00    +0.000 A 
ATOM      5  C   UNL     1      48.887   6.537  15.966  0.00  0.00    +0.000 A 
ATOM      6  C   UNL     1      49.563   7.646  16.480  0.00  0.00    +0.000 A 
ATOM      7  C   UNL     1      49.709   8.785  15.686  0.00  0.00    +0.000 A 
ATOM      8  C   UNL     1      49.215   8.803  14.379  0.00  0.00    +0.000 A 
BRANCH   6   9
ATOM      9  O   UNL     1      50.045   7.744  17.765  0.00  0.00    +0.000 OA
BRANCH   9  10
ATOM     10  C   UNL     1      49.213   7.528  18.841  0.00  0.00    +0.000 A 
ATOM     11  C   UNL     1      48.153   8.364  19.197  0.00  0.00    +0.000 A 
ATOM     12  C   UNL     1      47.377   8.072  20.316  0.00  0.00    +0.000 A 
ATOM     13  C   UNL     1      47.609   6.902  21.040  0.00  0.00    +0.000 A 
ATOM     14  C   UNL     1      48.620   6.011  20.655  0.00  0.00    +0.000 A 
ATOM     15  C   UNL     1      49.422   6.341  19.550  0.00  0.00    +0.000 A 
BRANCH  14  16
ATOM     16  C   UNL     1      48.779   4.671  21.331  0.00  0.00    +0.000 C 
BRANCH  16  17
ATOM     17  O   UNL     1      48.305   3.605  20.520  0.00  0.00    +0.000 OA
ATOM     18  H   UNL     1      48.781   3.664  19.674  0.00  0.00    +0.000 HD
ENDBRANCH  16  17
ENDBRANCH  14  16
ENDBRANCH   9  10
ENDBRANCH   6   9
ENDBRANCH   2   3
BRANCH   2  19
ATOM     19  N   UNL     1      47.124   6.513  12.221  0.00  0.00    +0.000 N 
ATOM     20  C   UNL     1      45.814   6.614  11.824  0.00  0.00    +0.000 C 
ATOM     21  O   UNL     1      45.276   7.691  11.582  0.00  0.00    +0.000 OA
ATOM     22  H   UNL     1      47.393   5.668  12.716  0.00  0.00    +0.000 HD
BRANCH  20  23
ATOM     23  C   UNL     1      45.083   5.359  11.628  0.00  0.00    +0.000 A 
ATOM     24  C   UNL     1      44.354   4.822  12.681  0.00  0.00    +0.000 A 
ATOM     25  S   UNL     1      43.586   3.348  12.298  0.00  0.00    +0.000 S 
ATOM     26  C   UNL     1      44.231   3.360  10.726  0.00  0.00    +0.000 A 
ATOM     27  N   UNL     1      43.998   2.333   9.869  0.00  0.00    +0.000 NA
ATOM     28  C   UNL     1      44.575   2.455   8.722  0.00  0.00    +0.000 A 
ATOM     29  N   UNL     1      45.348   3.524   8.341  0.00  0.00    +0.000 N 
ATOM     30  C   UNL     1      45.572   4.608   9.160  0.00  0.00    +0.000 A 
ATOM     31  O   UNL     1      46.200   5.587   8.772  0.00  0.00    +0.000 OA
ATOM     32  C   UNL     1      44.984   4.494  10.479  0.00  0.00    +0.000 A 
ATOM     33  H   UNL     1      45.747   3.569   7.416  0.00  0.00    +0.000 HD
ENDBRANCH  20  23
ENDBRANCH   2  19
TORSDOF 7
ENDMDL
MODEL 8
REMARK VINA RESULT:    -7.270      2.580      4.755
REMARK INTER + INTRA:         -10.491
REMARK INTER:                  -9.169
REMARK INTRA:                  -1.323
REMARK UNBOUND:                -0.458
REMARK  Name = 
REMARK  8 active torsions:
REMARK  status: ('A' for Active; 'I' for Inactive)
REMARK    1  A    between atoms: C_1  and  C_2
REMARK    2  A    between atoms: C_2  and  N_3
REMARK    3  A    between atoms: C_2  and  C_16
REMARK    4  A    between atoms: C_4  and  C_6
REMARK    5  A    between atoms: C_19  and  O_20
REMARK    6  A    between atoms: O_20  and  C_21
REMARK    7  A    between atoms: C_25  and  C_26
REMARK    8  A    between atoms: C_26  and  O_27
REMARK                            x       y       z     vdW  Elec       q    Type
REMARK                         _______ _______ _______ _____ _____    ______ ____
ROOT
ATOM      1  C   UNL     1      48.703   9.937  14.084  0.00  0.00    +0.000 C 
ATOM      2  C   UNL     1      48.883   8.412  14.058  0.00  0.00    +0.000 C 
ENDROOT
BRANCH   2   3
ATOM      3  C   UNL     1      47.711   7.821  13.283  0.00  0.00    +0.000 A 
ATOM      4  C   UNL     1      47.722   6.457  12.960  0.00  0.00    +0.000 A 
ATOM      5  C   UNL     1      46.731   5.909  12.139  0.00  0.00    +0.000 A 
ATOM      6  C   UNL     1      45.675   6.702  11.685  0.00  0.00    +0.000 A 
ATOM      7  C   UNL     1      45.662   8.064  11.989  0.00  0.00    +0.000 A 
ATOM      8  C   UNL     1      46.677   8.623  12.771  0.00  0.00    +0.000 A 
BRANCH   6   9
ATOM      9  O   UNL     1      44.655   6.259  10.875  0.00  0.00    +0.000 OA
BRANCH   9  10
ATOM     10  C   UNL     1      44.664   4.973  10.381  0.00  0.00    +0.000 A 
ATOM     11  C   UNL     1      44.029   3.890  10.993  0.00  0.00    +0.000 A 
ATOM     12  C   UNL     1      44.112   2.620  10.428  0.00  0.00    +0.000 A 
ATOM     13  C   UNL     1      44.764   2.440   9.207  0.00  0.00    +0.000 A 
ATOM     14  C   UNL     1      45.343   3.527   8.539  0.00  0.00    +0.000 A 
ATOM     15  C   UNL     1      45.290   4.794   9.143  0.00  0.00    +0.000 A 
BRANCH  14  16
ATOM     16  C   UNL     1      45.913   3.377   7.150  0.00  0.00    +0.000 C 
BRANCH  16  17
ATOM     17  O   UNL     1      46.960   4.304   6.899  0.00  0.00    +0.000 OA
ATOM     18  H   UNL     1      47.217   4.189   5.968  0.00  0.00    +0.000 HD
ENDBRANCH  16  17
ENDBRANCH  14  16
ENDBRANCH   9  10
ENDBRANCH   6   9
ENDBRANCH   2   3
BRANCH   2  19
ATOM     19  N   UNL     1      48.997   7.831  15.387  0.00  0.00    +0.000 N 
ATOM     20  C   UNL     1      50.189   7.354  15.874  0.00  0.00    +0.000 C 
ATOM     21  O   UNL     1      51.242   7.435  15.246  0.00  0.00    +0.000 OA
ATOM     22  H   UNL     1      48.148   7.440  15.783  0.00  0.00    +0.000 HD
BRANCH  20  23
ATOM     23  C   UNL     1      50.175   6.793  17.229  0.00  0.00    +0.000 A 
ATOM     24  C   UNL     1      50.947   7.386  18.220  0.00  0.00    +0.000 A 
ATOM     25  S   UNL     1      50.841   6.599  19.728  0.00  0.00    +0.000 S 
ATOM     26  C   UNL     1      49.791   5.420  19.099  0.00  0.00    +0.000 A 
ATOM     27  N   UNL     1      49.349   4.395  19.872  0.00  0.00    +0.000 NA
ATOM     28  C   UNL     1      48.586   3.555  19.259  0.00  0.00    +0.000 A 
ATOM     29  N   UNL     1      48.202   3.658  17.944  0.00  0.00    +0.000 N 
ATOM     30  C   UNL     1      48.587   4.704  17.138  0.00  0.00    +0.000 A 
ATOM     31  O   UNL     1      48.170   4.818  15.990  0.00  0.00    +0.000 OA
ATOM     32  C   UNL     1      49.487   5.648  17.769  0.00  0.00    +0.000 A 
ATOM     33  H   UNL     1      47.579   2.980  17.535  0.00  0.00    +0.000 HD
ENDBRANCH  20  23
ENDBRANCH   2  19
TORSDOF 7
ENDMDL
MODEL 9
REMARK VINA RESULT:    -7.259      2.111      2.898
REMARK INTER + INTRA:         -10.476
REMARK INTER:                  -9.600
REMARK INTRA:                  -0.876
REMARK UNBOUND:                -0.458
REMARK  Name = 
REMARK  8 active torsions:
REMARK  status: ('A' for Active; 'I' for Inactive)
REMARK    1  A    between atoms: C_1  and  C_2
REMARK    2  A    between atoms: C_2  and  N_3
REMARK    3  A    between atoms: C_2  and  C_16
REMARK    4  A    between atoms: C_4  and  C_6
REMARK    5  A    between atoms: C_19  and  O_20
REMARK    6  A    between atoms: O_20  and  C_21
REMARK    7  A    between atoms: C_25  and  C_26
REMARK    8  A    between atoms: C_26  and  O_27
REMARK                            x       y       z     vdW  Elec       q    Type
REMARK                         _______ _______ _______ _____ _____    ______ ____
ROOT
ATOM      1  C   UNL     1      45.814   4.627  14.000  0.00  0.00    +0.000 C 
ATOM      2  C   UNL     1      45.767   5.876  13.109  0.00  0.00    +0.000 C 
ENDROOT
BRANCH   2   3
ATOM      3  C   UNL     1      45.535   5.415  11.676  0.00  0.00    +0.000 A 
ATOM      4  C   UNL     1      44.744   4.281  11.440  0.00  0.00    +0.000 A 
ATOM      5  C   UNL     1      44.618   3.753  10.152  0.00  0.00    +0.000 A 
ATOM      6  C   UNL     1      45.225   4.390   9.067  0.00  0.00    +0.000 A 
ATOM      7  C   UNL     1      46.027   5.510   9.292  0.00  0.00    +0.000 A 
ATOM      8  C   UNL     1      46.191   6.012  10.586  0.00  0.00    +0.000 A 
BRANCH   6   9
ATOM      9  O   UNL     1      45.162   3.950   7.764  0.00  0.00    +0.000 OA
BRANCH   9  10
ATOM     10  C   UNL     1      45.889   2.851   7.363  0.00  0.00    +0.000 A 
ATOM     11  C   UNL     1      46.151   1.743   8.172  0.00  0.00    +0.000 A 
ATOM     12  C   UNL     1      46.914   0.685   7.683  0.00  0.00    +0.000 A 
ATOM     13  C   UNL     1      47.355   0.696   6.359  0.00  0.00    +0.000 A 
ATOM     14  C   UNL     1      47.039   1.764   5.508  0.00  0.00    +0.000 A 
ATOM     15  C   UNL     1      46.306   2.843   6.028  0.00  0.00    +0.000 A 
BRANCH  14  16
ATOM     16  C   UNL     1      47.372   1.716   4.038  0.00  0.00    +0.000 C 
BRANCH  16  17
ATOM     17  O   UNL     1      47.478   0.383   3.557  0.00  0.00    +0.000 OA
ATOM     18  H   UNL     1      47.252  -0.201   4.301  0.00  0.00    +0.000 HD
ENDBRANCH  16  17
ENDBRANCH  14  16
ENDBRANCH   9  10
ENDBRANCH   6   9
ENDBRANCH   2   3
BRANCH   2  19
ATOM     19  N   UNL     1      46.960   6.702  13.223  0.00  0.00    +0.000 N 
ATOM     20  C   UNL     1      46.895   8.070  13.303  0.00  0.00    +0.000 C 
ATOM     21  O   UNL     1      45.831   8.683  13.338  0.00  0.00    +0.000 OA
ATOM     22  H   UNL     1      47.821   6.300  12.865  0.00  0.00    +0.000 HD
BRANCH  20  23
ATOM     23  C   UNL     1      48.168   8.789  13.417  0.00  0.00    +0.000 A 
ATOM     24  C   UNL     1      48.319  10.014  12.781  0.00  0.00    +0.000 A 
ATOM     25  S   UNL     1      49.864  10.704  12.988  0.00  0.00    +0.000 S 
ATOM     26  C   UNL     1      50.394   9.373  13.903  0.00  0.00    +0.000 A 
ATOM     27  N   UNL     1      51.671   9.304  14.358  0.00  0.00    +0.000 NA
ATOM     28  C   UNL     1      51.948   8.225  15.008  0.00  0.00    +0.000 A 
ATOM     29  N   UNL     1      51.055   7.214  15.267  0.00  0.00    +0.000 N 
ATOM     30  C   UNL     1      49.739   7.264  14.865  0.00  0.00    +0.000 A 
ATOM     31  O   UNL     1      48.940   6.387  15.174  0.00  0.00    +0.000 OA
ATOM     32  C   UNL     1      49.394   8.436  14.088  0.00  0.00    +0.000 A 
ATOM     33  H   UNL     1      51.330   6.410  15.807  0.00  0.00    +0.000 HD
ENDBRANCH  20  23
ENDBRANCH   2  19
TORSDOF 7
ENDMDL
