MODEL 1
REMARK VINA RESULT:    -8.018      0.000      0.000
REMARK INTER + INTRA:         -12.529
REMARK INTER:                 -11.299
REMARK INTRA:                  -1.230
REMARK UNBOUND:                -1.230
REMARK  Name = 
REMARK  8 active torsions:
REMARK  status: ('A' for Active; 'I' for Inactive)
REMARK    1  A    between atoms: C_1  and  C_2
REMARK    2  A    between atoms: C_9  and  C_10
REMARK    3  A    between atoms: N_12  and  C_13
REMARK    4  A    between atoms: C_13  and  C_14
REMARK    5  A    between atoms: C_17  and  C_18
REMARK    6  A    between atoms: C_18  and  O_19
REMARK    7  A    between atoms: O_19  and  C_20
REMARK    8  A    between atoms: C_20  and  C_21
REMARK                            x       y       z     vdW  Elec       q    Type
REMARK                         _______ _______ _______ _____ _____    ______ ____
ROOT
ATOM      1  C   UNL     1      47.172   8.208  13.006  0.00  0.00    +0.000 C 
ENDROOT
BRANCH   1   2
ATOM      2  C   UNL     1      46.264   7.219  12.338  0.00  0.00    +0.000 A 
ATOM      3  C   UNL     1      45.041   6.878  12.926  0.00  0.00    +0.000 A 
ATOM      4  C   UNL     1      44.178   5.989  12.283  0.00  0.00    +0.000 A 
ATOM      5  C   UNL     1      44.531   5.419  11.053  0.00  0.00    +0.000 A 
ATOM      6  C   UNL     1      45.779   5.724  10.495  0.00  0.00    +0.000 A 
ATOM      7  C   UNL     1      46.636   6.623  11.128  0.00  0.00    +0.000 A 
BRANCH   5   8
ATOM      8  C   UNL     1      43.595   4.489  10.325  0.00  0.00    +0.000 C 
BRANCH   8   9
ATOM      9  O   UNL     1      44.211   4.044   9.122  0.00  0.00    +0.000 OA
BRANCH   9  10
ATOM     10  C   UNL     1      44.552   2.654   9.187  0.00  0.00    +0.000 C 
BRANCH  10  11
ATOM     11  C   UNL     1      45.652   2.319   8.199  0.00  0.00    +0.000 A 
ATOM     12  C   UNL     1      46.129   3.300   7.337  0.00  0.00    +0.000 A 
ATOM     13  C   UNL     1      47.208   3.018   6.511  0.00  0.00    +0.000 A 
ATOM     14  C   UNL     1      47.779   1.750   6.547  0.00  0.00    +0.000 A 
ATOM     15  C   UNL     1      47.235   0.818   7.414  0.00  0.00    +0.000 A 
ATOM     16  N   UNL     1      46.197   1.072   8.247  0.00  0.00    +0.000 NA
ENDBRANCH  10  11
ENDBRANCH   9  10
ENDBRANCH   8   9
ENDBRANCH   5   8
ENDBRANCH   1   2
BRANCH   1  19
ATOM     17  C   UNL     1      48.587   6.922  14.507  0.00  0.00    +0.000 C 
ATOM     18  O   UNL     1      49.227   6.533  13.527  0.00  0.00    +0.000 OA
ATOM     19  N   UNL     1      47.528   7.785  14.340  0.00  0.00    +0.000 N 
ATOM     20  H   UNL     1      46.917   8.042  15.104  0.00  0.00    +0.000 HD
BRANCH  17  29
ATOM     21  C   UNL     1      46.892   4.044  14.850  0.00  0.00    +0.000 C 
ATOM     22  C   UNL     1      47.594   4.200  16.165  0.00  0.00    +0.000 A 
ATOM     23  N   UNL     1      47.341   3.179  17.040  0.00  0.00    +0.000 NA
ATOM     24  C   UNL     1      47.890   3.163  18.261  0.00  0.00    +0.000 A 
ATOM     25  C   UNL     1      48.723   4.144  18.731  0.00  0.00    +0.000 A 
ATOM     26  C   UNL     1      48.994   5.202  17.853  0.00  0.00    +0.000 A 
ATOM     27  S   UNL     1      50.004   6.539  18.221  0.00  0.00    +0.000 S 
ATOM     28  C   UNL     1      49.751   7.237  16.697  0.00  0.00    +0.000 A 
ATOM     29  C   UNL     1      48.909   6.502  15.875  0.00  0.00    +0.000 A 
ATOM     30  C   UNL     1      48.455   5.273  16.558  0.00  0.00    +0.000 A 
ENDBRANCH  17  29
ENDBRANCH   1  19
TORSDOF 7
ENDMDL
MODEL 2
REMARK VINA RESULT:    -7.760      1.984      2.616
REMARK INTER + INTRA:         -12.166
REMARK INTER:                 -11.214
REMARK INTRA:                  -0.952
REMARK UNBOUND:                -1.230
REMARK  Name = 
REMARK  8 active torsions:
REMARK  status: ('A' for Active; 'I' for Inactive)
REMARK    1  A    between atoms: C_1  and  C_2
REMARK    2  A    between atoms: C_9  and  C_10
REMARK    3  A    between atoms: N_12  and  C_13
REMARK    4  A    between atoms: C_13  and  C_14
REMARK    5  A    between atoms: C_17  and  C_18
REMARK    6  A    between atoms: C_18  and  O_19
REMARK    7  A    between atoms: O_19  and  C_20
REMARK    8  A    between atoms: C_20  and  C_21
REMARK                            x       y       z     vdW  Elec       q    Type
REMARK                         _______ _______ _______ _____ _____    ______ ____
ROOT
ATOM      1  C   UNL     1      48.158   6.474  13.788  0.00  0.00    +0.000 C 
ENDROOT
BRANCH   1   2
ATOM      2  C   UNL     1      47.015   5.969  12.960  0.00  0.00    +0.000 A 
ATOM      3  C   UNL     1      46.244   4.891  13.409  0.00  0.00    +0.000 A 
ATOM      4  C   UNL     1      45.153   4.449  12.658  0.00  0.00    +0.000 A 
ATOM      5  C   UNL     1      44.828   5.067  11.443  0.00  0.00    +0.000 A 
ATOM      6  C   UNL     1      45.636   6.110  10.974  0.00  0.00    +0.000 A 
ATOM      7  C   UNL     1      46.717   6.563  11.729  0.00  0.00    +0.000 A 
BRANCH   5   8
ATOM      8  C   UNL     1      43.632   4.629  10.638  0.00  0.00    +0.000 C 
BRANCH   8   9
ATOM      9  O   UNL     1      44.065   4.145   9.373  0.00  0.00    +0.000 OA
BRANCH   9  10
ATOM     10  C   UNL     1      44.412   2.756   9.429  0.00  0.00    +0.000 C 
BRANCH  10  11
ATOM     11  C   UNL     1      45.516   2.433   8.442  0.00  0.00    +0.000 A 
ATOM     12  C   UNL     1      46.072   3.446   7.670  0.00  0.00    +0.000 A 
ATOM     13  C   UNL     1      47.154   3.164   6.848  0.00  0.00    +0.000 A 
ATOM     14  C   UNL     1      47.648   1.865   6.796  0.00  0.00    +0.000 A 
ATOM     15  C   UNL     1      47.029   0.904   7.576  0.00  0.00    +0.000 A 
ATOM     16  N   UNL     1      45.986   1.155   8.405  0.00  0.00    +0.000 NA
ENDBRANCH  10  11
ENDBRANCH   9  10
ENDBRANCH   8   9
ENDBRANCH   5   8
ENDBRANCH   1   2
BRANCH   1  19
ATOM     17  C   UNL     1      49.055   6.244  16.036  0.00  0.00    +0.000 C 
ATOM     18  O   UNL     1      50.160   6.575  15.601  0.00  0.00    +0.000 OA
ATOM     19  N   UNL     1      47.973   6.174  15.188  0.00  0.00    +0.000 N 
ATOM     20  H   UNL     1      47.078   5.806  15.487  0.00  0.00    +0.000 HD
BRANCH  17  29
ATOM     21  C   UNL     1      48.044   9.162  17.353  0.00  0.00    +0.000 C 
ATOM     22  C   UNL     1      48.000   8.216  18.514  0.00  0.00    +0.000 A 
ATOM     23  N   UNL     1      47.584   8.804  19.678  0.00  0.00    +0.000 NA
ATOM     24  C   UNL     1      47.487   8.099  20.812  0.00  0.00    +0.000 A 
ATOM     25  C   UNL     1      47.796   6.768  20.907  0.00  0.00    +0.000 A 
ATOM     26  C   UNL     1      48.229   6.145  19.728  0.00  0.00    +0.000 A 
ATOM     27  S   UNL     1      48.671   4.492  19.605  0.00  0.00    +0.000 S 
ATOM     28  C   UNL     1      49.026   4.639  17.953  0.00  0.00    +0.000 A 
ATOM     29  C   UNL     1      48.831   5.917  17.449  0.00  0.00    +0.000 A 
ATOM     30  C   UNL     1      48.344   6.828  18.506  0.00  0.00    +0.000 A 
ENDBRANCH  17  29
ENDBRANCH   1  19
TORSDOF 7
ENDMDL
MODEL 3
REMARK VINA RESULT:    -7.601      1.722      2.094
REMARK INTER + INTRA:         -11.941
REMARK INTER:                 -10.822
REMARK INTRA:                  -1.119
REMARK UNBOUND:                -1.230
REMARK  Name = 
REMARK  8 active torsions:
REMARK  status: ('A' for Active; 'I' for Inactive)
REMARK    1  A    between atoms: C_1  and  C_2
REMARK    2  A    between atoms: C_9  and  C_10
REMARK    3  A    between atoms: N_12  and  C_13
REMARK    4  A    between atoms: C_13  and  C_14
REMARK    5  A    between atoms: C_17  and  C_18
REMARK    6  A    between atoms: C_18  and  O_19
REMARK    7  A    between atoms: O_19  and  C_20
REMARK    8  A    between atoms: C_20  and  C_21
REMARK                            x       y       z     vdW  Elec       q    Type
REMARK                         _______ _______ _______ _____ _____    ______ ____
ROOT
ATOM      1  C   UNL     1      48.331   6.777  13.190  0.00  0.00    +0.000 C 
ENDROOT
BRANCH   1   2
ATOM      2  C   UNL     1      47.104   6.102  12.653  0.00  0.00    +0.000 A 
ATOM      3  C   UNL     1      46.568   6.494  11.421  0.00  0.00    +0.000 A 
ATOM      4  C   UNL     1      45.452   5.837  10.902  0.00  0.00    +0.000 A 
ATOM      5  C   UNL     1      44.847   4.791  11.612  0.00  0.00    +0.000 A 
ATOM      6  C   UNL     1      45.357   4.439  12.868  0.00  0.00    +0.000 A 
ATOM      7  C   UNL     1      46.481   5.084  13.382  0.00  0.00    +0.000 A 
BRANCH   5   8
ATOM      8  C   UNL     1      43.666   4.044  11.049  0.00  0.00    +0.000 C 
BRANCH   8   9
ATOM      9  O   UNL     1      43.922   3.708   9.690  0.00  0.00    +0.000 OA
BRANCH   9  10
ATOM     10  C   UNL     1      44.512   2.408   9.571  0.00  0.00    +0.000 C 
BRANCH  10  11
ATOM     11  C   UNL     1      45.539   2.379   8.456  0.00  0.00    +0.000 A 
ATOM     12  C   UNL     1      45.788   3.529   7.716  0.00  0.00    +0.000 A 
ATOM     13  C   UNL     1      46.805   3.527   6.771  0.00  0.00    +0.000 A 
ATOM     14  C   UNL     1      47.542   2.365   6.568  0.00  0.00    +0.000 A 
ATOM     15  C   UNL     1      47.222   1.252   7.327  0.00  0.00    +0.000 A 
ATOM     16  N   UNL     1      46.251   1.232   8.271  0.00  0.00    +0.000 NA
ENDBRANCH  10  11
ENDBRANCH   9  10
ENDBRANCH   8   9
ENDBRANCH   5   8
ENDBRANCH   1   2
BRANCH   1  19
ATOM     17  C   UNL     1      49.067   7.241  15.459  0.00  0.00    +0.000 C 
ATOM     18  O   UNL     1      50.131   6.672  15.203  0.00  0.00    +0.000 OA
ATOM     19  N   UNL     1      48.093   7.351  14.493  0.00  0.00    +0.000 N 
ATOM     20  H   UNL     1      47.172   7.716  14.697  0.00  0.00    +0.000 HD
BRANCH  17  29
ATOM     21  C   UNL     1      48.055   4.600  17.268  0.00  0.00    +0.000 C 
ATOM     22  C   UNL     1      48.001   5.738  18.243  0.00  0.00    +0.000 A 
ATOM     23  N   UNL     1      47.584   5.364  19.491  0.00  0.00    +0.000 NA
ATOM     24  C   UNL     1      47.480   6.258  20.482  0.00  0.00    +0.000 A 
ATOM     25  C   UNL     1      47.767   7.590  20.335  0.00  0.00    +0.000 A 
ATOM     26  C   UNL     1      48.192   7.997  19.063  0.00  0.00    +0.000 A 
ATOM     27  S   UNL     1      48.604   9.608  18.643  0.00  0.00    +0.000 S 
ATOM     28  C   UNL     1      48.963   9.173  17.044  0.00  0.00    +0.000 A 
ATOM     29  C   UNL     1      48.784   7.823  16.776  0.00  0.00    +0.000 A 
ATOM     30  C   UNL     1      48.328   7.106  17.986  0.00  0.00    +0.000 A 
ENDBRANCH  17  29
ENDBRANCH   1  19
TORSDOF 7
ENDMDL
MODEL 4
REMARK VINA RESULT:    -7.149      3.467      5.890
REMARK INTER + INTRA:         -11.304
REMARK INTER:                 -10.114
REMARK INTRA:                  -1.190
REMARK UNBOUND:                -1.230
REMARK  Name = 
REMARK  8 active torsions:
REMARK  status: ('A' for Active; 'I' for Inactive)
REMARK    1  A    between atoms: C_1  and  C_2
REMARK    2  A    between atoms: C_9  and  C_10
REMARK    3  A    between atoms: N_12  and  C_13
REMARK    4  A    between atoms: C_13  and  C_14
REMARK    5  A    between atoms: C_17  and  C_18
REMARK    6  A    between atoms: C_18  and  O_19
REMARK    7  A    between atoms: O_19  and  C_20
REMARK    8  A    between atoms: C_20  and  C_21
REMARK                            x       y       z     vdW  Elec       q    Type
REMARK                         _______ _______ _______ _____ _____    ______ ____
ROOT
ATOM      1  C   UNL     1      47.888   6.934  12.741  0.00  0.00    +0.000 C 
ENDROOT
BRANCH   1   2
ATOM      2  C   UNL     1      46.823   5.983  12.283  0.00  0.00    +0.000 A 
ATOM      3  C   UNL     1      46.438   4.913  13.098  0.00  0.00    +0.000 A 
ATOM      4  C   UNL     1      45.417   4.053  12.689  0.00  0.00    +0.000 A 
ATOM      5  C   UNL     1      44.778   4.241  11.457  0.00  0.00    +0.000 A 
ATOM      6  C   UNL     1      45.205   5.283  10.623  0.00  0.00    +0.000 A 
ATOM      7  C   UNL     1      46.214   6.152  11.035  0.00  0.00    +0.000 A 
BRANCH   5   8
ATOM      8  C   UNL     1      43.648   3.348  11.016  0.00  0.00    +0.000 C 
BRANCH   8   9
ATOM      9  O   UNL     1      43.820   3.008   9.646  0.00  0.00    +0.000 OA
BRANCH   9  10
ATOM     10  C   UNL     1      44.663   1.860   9.488  0.00  0.00    +0.000 C 
BRANCH  10  11
ATOM     11  C   UNL     1      45.661   2.070   8.367  0.00  0.00    +0.000 A 
ATOM     12  C   UNL     1      45.756   3.312   7.750  0.00  0.00    +0.000 A 
ATOM     13  C   UNL     1      46.744   3.530   6.799  0.00  0.00    +0.000 A 
ATOM     14  C   UNL     1      47.608   2.492   6.467  0.00  0.00    +0.000 A 
ATOM     15  C   UNL     1      47.438   1.276   7.107  0.00  0.00    +0.000 A 
ATOM     16  N   UNL     1      46.498   1.042   8.054  0.00  0.00    +0.000 NA
ENDBRANCH  10  11
ENDBRANCH   9  10
ENDBRANCH   8   9
ENDBRANCH   5   8
ENDBRANCH   1   2
BRANCH   1  19
ATOM     17  C   UNL     1      46.862   9.134  12.623  0.00  0.00    +0.000 C 
ATOM     18  O   UNL     1      46.198   8.850  13.623  0.00  0.00    +0.000 OA
ATOM     19  N   UNL     1      47.756   8.225  12.107  0.00  0.00    +0.000 N 
ATOM     20  H   UNL     1      48.239   8.381  11.232  0.00  0.00    +0.000 HD
BRANCH  17  29
ATOM     21  C   UNL     1      43.894   8.921  11.067  0.00  0.00    +0.000 C 
ATOM     22  C   UNL     1      44.379  10.296  10.718  0.00  0.00    +0.000 A 
ATOM     23  N   UNL     1      43.509  10.992   9.924  0.00  0.00    +0.000 NA
ATOM     24  C   UNL     1      43.788  12.237   9.520  0.00  0.00    +0.000 A 
ATOM     25  C   UNL     1      44.940  12.902   9.850  0.00  0.00    +0.000 A 
ATOM     26  C   UNL     1      45.848  12.207  10.660  0.00  0.00    +0.000 A 
ATOM     27  S   UNL     1      47.351  12.833  11.198  0.00  0.00    +0.000 S 
ATOM     28  C   UNL     1      47.721  11.409  12.040  0.00  0.00    +0.000 A 
ATOM     29  C   UNL     1      46.744  10.429  11.943  0.00  0.00    +0.000 A 
ATOM     30  C   UNL     1      45.610  10.902  11.122  0.00  0.00    +0.000 A 
ENDBRANCH  17  29
ENDBRANCH   1  19
TORSDOF 7
ENDMDL
MODEL 5
REMARK VINA RESULT:    -7.028      3.254      5.413
REMARK INTER + INTRA:         -11.134
REMARK INTER:                 -10.015
REMARK INTRA:                  -1.119
REMARK UNBOUND:                -1.230
REMARK  Name = 
REMARK  8 active torsions:
REMARK  status: ('A' for Active; 'I' for Inactive)
REMARK    1  A    between atoms: C_1  and  C_2
REMARK    2  A    between atoms: C_9  and  C_10
REMARK    3  A    between atoms: N_12  and  C_13
REMARK    4  A    between atoms: C_13  and  C_14
REMARK    5  A    between atoms: C_17  and  C_18
REMARK    6  A    between atoms: C_18  and  O_19
REMARK    7  A    between atoms: O_19  and  C_20
REMARK    8  A    between atoms: C_20  and  C_21
REMARK                            x       y       z     vdW  Elec       q    Type
REMARK                         _______ _______ _______ _____ _____    ______ ____
ROOT
ATOM      1  C   UNL     1      48.177   6.471  13.600  0.00  0.00    +0.000 C 
ENDROOT
BRANCH   1   2
ATOM      2  C   UNL     1      46.951   5.903  12.950  0.00  0.00    +0.000 A 
ATOM      3  C   UNL     1      46.213   4.903  13.593  0.00  0.00    +0.000 A 
ATOM      4  C   UNL     1      45.048   4.405  13.007  0.00  0.00    +0.000 A 
ATOM      5  C   UNL     1      44.614   4.887  11.766  0.00  0.00    +0.000 A 
ATOM      6  C   UNL     1      45.385   5.850  11.103  0.00  0.00    +0.000 A 
ATOM      7  C   UNL     1      46.540   6.360  11.694  0.00  0.00    +0.000 A 
BRANCH   5   8
ATOM      8  C   UNL     1      43.338   4.390  11.136  0.00  0.00    +0.000 C 
BRANCH   8   9
ATOM      9  O   UNL     1      43.619   3.880   9.838  0.00  0.00    +0.000 OA
BRANCH   9  10
ATOM     10  C   UNL     1      44.331   2.638   9.903  0.00  0.00    +0.000 C 
BRANCH  10  11
ATOM     11  C   UNL     1      45.318   2.519   8.758  0.00  0.00    +0.000 A 
ATOM     12  C   UNL     1      45.675   3.650   8.033  0.00  0.00    +0.000 A 
ATOM     13  C   UNL     1      46.659   3.556   7.059  0.00  0.00    +0.000 A 
ATOM     14  C   UNL     1      47.254   2.323   6.812  0.00  0.00    +0.000 A 
ATOM     15  C   UNL     1      46.831   1.237   7.558  0.00  0.00    +0.000 A 
ATOM     16  N   UNL     1      45.890   1.304   8.530  0.00  0.00    +0.000 NA
ENDBRANCH  10  11
ENDBRANCH   9  10
ENDBRANCH   8   9
ENDBRANCH   5   8
ENDBRANCH   1   2
BRANCH   1  19
ATOM     17  C   UNL     1      49.824   8.195  13.130  0.00  0.00    +0.000 C 
ATOM     18  O   UNL     1      49.897   8.419  14.340  0.00  0.00    +0.000 OA
ATOM     19  N   UNL     1      48.981   7.215  12.659  0.00  0.00    +0.000 N 
ATOM     20  H   UNL     1      48.816   7.075  11.671  0.00  0.00    +0.000 HD
BRANCH  17  29
ATOM     21  C   UNL     1      47.593  10.328  11.809  0.00  0.00    +0.000 C 
ATOM     22  C   UNL     1      48.867  10.663  11.095  0.00  0.00    +0.000 A 
ATOM     23  N   UNL     1      48.730  11.675  10.185  0.00  0.00    +0.000 NA
ATOM     24  C   UNL     1      49.773  12.099   9.461  0.00  0.00    +0.000 A 
ATOM     25  C   UNL     1      51.031  11.567   9.559  0.00  0.00    +0.000 A 
ATOM     26  C   UNL     1      51.195  10.526  10.481  0.00  0.00    +0.000 A 
ATOM     27  S   UNL     1      52.674   9.707  10.775  0.00  0.00    +0.000 S 
ATOM     28  C   UNL     1      51.965   8.701  11.941  0.00  0.00    +0.000 A 
ATOM     29  C   UNL     1      50.613   8.940  12.143  0.00  0.00    +0.000 A 
ATOM     30  C   UNL     1      50.143  10.041  11.276  0.00  0.00    +0.000 A 
ENDBRANCH  17  29
ENDBRANCH   1  19
TORSDOF 7
ENDMDL
MODEL 6
REMARK VINA RESULT:    -6.906      2.836      3.597
REMARK INTER + INTRA:         -10.962
REMARK INTER:                  -9.990
REMARK INTRA:                  -0.971
REMARK UNBOUND:                -1.230
REMARK  Name = 
REMARK  8 active torsions:
REMARK  status: ('A' for Active; 'I' for Inactive)
REMARK    1  A    between atoms: C_1  and  C_2
REMARK    2  A    between atoms: C_9  and  C_10
REMARK    3  A    between atoms: N_12  and  C_13
REMARK    4  A    between atoms: C_13  and  C_14
REMARK    5  A    between atoms: C_17  and  C_18
REMARK    6  A    between atoms: C_18  and  O_19
REMARK    7  A    between atoms: O_19  and  C_20
REMARK    8  A    between atoms: C_20  and  C_21
REMARK                            x       y       z     vdW  Elec       q    Type
REMARK                         _______ _______ _______ _____ _____    ______ ____
ROOT
ATOM      1  C   UNL     1      49.051   6.918  15.945  0.00  0.00    +0.000 C 
ENDROOT
BRANCH   1   2
ATOM      2  C   UNL     1      48.128   6.175  15.025  0.00  0.00    +0.000 A 
ATOM      3  C   UNL     1      47.911   6.639  13.723  0.00  0.00    +0.000 A 
ATOM      4  C   UNL     1      47.086   5.923  12.854  0.00  0.00    +0.000 A 
ATOM      5  C   UNL     1      46.455   4.747  13.277  0.00  0.00    +0.000 A 
ATOM      6  C   UNL     1      46.634   4.318  14.598  0.00  0.00    +0.000 A 
ATOM      7  C   UNL     1      47.470   5.021  15.464  0.00  0.00    +0.000 A 
BRANCH   5   8
ATOM      8  C   UNL     1      45.592   3.941  12.341  0.00  0.00    +0.000 C 
BRANCH   8   9
ATOM      9  O   UNL     1      44.889   4.820  11.471  0.00  0.00    +0.000 OA
BRANCH   9  10
ATOM     10  C   UNL     1      44.057   4.100  10.553  0.00  0.00    +0.000 C 
BRANCH  10  11
ATOM     11  C   UNL     1      44.880   3.509   9.425  0.00  0.00    +0.000 A 
ATOM     12  C   UNL     1      45.528   4.350   8.528  0.00  0.00    +0.000 A 
ATOM     13  C   UNL     1      46.366   3.808   7.564  0.00  0.00    +0.000 A 
ATOM     14  C   UNL     1      46.525   2.427   7.501  0.00  0.00    +0.000 A 
ATOM     15  C   UNL     1      45.831   1.652   8.414  0.00  0.00    +0.000 A 
ATOM     16  N   UNL     1      45.024   2.155   9.379  0.00  0.00    +0.000 NA
ENDBRANCH  10  11
ENDBRANCH   9  10
ENDBRANCH   8   9
ENDBRANCH   5   8
ENDBRANCH   1   2
BRANCH   1  19
ATOM     17  C   UNL     1      50.331   5.597  17.533  0.00  0.00    +0.000 C 
ATOM     18  O   UNL     1      49.436   5.775  18.363  0.00  0.00    +0.000 OA
ATOM     19  N   UNL     1      50.219   6.134  16.271  0.00  0.00    +0.000 N 
ATOM     20  H   UNL     1      50.976   6.099  15.602  0.00  0.00    +0.000 HD
BRANCH  17  29
ATOM     21  C   UNL     1      49.365   2.429  16.987  0.00  0.00    +0.000 C 
ATOM     22  C   UNL     1      50.805   2.296  17.381  0.00  0.00    +0.000 A 
ATOM     23  N   UNL     1      51.248   1.001  17.390  0.00  0.00    +0.000 NA
ATOM     24  C   UNL     1      52.511   0.706  17.720  0.00  0.00    +0.000 A 
ATOM     25  C   UNL     1      53.443   1.646  18.073  0.00  0.00    +0.000 A 
ATOM     26  C   UNL     1      53.011   2.979  18.074  0.00  0.00    +0.000 A 
ATOM     27  S   UNL     1      53.996   4.323  18.483  0.00  0.00    +0.000 S 
ATOM     28  C   UNL     1      52.728   5.418  18.225  0.00  0.00    +0.000 A 
ATOM     29  C   UNL     1      51.539   4.820  17.833  0.00  0.00    +0.000 A 
ATOM     30  C   UNL     1      51.701   3.354  17.732  0.00  0.00    +0.000 A 
ENDBRANCH  17  29
ENDBRANCH   1  19
TORSDOF 7
ENDMDL
MODEL 7
REMARK VINA RESULT:    -6.871      2.072      3.377
REMARK INTER + INTRA:         -10.912
REMARK INTER:                 -10.074
REMARK INTRA:                  -0.838
REMARK UNBOUND:                -1.230
REMARK  Name = 
REMARK  8 active torsions:
REMARK  status: ('A' for Active; 'I' for Inactive)
REMARK    1  A    between atoms: C_1  and  C_2
REMARK    2  A    between atoms: C_9  and  C_10
REMARK    3  A    between atoms: N_12  and  C_13
REMARK    4  A    between atoms: C_13  and  C_14
REMARK    5  A    between atoms: C_17  and  C_18
REMARK    6  A    between atoms: C_18  and  O_19
REMARK    7  A    between atoms: O_19  and  C_20
REMARK    8  A    between atoms: C_20  and  C_21
REMARK                            x       y       z     vdW  Elec       q    Type
REMARK                         _______ _______ _______ _____ _____    ______ ____
ROOT
ATOM      1  C   UNL     1      47.367   3.786  15.229  0.00  0.00    +0.000 C 
ENDROOT
BRANCH   1   2
ATOM      2  C   UNL     1      46.738   4.313  13.974  0.00  0.00    +0.000 A 
ATOM      3  C   UNL     1      46.902   5.656  13.617  0.00  0.00    +0.000 A 
ATOM      4  C   UNL     1      46.352   6.136  12.427  0.00  0.00    +0.000 A 
ATOM      5  C   UNL     1      45.620   5.287  11.587  0.00  0.00    +0.000 A 
ATOM      6  C   UNL     1      45.415   3.958  11.977  0.00  0.00    +0.000 A 
ATOM      7  C   UNL     1      45.976   3.472  13.157  0.00  0.00    +0.000 A 
BRANCH   5   8
ATOM      8  C   UNL     1      45.053   5.778  10.280  0.00  0.00    +0.000 C 
BRANCH   8   9
ATOM      9  O   UNL     1      45.721   5.133   9.203  0.00  0.00    +0.000 OA
BRANCH   9  10
ATOM     10  C   UNL     1      44.928   4.079   8.645  0.00  0.00    +0.000 C 
BRANCH  10  11
ATOM     11  C   UNL     1      45.800   3.057   7.942  0.00  0.00    +0.000 A 
ATOM     12  C   UNL     1      46.634   3.457   6.905  0.00  0.00    +0.000 A 
ATOM     13  C   UNL     1      47.508   2.541   6.338  0.00  0.00    +0.000 A 
ATOM     14  C   UNL     1      47.518   1.231   6.806  0.00  0.00    +0.000 A 
ATOM     15  C   UNL     1      46.642   0.900   7.827  0.00  0.00    +0.000 A 
ATOM     16  N   UNL     1      45.795   1.779   8.414  0.00  0.00    +0.000 NA
ENDBRANCH  10  11
ENDBRANCH   9  10
ENDBRANCH   8   9
ENDBRANCH   5   8
ENDBRANCH   1   2
BRANCH   1  19
ATOM     17  C   UNL     1      48.334   5.012  17.092  0.00  0.00    +0.000 C 
ATOM     18  O   UNL     1      49.423   4.495  16.833  0.00  0.00    +0.000 OA
ATOM     19  N   UNL     1      47.231   4.717  16.324  0.00  0.00    +0.000 N 
ATOM     20  H   UNL     1      46.303   5.039  16.568  0.00  0.00    +0.000 HD
BRANCH  17  29
ATOM     21  C   UNL     1      48.865   8.006  15.668  0.00  0.00    +0.000 C 
ATOM     22  C   UNL     1      48.545   8.343  17.093  0.00  0.00    +0.000 A 
ATOM     23  N   UNL     1      48.565   9.687  17.350  0.00  0.00    +0.000 NA
ATOM     24  C   UNL     1      48.301  10.161  18.574  0.00  0.00    +0.000 A 
ATOM     25  C   UNL     1      48.002   9.363  19.648  0.00  0.00    +0.000 A 
ATOM     26  C   UNL     1      47.980   7.983  19.409  0.00  0.00    +0.000 A 
ATOM     27  S   UNL     1      47.634   6.794  20.597  0.00  0.00    +0.000 S 
ATOM     28  C   UNL     1      47.825   5.529  19.485  0.00  0.00    +0.000 A 
ATOM     29  C   UNL     1      48.154   5.951  18.205  0.00  0.00    +0.000 A 
ATOM     30  C   UNL     1      48.241   7.425  18.147  0.00  0.00    +0.000 A 
ENDBRANCH  17  29
ENDBRANCH   1  19
TORSDOF 7
ENDMDL
MODEL 8
REMARK VINA RESULT:    -6.555      2.407      3.370
REMARK INTER + INTRA:         -10.468
REMARK INTER:                  -9.516
REMARK INTRA:                  -0.952
REMARK UNBOUND:                -1.230
REMARK  Name = 
REMARK  8 active torsions:
REMARK  status: ('A' for Active; 'I' for Inactive)
REMARK    1  A    between atoms: C_1  and  C_2
REMARK    2  A    between atoms: C_9  and  C_10
REMARK    3  A    between atoms: N_12  and  C_13
REMARK    4  A    between atoms: C_13  and  C_14
REMARK    5  A    between atoms: C_17  and  C_18
REMARK    6  A    between atoms: C_18  and  O_19
REMARK    7  A    between atoms: O_19  and  C_20
REMARK    8  A    between atoms: C_20  and  C_21
REMARK                            x       y       z     vdW  Elec       q    Type
REMARK                         _______ _______ _______ _____ _____    ______ ____
ROOT
ATOM      1  C   UNL     1      47.526   4.302  15.776  0.00  0.00    +0.000 C 
ENDROOT
BRANCH   1   2
ATOM      2  C   UNL     1      46.965   4.586  14.415  0.00  0.00    +0.000 A 
ATOM      3  C   UNL     1      46.374   3.560  13.669  0.00  0.00    +0.000 A 
ATOM      4  C   UNL     1      45.814   3.835  12.421  0.00  0.00    +0.000 A 
ATOM      5  C   UNL     1      45.851   5.132  11.893  0.00  0.00    +0.000 A 
ATOM      6  C   UNL     1      46.491   6.143  12.621  0.00  0.00    +0.000 A 
ATOM      7  C   UNL     1      47.037   5.875  13.875  0.00  0.00    +0.000 A 
BRANCH   5   8
ATOM      8  C   UNL     1      45.217   5.455  10.565  0.00  0.00    +0.000 C 
BRANCH   8   9
ATOM      9  O   UNL     1      44.386   4.373  10.162  0.00  0.00    +0.000 OA
BRANCH   9  10
ATOM     10  C   UNL     1      44.331   4.253   8.735  0.00  0.00    +0.000 C 
BRANCH  10  11
ATOM     11  C   UNL     1      45.452   3.371   8.222  0.00  0.00    +0.000 A 
ATOM     12  C   UNL     1      45.510   2.036   8.603  0.00  0.00    +0.000 A 
ATOM     13  C   UNL     1      46.473   1.207   8.046  0.00  0.00    +0.000 A 
ATOM     14  C   UNL     1      47.377   1.735   7.130  0.00  0.00    +0.000 A 
ATOM     15  C   UNL     1      47.272   3.079   6.815  0.00  0.00    +0.000 A 
ATOM     16  N   UNL     1      46.329   3.906   7.326  0.00  0.00    +0.000 NA
ENDBRANCH  10  11
ENDBRANCH   9  10
ENDBRANCH   8   9
ENDBRANCH   5   8
ENDBRANCH   1   2
BRANCH   1  19
ATOM     17  C   UNL     1      49.003   5.858  16.918  0.00  0.00    +0.000 C 
ATOM     18  O   UNL     1      49.957   5.140  16.606  0.00  0.00    +0.000 OA
ATOM     19  N   UNL     1      47.727   5.516  16.531  0.00  0.00    +0.000 N 
ATOM     20  H   UNL     1      46.913   6.021  16.856  0.00  0.00    +0.000 HD
BRANCH  17  29
ATOM     21  C   UNL     1      48.694   4.809  20.092  0.00  0.00    +0.000 C 
ATOM     22  C   UNL     1      48.952   6.279  20.229  0.00  0.00    +0.000 A 
ATOM     23  N   UNL     1      48.982   6.707  21.529  0.00  0.00    +0.000 NA
ATOM     24  C   UNL     1      49.201   7.993  21.828  0.00  0.00    +0.000 A 
ATOM     25  C   UNL     1      49.402   8.968  20.887  0.00  0.00    +0.000 A 
ATOM     26  C   UNL     1      49.372   8.554  19.548  0.00  0.00    +0.000 A 
ATOM     27  S   UNL     1      49.595   9.593  18.202  0.00  0.00    +0.000 S 
ATOM     28  C   UNL     1      49.405   8.319  17.099  0.00  0.00    +0.000 A 
ATOM     29  C   UNL     1      49.168   7.090  17.697  0.00  0.00    +0.000 A 
ATOM     30  C   UNL     1      49.154   7.219  19.169  0.00  0.00    +0.000 A 
ENDBRANCH  17  29
ENDBRANCH   1  19
TORSDOF 7
ENDMDL
MODEL 9
REMARK VINA RESULT:    -6.246      2.372      3.188
REMARK INTER + INTRA:         -10.032
REMARK INTER:                  -9.152
REMARK INTRA:                  -0.880
REMARK UNBOUND:                -1.230
REMARK  Name = 
REMARK  8 active torsions:
REMARK  status: ('A' for Active; 'I' for Inactive)
REMARK    1  A    between atoms: C_1  and  C_2
REMARK    2  A    between atoms: C_9  and  C_10
REMARK    3  A    between atoms: N_12  and  C_13
REMARK    4  A    between atoms: C_13  and  C_14
REMARK    5  A    between atoms: C_17  and  C_18
REMARK    6  A    between atoms: C_18  and  O_19
REMARK    7  A    between atoms: O_19  and  C_20
REMARK    8  A    between atoms: C_20  and  C_21
REMARK                            x       y       z     vdW  Elec       q    Type
REMARK                         _______ _______ _______ _____ _____    ______ ____
ROOT
ATOM      1  C   UNL     1      46.820   8.839  12.638  0.00  0.00    +0.000 C 
ENDROOT
BRANCH   1   2
ATOM      2  C   UNL     1      46.058   7.599  12.275  0.00  0.00    +0.000 A 
ATOM      3  C   UNL     1      44.759   7.697  11.766  0.00  0.00    +0.000 A 
ATOM      4  C   UNL     1      44.066   6.546  11.388  0.00  0.00    +0.000 A 
ATOM      5  C   UNL     1      44.655   5.282  11.528  0.00  0.00    +0.000 A 
ATOM      6  C   UNL     1      45.935   5.188  12.088  0.00  0.00    +0.000 A 
ATOM      7  C   UNL     1      46.635   6.338  12.452  0.00  0.00    +0.000 A 
BRANCH   5   8
ATOM      8  C   UNL     1      43.938   4.032  11.089  0.00  0.00    +0.000 C 
BRANCH   8   9
ATOM      9  O   UNL     1      44.239   3.769   9.724  0.00  0.00    +0.000 OA
BRANCH   9  10
ATOM     10  C   UNL     1      44.587   2.395   9.516  0.00  0.00    +0.000 C 
BRANCH  10  11
ATOM     11  C   UNL     1      45.602   2.255   8.399  0.00  0.00    +0.000 A 
ATOM     12  C   UNL     1      45.910   3.353   7.603  0.00  0.00    +0.000 A 
ATOM     13  C   UNL     1      46.917   3.249   6.654  0.00  0.00    +0.000 A 
ATOM     14  C   UNL     1      47.586   2.040   6.503  0.00  0.00    +0.000 A 
ATOM     15  C   UNL     1      47.210   0.984   7.316  0.00  0.00    +0.000 A 
ATOM     16  N   UNL     1      46.247   1.062   8.265  0.00  0.00    +0.000 NA
ENDBRANCH  10  11
ENDBRANCH   9  10
ENDBRANCH   8   9
ENDBRANCH   5   8
ENDBRANCH   1   2
BRANCH   1  19
ATOM     17  C   UNL     1      48.940   9.194  13.774  0.00  0.00    +0.000 C 
ATOM     18  O   UNL     1      48.363   9.951  14.558  0.00  0.00    +0.000 OA
ATOM     19  N   UNL     1      48.234   8.574  12.769  0.00  0.00    +0.000 N 
ATOM     20  H   UNL     1      48.690   8.031  12.046  0.00  0.00    +0.000 HD
BRANCH  17  29
ATOM     21  C   UNL     1      49.142   7.046  16.346  0.00  0.00    +0.000 C 
ATOM     22  C   UNL     1      50.563   7.184  15.889  0.00  0.00    +0.000 A 
ATOM     23  N   UNL     1      51.444   6.433  16.618  0.00  0.00    +0.000 NA
ATOM     24  C   UNL     1      52.753   6.441  16.341  0.00  0.00    +0.000 A 
ATOM     25  C   UNL     1      53.312   7.187  15.336  0.00  0.00    +0.000 A 
ATOM     26  C   UNL     1      52.429   7.967  14.578  0.00  0.00    +0.000 A 
ATOM     27  S   UNL     1      52.897   8.979  13.274  0.00  0.00    +0.000 S 
ATOM     28  C   UNL     1      51.300   9.478  12.998  0.00  0.00    +0.000 A 
ATOM     29  C   UNL     1      50.377   8.912  13.866  0.00  0.00    +0.000 A 
ATOM     30  C   UNL     1      51.044   7.996  14.814  0.00  0.00    +0.000 A 
ENDBRANCH  17  29
ENDBRANCH   1  19
TORSDOF 7
ENDMDL
