MODEL 1
REMARK VINA RESULT:    -8.151      0.000      0.000
REMARK INTER + INTRA:         -11.638
REMARK INTER:                 -11.011
REMARK INTRA:                  -0.628
REMARK UNBOUND:                -0.628
REMARK  Name = 
REMARK  6 active torsions:
REMARK  status: ('A' for Active; 'I' for Inactive)
REMARK    1  A    between atoms: C_2  and  C_4
REMARK    2  A    between atoms: C_7  and  N_8
REMARK    3  A    between atoms: N_8  and  C_9
REMARK    4  A    between atoms: C_9  and  C_10
REMARK    5  A    between atoms: C_10  and  C_11
REMARK    6  A    between atoms: C_15  and  C_16
REMARK                            x       y       z     vdW  Elec       q    Type
REMARK                         _______ _______ _______ _____ _____    ______ ____
ROOT
ATOM      1  C   UNL     1      43.496   4.177  11.176  0.00  0.00    +0.000 C 
ENDROOT
BRANCH   1   2
ATOM      2  N   UNL     1      43.727   4.719   9.835  0.00  0.00    +0.000 N 
ATOM      3  H   UNL     1      43.965   5.707   9.853  0.00  0.00    +0.000 HD
BRANCH   2   7
ATOM      4  C   UNL     1      46.484   2.521   7.697  0.00  0.00    +0.000 A 
ATOM      5  C   UNL     1      46.411   3.899   7.548  0.00  0.00    +0.000 A 
ATOM      6  N   UNL     1      45.502   4.668   8.216  0.00  0.00    +0.000 NA
ATOM      7  C   UNL     1      44.656   4.021   9.045  0.00  0.00    +0.000 A 
ATOM      8  C   UNL     1      44.744   2.626   9.169  0.00  0.00    +0.000 A 
ATOM      9  N   UNL     1      45.636   1.838   8.508  0.00  0.00    +0.000 NA
BRANCH   4  11
ATOM     10  N   UNL     1      48.548   2.446   6.402  0.00  0.00    +0.000 N 
ATOM     11  C   UNL     1      47.521   1.738   6.966  0.00  0.00    +0.000 C 
ATOM     12  O   UNL     1      47.472   0.516   6.879  0.00  0.00    +0.000 OA
ATOM     13  H   UNL     1      49.306   1.925   5.981  0.00  0.00    +0.000 HD
ATOM     14  H   UNL     1      48.683   3.425   6.629  0.00  0.00    +0.000 HD
ENDBRANCH   4  11
ENDBRANCH   2   7
ENDBRANCH   1   2
BRANCH   1  15
ATOM     15  C   UNL     1      43.643   5.306  12.210  0.00  0.00    +0.000 C 
BRANCH  15  16
ATOM     16  C   UNL     1      45.080   5.541  12.605  0.00  0.00    +0.000 A 
ATOM     17  C   UNL     1      45.818   6.566  12.008  0.00  0.00    +0.000 A 
ATOM     18  C   UNL     1      47.130   6.815  12.404  0.00  0.00    +0.000 A 
ATOM     19  C   UNL     1      47.696   6.065  13.430  0.00  0.00    +0.000 A 
ATOM     20  C   UNL     1      46.969   5.055  14.088  0.00  0.00    +0.000 A 
ATOM     21  C   UNL     1      45.671   4.776  13.624  0.00  0.00    +0.000 A 
BRANCH  20  22
ATOM     22  C   UNL     1      47.516   4.382  15.276  0.00  0.00    +0.000 A 
ATOM     23  C   UNL     1      47.735   5.071  16.472  0.00  0.00    +0.000 A 
ATOM     24  N   UNL     1      48.196   4.490  17.605  0.00  0.00    +0.000 NA
ATOM     25  C   UNL     1      48.428   3.163  17.503  0.00  0.00    +0.000 A 
ATOM     26  C   UNL     1      48.208   2.461  16.329  0.00  0.00    +0.000 A 
ATOM     27  N   UNL     1      47.748   3.047  15.198  0.00  0.00    +0.000 NA
ENDBRANCH  20  22
ENDBRANCH  15  16
ENDBRANCH   1  15
TORSDOF 6
ENDMDL
MODEL 2
REMARK VINA RESULT:    -7.646      2.616      4.085
REMARK INTER + INTRA:         -10.955
REMARK INTER:                 -10.250
REMARK INTRA:                  -0.706
REMARK UNBOUND:                -0.628
REMARK  Name = 
REMARK  6 active torsions:
REMARK  status: ('A' for Active; 'I' for Inactive)
REMARK    1  A    between atoms: C_2  and  C_4
REMARK    2  A    between atoms: C_7  and  N_8
REMARK    3  A    between atoms: N_8  and  C_9
REMARK    4  A    between atoms: C_9  and  C_10
REMARK    5  A    between atoms: C_10  and  C_11
REMARK    6  A    between atoms: C_15  and  C_16
REMARK                            x       y       z     vdW  Elec       q    Type
REMARK                         _______ _______ _______ _____ _____    ______ ____
ROOT
ATOM      1  C   UNL     1      43.340   3.524  11.425  0.00  0.00    +0.000 C 
ENDROOT
BRANCH   1   2
ATOM      2  N   UNL     1      43.695   4.316  10.244  0.00  0.00    +0.000 N 
ATOM      3  H   UNL     1      44.033   5.243  10.488  0.00  0.00    +0.000 HD
BRANCH   2   7
ATOM      4  C   UNL     1      46.385   2.394   7.780  0.00  0.00    +0.000 A 
ATOM      5  C   UNL     1      46.112   3.744   7.611  0.00  0.00    +0.000 A 
ATOM      6  N   UNL     1      45.214   4.420   8.386  0.00  0.00    +0.000 NA
ATOM      7  C   UNL     1      44.586   3.708   9.345  0.00  0.00    +0.000 A 
ATOM      8  C   UNL     1      44.872   2.341   9.488  0.00  0.00    +0.000 A 
ATOM      9  N   UNL     1      45.756   1.645   8.722  0.00  0.00    +0.000 NA
BRANCH   4  11
ATOM     10  N   UNL     1      48.458   2.477   6.500  0.00  0.00    +0.000 N 
ATOM     11  C   UNL     1      47.401   1.717   6.926  0.00  0.00    +0.000 C 
ATOM     12  O   UNL     1      47.310   0.532   6.621  0.00  0.00    +0.000 OA
ATOM     13  H   UNL     1      49.201   2.012   5.996  0.00  0.00    +0.000 HD
ATOM     14  H   UNL     1      48.624   3.394   6.900  0.00  0.00    +0.000 HD
ENDBRANCH   4  11
ENDBRANCH   2   7
ENDBRANCH   1   2
BRANCH   1  15
ATOM     15  C   UNL     1      43.303   4.443  12.657  0.00  0.00    +0.000 C 
BRANCH  15  16
ATOM     16  C   UNL     1      44.628   5.122  12.908  0.00  0.00    +0.000 A 
ATOM     17  C   UNL     1      45.757   4.366  13.234  0.00  0.00    +0.000 A 
ATOM     18  C   UNL     1      46.990   4.986  13.419  0.00  0.00    +0.000 A 
ATOM     19  C   UNL     1      47.108   6.360  13.239  0.00  0.00    +0.000 A 
ATOM     20  C   UNL     1      46.003   7.148  12.865  0.00  0.00    +0.000 A 
ATOM     21  C   UNL     1      44.754   6.512  12.751  0.00  0.00    +0.000 A 
BRANCH  20  22
ATOM     22  C   UNL     1      46.171   8.567  12.517  0.00  0.00    +0.000 A 
ATOM     23  C   UNL     1      47.421   9.189  12.556  0.00  0.00    +0.000 A 
ATOM     24  N   UNL     1      47.636  10.479  12.206  0.00  0.00    +0.000 NA
ATOM     25  C   UNL     1      46.532  11.141  11.794  0.00  0.00    +0.000 A 
ATOM     26  C   UNL     1      45.285  10.540  11.740  0.00  0.00    +0.000 A 
ATOM     27  N   UNL     1      45.076   9.250  12.093  0.00  0.00    +0.000 NA
ENDBRANCH  20  22
ENDBRANCH  15  16
ENDBRANCH   1  15
TORSDOF 6
ENDMDL
MODEL 3
REMARK VINA RESULT:    -7.440      2.637      7.430
REMARK INTER + INTRA:         -10.677
REMARK INTER:                 -10.103
REMARK INTRA:                  -0.574
REMARK UNBOUND:                -0.628
REMARK  Name = 
REMARK  6 active torsions:
REMARK  status: ('A' for Active; 'I' for Inactive)
REMARK    1  A    between atoms: C_2  and  C_4
REMARK    2  A    between atoms: C_7  and  N_8
REMARK    3  A    between atoms: N_8  and  C_9
REMARK    4  A    between atoms: C_9  and  C_10
REMARK    5  A    between atoms: C_10  and  C_11
REMARK    6  A    between atoms: C_15  and  C_16
REMARK                            x       y       z     vdW  Elec       q    Type
REMARK                         _______ _______ _______ _____ _____    ______ ____
ROOT
ATOM      1  C   UNL     1      45.518   6.864  12.516  0.00  0.00    +0.000 C 
ENDROOT
BRANCH   1   2
ATOM      2  N   UNL     1      46.731   6.054  12.382  0.00  0.00    +0.000 N 
ATOM      3  H   UNL     1      47.518   6.592  12.030  0.00  0.00    +0.000 HD
BRANCH   2   7
ATOM      4  C   UNL     1      47.691   3.813  15.708  0.00  0.00    +0.000 A 
ATOM      5  C   UNL     1      47.870   5.189  15.708  0.00  0.00    +0.000 A 
ATOM      6  N   UNL     1      47.588   5.972  14.625  0.00  0.00    +0.000 NA
ATOM      7  C   UNL     1      47.120   5.340  13.528  0.00  0.00    +0.000 A 
ATOM      8  C   UNL     1      46.958   3.946  13.551  0.00  0.00    +0.000 A 
ATOM      9  N   UNL     1      47.240   3.145  14.615  0.00  0.00    +0.000 NA
BRANCH   4  11
ATOM     10  N   UNL     1      46.920   2.692  17.730  0.00  0.00    +0.000 N 
ATOM     11  C   UNL     1      47.984   3.015  16.932  0.00  0.00    +0.000 C 
ATOM     12  O   UNL     1      49.121   2.650  17.215  0.00  0.00    +0.000 OA
ATOM     13  H   UNL     1      47.087   2.075  18.515  0.00  0.00    +0.000 HD
ATOM     14  H   UNL     1      45.971   2.835  17.403  0.00  0.00    +0.000 HD
ENDBRANCH   4  11
ENDBRANCH   2   7
ENDBRANCH   1   2
BRANCH   1  15
ATOM     15  C   UNL     1      44.592   6.590  11.320  0.00  0.00    +0.000 C 
BRANCH  15  16
ATOM     16  C   UNL     1      44.490   5.120  10.996  0.00  0.00    +0.000 A 
ATOM     17  C   UNL     1      43.570   4.312  11.668  0.00  0.00    +0.000 A 
ATOM     18  C   UNL     1      43.441   2.965  11.339  0.00  0.00    +0.000 A 
ATOM     19  C   UNL     1      44.204   2.430  10.306  0.00  0.00    +0.000 A 
ATOM     20  C   UNL     1      45.108   3.223   9.574  0.00  0.00    +0.000 A 
ATOM     21  C   UNL     1      45.271   4.562   9.970  0.00  0.00    +0.000 A 
BRANCH  20  22
ATOM     22  C   UNL     1      45.786   2.691   8.382  0.00  0.00    +0.000 A 
ATOM     23  C   UNL     1      46.055   3.496   7.272  0.00  0.00    +0.000 A 
ATOM     24  N   UNL     1      46.712   3.067   6.169  0.00  0.00    +0.000 NA
ATOM     25  C   UNL     1      47.110   1.777   6.217  0.00  0.00    +0.000 A 
ATOM     26  C   UNL     1      46.861   0.966   7.312  0.00  0.00    +0.000 A 
ATOM     27  N   UNL     1      46.202   1.399   8.412  0.00  0.00    +0.000 NA
ENDBRANCH  20  22
ENDBRANCH  15  16
ENDBRANCH   1  15
TORSDOF 6
ENDMDL
MODEL 4
REMARK VINA RESULT:    -7.249      1.307      1.954
REMARK INTER + INTRA:         -10.419
REMARK INTER:                  -9.867
REMARK INTRA:                  -0.552
REMARK UNBOUND:                -0.628
REMARK  Name = 
REMARK  6 active torsions:
REMARK  status: ('A' for Active; 'I' for Inactive)
REMARK    1  A    between atoms: C_2  and  C_4
REMARK    2  A    between atoms: C_7  and  N_8
REMARK    3  A    between atoms: N_8  and  C_9
REMARK    4  A    between atoms: C_9  and  C_10
REMARK    5  A    between atoms: C_10  and  C_11
REMARK    6  A    between atoms: C_15  and  C_16
REMARK                            x       y       z     vdW  Elec       q    Type
REMARK                         _______ _______ _______ _____ _____    ______ ____
ROOT
ATOM      1  C   UNL     1      44.397   4.289  11.471  0.00  0.00    +0.000 C 
ENDROOT
BRANCH   1   2
ATOM      2  N   UNL     1      43.955   3.346  10.441  0.00  0.00    +0.000 N 
ATOM      3  H   UNL     1      43.047   3.591  10.056  0.00  0.00    +0.000 HD
BRANCH   2   7
ATOM      4  C   UNL     1      46.513   2.821   7.250  0.00  0.00    +0.000 A 
ATOM      5  C   UNL     1      46.139   1.743   8.040  0.00  0.00    +0.000 A 
ATOM      6  N   UNL     1      45.313   1.869   9.119  0.00  0.00    +0.000 NA
ATOM      7  C   UNL     1      44.865   3.111   9.396  0.00  0.00    +0.000 A 
ATOM      8  C   UNL     1      45.267   4.186   8.588  0.00  0.00    +0.000 A 
ATOM      9  N   UNL     1      46.096   4.086   7.513  0.00  0.00    +0.000 NA
BRANCH   4  11
ATOM     10  N   UNL     1      48.741   2.571   6.291  0.00  0.00    +0.000 N 
ATOM     11  C   UNL     1      47.391   2.616   6.063  0.00  0.00    +0.000 C 
ATOM     12  O   UNL     1      46.936   2.483   4.931  0.00  0.00    +0.000 OA
ATOM     13  H   UNL     1      49.344   2.344   5.511  0.00  0.00    +0.000 HD
ATOM     14  H   UNL     1      49.099   2.499   7.237  0.00  0.00    +0.000 HD
ENDBRANCH   4  11
ENDBRANCH   2   7
ENDBRANCH   1   2
BRANCH   1  15
ATOM     15  C   UNL     1      45.269   3.545  12.496  0.00  0.00    +0.000 C 
BRANCH  15  16
ATOM     16  C   UNL     1      46.254   4.459  13.183  0.00  0.00    +0.000 A 
ATOM     17  C   UNL     1      46.611   5.677  12.600  0.00  0.00    +0.000 A 
ATOM     18  C   UNL     1      47.484   6.544  13.254  0.00  0.00    +0.000 A 
ATOM     19  C   UNL     1      47.970   6.213  14.515  0.00  0.00    +0.000 A 
ATOM     20  C   UNL     1      47.597   5.016  15.155  0.00  0.00    +0.000 A 
ATOM     21  C   UNL     1      46.771   4.126  14.446  0.00  0.00    +0.000 A 
BRANCH  20  22
ATOM     22  C   UNL     1      47.983   4.753  16.550  0.00  0.00    +0.000 A 
ATOM     23  C   UNL     1      47.955   3.464  17.088  0.00  0.00    +0.000 A 
ATOM     24  N   UNL     1      48.340   3.163  18.350  0.00  0.00    +0.000 NA
ATOM     25  C   UNL     1      48.775   4.219  19.072  0.00  0.00    +0.000 A 
ATOM     26  C   UNL     1      48.819   5.503  18.554  0.00  0.00    +0.000 A 
ATOM     27  N   UNL     1      48.431   5.799  17.292  0.00  0.00    +0.000 NA
ENDBRANCH  20  22
ENDBRANCH  15  16
ENDBRANCH   1  15
TORSDOF 6
ENDMDL
MODEL 5
REMARK VINA RESULT:    -7.134      3.172      5.407
REMARK INTER + INTRA:         -10.264
REMARK INTER:                  -9.823
REMARK INTRA:                  -0.441
REMARK UNBOUND:                -0.628
REMARK  Name = 
REMARK  6 active torsions:
REMARK  status: ('A' for Active; 'I' for Inactive)
REMARK    1  A    between atoms: C_2  and  C_4
REMARK    2  A    between atoms: C_7  and  N_8
REMARK    3  A    between atoms: N_8  and  C_9
REMARK    4  A    between atoms: C_9  and  C_10
REMARK    5  A    between atoms: C_10  and  C_11
REMARK    6  A    between atoms: C_15  and  C_16
REMARK                            x       y       z     vdW  Elec       q    Type
REMARK                         _______ _______ _______ _____ _____    ______ ____
ROOT
ATOM      1  C   UNL     1      44.169   4.645  11.286  0.00  0.00    +0.000 C 
ENDROOT
BRANCH   1   2
ATOM      2  N   UNL     1      43.851   4.662   9.856  0.00  0.00    +0.000 N 
ATOM      3  H   UNL     1      43.708   5.604   9.503  0.00  0.00    +0.000 HD
BRANCH   2   7
ATOM      4  C   UNL     1      46.523   2.490   7.588  0.00  0.00    +0.000 A 
ATOM      5  C   UNL     1      46.440   3.868   7.454  0.00  0.00    +0.000 A 
ATOM      6  N   UNL     1      45.557   4.629   8.165  0.00  0.00    +0.000 NA
ATOM      7  C   UNL     1      44.748   3.973   9.023  0.00  0.00    +0.000 A 
ATOM      8  C   UNL     1      44.845   2.577   9.131  0.00  0.00    +0.000 A 
ATOM      9  N   UNL     1      45.710   1.798   8.427  0.00  0.00    +0.000 NA
BRANCH   4  11
ATOM     10  N   UNL     1      48.644   2.394   6.389  0.00  0.00    +0.000 N 
ATOM     11  C   UNL     1      47.531   1.716   6.808  0.00  0.00    +0.000 C 
ATOM     12  O   UNL     1      47.385   0.524   6.558  0.00  0.00    +0.000 OA
ATOM     13  H   UNL     1      49.378   1.865   5.938  0.00  0.00    +0.000 HD
ATOM     14  H   UNL     1      48.846   3.321   6.750  0.00  0.00    +0.000 HD
ENDBRANCH   4  11
ENDBRANCH   2   7
ENDBRANCH   1   2
BRANCH   1  15
ATOM     15  C   UNL     1      45.629   5.084  11.485  0.00  0.00    +0.000 C 
BRANCH  15  16
ATOM     16  C   UNL     1      45.739   6.499  11.999  0.00  0.00    +0.000 A 
ATOM     17  C   UNL     1      46.767   6.852  12.878  0.00  0.00    +0.000 A 
ATOM     18  C   UNL     1      46.899   8.167  13.317  0.00  0.00    +0.000 A 
ATOM     19  C   UNL     1      46.028   9.144  12.845  0.00  0.00    +0.000 A 
ATOM     20  C   UNL     1      45.010   8.836  11.923  0.00  0.00    +0.000 A 
ATOM     21  C   UNL     1      44.852   7.490  11.548  0.00  0.00    +0.000 A 
BRANCH  20  22
ATOM     22  C   UNL     1      44.203   9.900  11.306  0.00  0.00    +0.000 A 
ATOM     23  C   UNL     1      44.617  11.235  11.318  0.00  0.00    +0.000 A 
ATOM     24  N   UNL     1      43.933  12.243  10.729  0.00  0.00    +0.000 NA
ATOM     25  C   UNL     1      42.797  11.863  10.103  0.00  0.00    +0.000 A 
ATOM     26  C   UNL     1      42.374  10.544  10.073  0.00  0.00    +0.000 A 
ATOM     27  N   UNL     1      43.062   9.539  10.665  0.00  0.00    +0.000 NA
ENDBRANCH  20  22
ENDBRANCH  15  16
ENDBRANCH   1  15
TORSDOF 6
ENDMDL
MODEL 6
REMARK VINA RESULT:    -6.897      1.998      2.617
REMARK INTER + INTRA:          -9.945
REMARK INTER:                  -9.419
REMARK INTRA:                  -0.526
REMARK UNBOUND:                -0.628
REMARK  Name = 
REMARK  6 active torsions:
REMARK  status: ('A' for Active; 'I' for Inactive)
REMARK    1  A    between atoms: C_2  and  C_4
REMARK    2  A    between atoms: C_7  and  N_8
REMARK    3  A    between atoms: N_8  and  C_9
REMARK    4  A    between atoms: C_9  and  C_10
REMARK    5  A    between atoms: C_10  and  C_11
REMARK    6  A    between atoms: C_15  and  C_16
REMARK                            x       y       z     vdW  Elec       q    Type
REMARK                         _______ _______ _______ _____ _____    ______ ____
ROOT
ATOM      1  C   UNL     1      45.023   3.563  11.913  0.00  0.00    +0.000 C 
ENDROOT
BRANCH   1   2
ATOM      2  N   UNL     1      44.308   3.562  10.634  0.00  0.00    +0.000 N 
ATOM      3  H   UNL     1      43.790   4.423  10.481  0.00  0.00    +0.000 HD
BRANCH   2   7
ATOM      4  C   UNL     1      46.480   2.874   7.198  0.00  0.00    +0.000 A 
ATOM      5  C   UNL     1      46.061   1.816   7.992  0.00  0.00    +0.000 A 
ATOM      6  N   UNL     1      45.359   1.993   9.150  0.00  0.00    +0.000 NA
ATOM      7  C   UNL     1      45.083   3.267   9.501  0.00  0.00    +0.000 A 
ATOM      8  C   UNL     1      45.528   4.319   8.685  0.00  0.00    +0.000 A 
ATOM      9  N   UNL     1      46.235   4.167   7.532  0.00  0.00    +0.000 NA
BRANCH   4  11
ATOM     10  N   UNL     1      48.576   2.509   6.008  0.00  0.00    +0.000 N 
ATOM     11  C   UNL     1      47.214   2.617   5.926  0.00  0.00    +0.000 C 
ATOM     12  O   UNL     1      46.634   2.496   4.852  0.00  0.00    +0.000 OA
ATOM     13  H   UNL     1      49.081   2.246   5.172  0.00  0.00    +0.000 HD
ATOM     14  H   UNL     1      49.031   2.427   6.912  0.00  0.00    +0.000 HD
ENDBRANCH   4  11
ENDBRANCH   2   7
ENDBRANCH   1   2
BRANCH   1  15
ATOM     15  C   UNL     1      44.457   4.678  12.808  0.00  0.00    +0.000 C 
BRANCH  15  16
ATOM     16  C   UNL     1      45.348   5.895  12.842  0.00  0.00    +0.000 A 
ATOM     17  C   UNL     1      44.884   7.122  12.361  0.00  0.00    +0.000 A 
ATOM     18  C   UNL     1      45.687   8.258  12.435  0.00  0.00    +0.000 A 
ATOM     19  C   UNL     1      46.943   8.179  13.029  0.00  0.00    +0.000 A 
ATOM     20  C   UNL     1      47.426   6.972  13.567  0.00  0.00    +0.000 A 
ATOM     21  C   UNL     1      46.626   5.824  13.419  0.00  0.00    +0.000 A 
BRANCH  20  22
ATOM     22  C   UNL     1      48.678   6.935  14.337  0.00  0.00    +0.000 A 
ATOM     23  C   UNL     1      49.807   7.656  13.936  0.00  0.00    +0.000 A 
ATOM     24  N   UNL     1      50.968   7.689  14.631  0.00  0.00    +0.000 NA
ATOM     25  C   UNL     1      50.961   6.969  15.774  0.00  0.00    +0.000 A 
ATOM     26  C   UNL     1      49.851   6.255  16.193  0.00  0.00    +0.000 A 
ATOM     27  N   UNL     1      48.692   6.223  15.493  0.00  0.00    +0.000 NA
ENDBRANCH  20  22
ENDBRANCH  15  16
ENDBRANCH   1  15
TORSDOF 6
ENDMDL
MODEL 7
REMARK VINA RESULT:    -6.718      2.954      7.651
REMARK INTER + INTRA:          -9.702
REMARK INTER:                  -8.904
REMARK INTRA:                  -0.797
REMARK UNBOUND:                -0.628
REMARK  Name = 
REMARK  6 active torsions:
REMARK  status: ('A' for Active; 'I' for Inactive)
REMARK    1  A    between atoms: C_2  and  C_4
REMARK    2  A    between atoms: C_7  and  N_8
REMARK    3  A    between atoms: N_8  and  C_9
REMARK    4  A    between atoms: C_9  and  C_10
REMARK    5  A    between atoms: C_10  and  C_11
REMARK    6  A    between atoms: C_15  and  C_16
REMARK                            x       y       z     vdW  Elec       q    Type
REMARK                         _______ _______ _______ _____ _____    ______ ____
ROOT
ATOM      1  C   UNL     1      49.512   7.306  13.005  0.00  0.00    +0.000 C 
ENDROOT
BRANCH   1   2
ATOM      2  N   UNL     1      49.344   7.628  14.425  0.00  0.00    +0.000 N 
ATOM      3  H   UNL     1      48.813   8.483  14.566  0.00  0.00    +0.000 HD
BRANCH   2   7
ATOM      4  C   UNL     1      47.995   4.608  16.886  0.00  0.00    +0.000 A 
ATOM      5  C   UNL     1      47.578   4.681  15.565  0.00  0.00    +0.000 A 
ATOM      6  N   UNL     1      47.978   5.673  14.717  0.00  0.00    +0.000 NA
ATOM      7  C   UNL     1      48.814   6.603  15.225  0.00  0.00    +0.000 A 
ATOM      8  C   UNL     1      49.212   6.512  16.568  0.00  0.00    +0.000 A 
ATOM      9  N   UNL     1      48.819   5.537  17.434  0.00  0.00    +0.000 NA
BRANCH   4  11
ATOM     10  N   UNL     1      48.268   3.263  18.901  0.00  0.00    +0.000 N 
ATOM     11  C   UNL     1      47.551   3.481  17.756  0.00  0.00    +0.000 C 
ATOM     12  O   UNL     1      46.583   2.783  17.473  0.00  0.00    +0.000 OA
ATOM     13  H   UNL     1      47.928   2.562  19.546  0.00  0.00    +0.000 HD
ATOM     14  H   UNL     1      48.946   3.947  19.220  0.00  0.00    +0.000 HD
ENDBRANCH   4  11
ENDBRANCH   2   7
ENDBRANCH   1   2
BRANCH   1  15
ATOM     15  C   UNL     1      48.753   8.341  12.158  0.00  0.00    +0.000 C 
BRANCH  15  16
ATOM     16  C   UNL     1      47.298   7.982  11.980  0.00  0.00    +0.000 A 
ATOM     17  C   UNL     1      46.301   8.921  12.256  0.00  0.00    +0.000 A 
ATOM     18  C   UNL     1      44.960   8.608  12.047  0.00  0.00    +0.000 A 
ATOM     19  C   UNL     1      44.614   7.368  11.520  0.00  0.00    +0.000 A 
ATOM     20  C   UNL     1      45.592   6.414  11.185  0.00  0.00    +0.000 A 
ATOM     21  C   UNL     1      46.934   6.725  11.469  0.00  0.00    +0.000 A 
BRANCH  20  22
ATOM     22  C   UNL     1      45.230   5.176  10.477  0.00  0.00    +0.000 A 
ATOM     23  C   UNL     1      45.581   4.965   9.142  0.00  0.00    +0.000 A 
ATOM     24  N   UNL     1      45.308   3.828   8.459  0.00  0.00    +0.000 NA
ATOM     25  C   UNL     1      44.665   2.882   9.176  0.00  0.00    +0.000 A 
ATOM     26  C   UNL     1      44.316   3.068  10.504  0.00  0.00    +0.000 A 
ATOM     27  N   UNL     1      44.590   4.208  11.182  0.00  0.00    +0.000 NA
ENDBRANCH  20  22
ENDBRANCH  15  16
ENDBRANCH   1  15
TORSDOF 6
ENDMDL
MODEL 8
REMARK VINA RESULT:    -6.635      3.127      8.517
REMARK INTER + INTRA:          -9.591
REMARK INTER:                  -9.077
REMARK INTRA:                  -0.513
REMARK UNBOUND:                -0.628
REMARK  Name = 
REMARK  6 active torsions:
REMARK  status: ('A' for Active; 'I' for Inactive)
REMARK    1  A    between atoms: C_2  and  C_4
REMARK    2  A    between atoms: C_7  and  N_8
REMARK    3  A    between atoms: N_8  and  C_9
REMARK    4  A    between atoms: C_9  and  C_10
REMARK    5  A    between atoms: C_10  and  C_11
REMARK    6  A    between atoms: C_15  and  C_16
REMARK                            x       y       z     vdW  Elec       q    Type
REMARK                         _______ _______ _______ _____ _____    ______ ____
ROOT
ATOM      1  C   UNL     1      47.137   5.210  13.684  0.00  0.00    +0.000 C 
ENDROOT
BRANCH   1   2
ATOM      2  N   UNL     1      46.539   4.336  14.697  0.00  0.00    +0.000 N 
ATOM      3  H   UNL     1      46.439   3.379  14.370  0.00  0.00    +0.000 HD
BRANCH   2   7
ATOM      4  C   UNL     1      48.559   4.436  18.289  0.00  0.00    +0.000 A 
ATOM      5  C   UNL     1      47.596   3.467  18.048  0.00  0.00    +0.000 A 
ATOM      6  N   UNL     1      46.885   3.405  16.884  0.00  0.00    +0.000 NA
ATOM      7  C   UNL     1      47.160   4.346  15.957  0.00  0.00    +0.000 A 
ATOM      8  C   UNL     1      48.131   5.321  16.230  0.00  0.00    +0.000 A 
ATOM      9  N   UNL     1      48.846   5.408  17.385  0.00  0.00    +0.000 NA
BRANCH   4  11
ATOM     10  N   UNL     1      48.689   3.942  20.673  0.00  0.00    +0.000 N 
ATOM     11  C   UNL     1      49.329   4.432  19.566  0.00  0.00    +0.000 C 
ATOM     12  O   UNL     1      50.485   4.837  19.631  0.00  0.00    +0.000 OA
ATOM     13  H   UNL     1      49.225   3.849  21.526  0.00  0.00    +0.000 HD
ATOM     14  H   UNL     1      47.810   3.446  20.580  0.00  0.00    +0.000 HD
ENDBRANCH   4  11
ENDBRANCH   2   7
ENDBRANCH   1   2
BRANCH   1  15
ATOM     15  C   UNL     1      46.068   6.185  13.163  0.00  0.00    +0.000 C 
BRANCH  15  16
ATOM     16  C   UNL     1      45.190   5.563  12.105  0.00  0.00    +0.000 A 
ATOM     17  C   UNL     1      43.823   5.848  12.066  0.00  0.00    +0.000 A 
ATOM     18  C   UNL     1      43.019   5.313  11.062  0.00  0.00    +0.000 A 
ATOM     19  C   UNL     1      43.588   4.524  10.068  0.00  0.00    +0.000 A 
ATOM     20  C   UNL     1      44.969   4.252  10.047  0.00  0.00    +0.000 A 
ATOM     21  C   UNL     1      45.748   4.746  11.109  0.00  0.00    +0.000 A 
BRANCH  20  22
ATOM     22  C   UNL     1      45.584   3.557   8.907  0.00  0.00    +0.000 A 
ATOM     23  C   UNL     1      45.669   2.163   8.857  0.00  0.00    +0.000 A 
ATOM     24  N   UNL     1      46.188   1.474   7.813  0.00  0.00    +0.000 NA
ATOM     25  C   UNL     1      46.620   2.244   6.790  0.00  0.00    +0.000 A 
ATOM     26  C   UNL     1      46.536   3.626   6.817  0.00  0.00    +0.000 A 
ATOM     27  N   UNL     1      46.019   4.311   7.864  0.00  0.00    +0.000 NA
ENDBRANCH  20  22
ENDBRANCH  15  16
ENDBRANCH   1  15
TORSDOF 6
ENDMDL
MODEL 9
REMARK VINA RESULT:    -6.244      3.543      7.844
REMARK INTER + INTRA:          -9.062
REMARK INTER:                  -8.454
REMARK INTRA:                  -0.608
REMARK UNBOUND:                -0.628
REMARK  Name = 
REMARK  6 active torsions:
REMARK  status: ('A' for Active; 'I' for Inactive)
REMARK    1  A    between atoms: C_2  and  C_4
REMARK    2  A    between atoms: C_7  and  N_8
REMARK    3  A    between atoms: N_8  and  C_9
REMARK    4  A    between atoms: C_9  and  C_10
REMARK    5  A    between atoms: C_10  and  C_11
REMARK    6  A    between atoms: C_15  and  C_16
REMARK                            x       y       z     vdW  Elec       q    Type
REMARK                         _______ _______ _______ _____ _____    ______ ____
ROOT
ATOM      1  C   UNL     1      48.620   6.701  16.410  0.00  0.00    +0.000 C 
ENDROOT
BRANCH   1   2
ATOM      2  N   UNL     1      48.195   5.415  16.968  0.00  0.00    +0.000 N 
ATOM      3  H   UNL     1      47.397   5.025  16.475  0.00  0.00    +0.000 HD
BRANCH   2   7
ATOM      4  C   UNL     1      50.976   2.400  17.386  0.00  0.00    +0.000 A 
ATOM      5  C   UNL     1      51.287   3.702  17.749  0.00  0.00    +0.000 A 
ATOM      6  N   UNL     1      50.409   4.739  17.610  0.00  0.00    +0.000 NA
ATOM      7  C   UNL     1      49.199   4.440  17.091  0.00  0.00    +0.000 A 
ATOM      8  C   UNL     1      48.914   3.117  16.722  0.00  0.00    +0.000 A 
ATOM      9  N   UNL     1      49.776   2.070  16.844  0.00  0.00    +0.000 NA
BRANCH   4  11
ATOM     10  N   UNL     1      51.497   0.147  18.160  0.00  0.00    +0.000 N 
ATOM     11  C   UNL     1      51.964   1.303  17.594  0.00  0.00    +0.000 C 
ATOM     12  O   UNL     1      53.141   1.416  17.266  0.00  0.00    +0.000 OA
ATOM     13  H   UNL     1      52.132  -0.638  18.225  0.00  0.00    +0.000 HD
ATOM     14  H   UNL     1      50.499  -0.009  18.260  0.00  0.00    +0.000 HD
ENDBRANCH   4  11
ENDBRANCH   2   7
ENDBRANCH   1   2
BRANCH   1  15
ATOM     15  C   UNL     1      48.881   6.537  14.903  0.00  0.00    +0.000 C 
BRANCH  15  16
ATOM     16  C   UNL     1      47.664   6.857  14.070  0.00  0.00    +0.000 A 
ATOM     17  C   UNL     1      47.424   8.166  13.646  0.00  0.00    +0.000 A 
ATOM     18  C   UNL     1      46.328   8.456  12.838  0.00  0.00    +0.000 A 
ATOM     19  C   UNL     1      45.489   7.429  12.416  0.00  0.00    +0.000 A 
ATOM     20  C   UNL     1      45.725   6.091  12.784  0.00  0.00    +0.000 A 
ATOM     21  C   UNL     1      46.797   5.832  13.657  0.00  0.00    +0.000 A 
BRANCH  20  22
ATOM     22  C   UNL     1      44.933   4.997  12.202  0.00  0.00    +0.000 A 
ATOM     23  C   UNL     1      44.713   4.904  10.825  0.00  0.00    +0.000 A 
ATOM     24  N   UNL     1      44.028   3.895  10.236  0.00  0.00    +0.000 NA
ATOM     25  C   UNL     1      43.568   2.954  11.089  0.00  0.00    +0.000 A 
ATOM     26  C   UNL     1      43.784   3.023  12.455  0.00  0.00    +0.000 A 
ATOM     27  N   UNL     1      44.468   4.035  13.040  0.00  0.00    +0.000 NA
ENDBRANCH  20  22
ENDBRANCH  15  16
ENDBRANCH   1  15
TORSDOF 6
ENDMDL
