MODEL 1
REMARK VINA RESULT:    -8.356      0.000      0.000
REMARK INTER + INTRA:         -12.410
REMARK INTER:                 -11.775
REMARK INTRA:                  -0.635
REMARK UNBOUND:                -0.635
REMARK  Name = 
REMARK  8 active torsions:
REMARK  status: ('A' for Active; 'I' for Inactive)
REMARK    1  A    between atoms: C_1  and  O_2
REMARK    2  A    between atoms: O_2  and  C_3
REMARK    3  A    between atoms: C_7  and  C_8
REMARK    4  A    between atoms: C_8  and  O_9
REMARK    5  A    between atoms: O_9  and  C_10
REMARK    6  A    between atoms: C_13  and  C_14
REMARK    7  A    between atoms: C_14  and  N_15
REMARK    8  A    between atoms: C_16  and  C_18
REMARK                            x       y       z     vdW  Elec       q    Type
REMARK                         _______ _______ _______ _____ _____    ______ ____
ROOT
ATOM      1  C   UNL     1      45.057   4.260   8.947  0.00  0.00    +0.000 A 
ATOM      2  C   UNL     1      44.333   3.181   9.443  0.00  0.00    +0.000 A 
ATOM      3  C   UNL     1      43.986   3.145  10.791  0.00  0.00    +0.000 A 
ATOM      4  C   UNL     1      44.403   4.185  11.621  0.00  0.00    +0.000 A 
ATOM      5  N   UNL     1      45.135   5.232  11.162  0.00  0.00    +0.000 NA
ATOM      6  C   UNL     1      45.448   5.241   9.847  0.00  0.00    +0.000 A 
ENDROOT
BRANCH   1   7
ATOM      7  O   UNL     1      45.323   4.249   7.609  0.00  0.00    +0.000 OA
BRANCH   7   8
ATOM      8  C   UNL     1      46.695   4.041   7.264  0.00  0.00    +0.000 C 
BRANCH   8  13
ATOM      9  C   UNL     1      47.086   1.014   4.973  0.00  0.00    +0.000 A 
ATOM     10  C   UNL     1      47.151  -0.022   5.906  0.00  0.00    +0.000 A 
ATOM     11  C   UNL     1      47.060   0.255   7.272  0.00  0.00    +0.000 A 
ATOM     12  C   UNL     1      46.911   1.569   7.710  0.00  0.00    +0.000 A 
ATOM     13  C   UNL     1      46.854   2.621   6.787  0.00  0.00    +0.000 A 
ATOM     14  C   UNL     1      46.927   2.329   5.418  0.00  0.00    +0.000 A 
BRANCH   9  16
ATOM     15  C   UNL     1      45.933   0.906   2.902  0.00  0.00    +0.000 C 
ATOM     16  O   UNL     1      47.162   0.879   3.614  0.00  0.00    +0.000 OA
ENDBRANCH   9  16
ENDBRANCH   8  13
ENDBRANCH   7   8
ENDBRANCH   1   7
BRANCH   4  17
ATOM     17  C   UNL     1      44.022   4.209  13.078  0.00  0.00    +0.000 C 
BRANCH  17  18
ATOM     18  N   UNL     1      45.048   4.817  13.897  0.00  0.00    +0.000 N 
ATOM     19  C   UNL     1      46.250   4.208  14.128  0.00  0.00    +0.000 C 
ATOM     20  O   UNL     1      46.518   3.102  13.664  0.00  0.00    +0.000 OA
ATOM     21  H   UNL     1      44.759   5.614  14.458  0.00  0.00    +0.000 HD
BRANCH  19  22
ATOM     22  C   UNL     1      47.241   4.967  14.905  0.00  0.00    +0.000 A 
ATOM     23  C   UNL     1      47.927   6.008  14.295  0.00  0.00    +0.000 A 
ATOM     24  S   UNL     1      49.017   6.812  15.328  0.00  0.00    +0.000 S 
ATOM     25  C   UNL     1      48.641   5.771  16.621  0.00  0.00    +0.000 A 
ATOM     26  N   UNL     1      49.266   5.900  17.822  0.00  0.00    +0.000 NA
ATOM     27  C   UNL     1      48.911   5.025  18.703  0.00  0.00    +0.000 A 
ATOM     28  N   UNL     1      47.980   4.041  18.494  0.00  0.00    +0.000 N 
ATOM     29  C   UNL     1      47.285   3.908  17.315  0.00  0.00    +0.000 A 
ATOM     30  O   UNL     1      46.394   3.074  17.192  0.00  0.00    +0.000 OA
ATOM     31  C   UNL     1      47.676   4.841  16.276  0.00  0.00    +0.000 A 
ATOM     32  H   UNL     1      47.730   3.401  19.234  0.00  0.00    +0.000 HD
ENDBRANCH  19  22
ENDBRANCH  17  18
ENDBRANCH   4  17
TORSDOF 7
ENDMDL
MODEL 2
REMARK VINA RESULT:    -8.107      2.340      4.012
REMARK INTER + INTRA:         -12.059
REMARK INTER:                 -11.014
REMARK INTRA:                  -1.045
REMARK UNBOUND:                -0.635
REMARK  Name = 
REMARK  8 active torsions:
REMARK  status: ('A' for Active; 'I' for Inactive)
REMARK    1  A    between atoms: C_1  and  O_2
REMARK    2  A    between atoms: O_2  and  C_3
REMARK    3  A    between atoms: C_7  and  C_8
REMARK    4  A    between atoms: C_8  and  O_9
REMARK    5  A    between atoms: O_9  and  C_10
REMARK    6  A    between atoms: C_13  and  C_14
REMARK    7  A    between atoms: C_14  and  N_15
REMARK    8  A    between atoms: C_16  and  C_18
REMARK                            x       y       z     vdW  Elec       q    Type
REMARK                         _______ _______ _______ _____ _____    ______ ____
ROOT
ATOM      1  C   UNL     1      45.329   4.332  12.609  0.00  0.00    +0.000 A 
ATOM      2  C   UNL     1      45.130   5.703  12.487  0.00  0.00    +0.000 A 
ATOM      3  C   UNL     1      46.078   6.586  12.997  0.00  0.00    +0.000 A 
ATOM      4  C   UNL     1      47.197   6.067  13.650  0.00  0.00    +0.000 A 
ATOM      5  N   UNL     1      47.394   4.733  13.805  0.00  0.00    +0.000 NA
ATOM      6  C   UNL     1      46.459   3.904  13.291  0.00  0.00    +0.000 A 
ENDROOT
BRANCH   1   7
ATOM      7  O   UNL     1      44.380   3.529  12.047  0.00  0.00    +0.000 OA
BRANCH   7   8
ATOM      8  C   UNL     1      43.818   4.016  10.826  0.00  0.00    +0.000 C 
BRANCH   8  13
ATOM      9  C   UNL     1      45.865   1.903   8.396  0.00  0.00    +0.000 A 
ATOM     10  C   UNL     1      46.424   2.891   7.584  0.00  0.00    +0.000 A 
ATOM     11  C   UNL     1      46.147   4.239   7.828  0.00  0.00    +0.000 A 
ATOM     12  C   UNL     1      45.306   4.601   8.877  0.00  0.00    +0.000 A 
ATOM     13  C   UNL     1      44.729   3.620   9.694  0.00  0.00    +0.000 A 
ATOM     14  C   UNL     1      45.029   2.273   9.453  0.00  0.00    +0.000 A 
BRANCH   9  16
ATOM     15  C   UNL     1      47.014   0.135   7.305  0.00  0.00    +0.000 C 
ATOM     16  O   UNL     1      46.054   0.554   8.266  0.00  0.00    +0.000 OA
ENDBRANCH   9  16
ENDBRANCH   8  13
ENDBRANCH   7   8
ENDBRANCH   1   7
BRANCH   4  17
ATOM     17  C   UNL     1      48.268   6.980  14.188  0.00  0.00    +0.000 C 
BRANCH  17  18
ATOM     18  N   UNL     1      48.227   7.073  15.631  0.00  0.00    +0.000 N 
ATOM     19  C   UNL     1      49.233   6.589  16.419  0.00  0.00    +0.000 C 
ATOM     20  O   UNL     1      50.221   6.033  15.944  0.00  0.00    +0.000 OA
ATOM     21  H   UNL     1      47.330   7.324  16.037  0.00  0.00    +0.000 HD
BRANCH  19  22
ATOM     22  C   UNL     1      49.114   6.822  17.866  0.00  0.00    +0.000 A 
ATOM     23  C   UNL     1      49.230   8.115  18.355  0.00  0.00    +0.000 A 
ATOM     24  S   UNL     1      49.039   8.231  20.044  0.00  0.00    +0.000 S 
ATOM     25  C   UNL     1      48.833   6.548  20.189  0.00  0.00    +0.000 A 
ATOM     26  N   UNL     1      48.653   5.971  21.408  0.00  0.00    +0.000 NA
ATOM     27  C   UNL     1      48.544   4.685  21.377  0.00  0.00    +0.000 A 
ATOM     28  N   UNL     1      48.588   3.925  20.237  0.00  0.00    +0.000 N 
ATOM     29  C   UNL     1      48.713   4.470  18.980  0.00  0.00    +0.000 A 
ATOM     30  O   UNL     1      48.658   3.771  17.975  0.00  0.00    +0.000 OA
ATOM     31  C   UNL     1      48.881   5.911  18.962  0.00  0.00    +0.000 A 
ATOM     32  H   UNL     1      48.472   2.923  20.279  0.00  0.00    +0.000 HD
ENDBRANCH  19  22
ENDBRANCH  17  18
ENDBRANCH   4  17
TORSDOF 7
ENDMDL
MODEL 3
REMARK VINA RESULT:    -7.816      2.749      4.353
REMARK INTER + INTRA:         -11.649
REMARK INTER:                 -10.508
REMARK INTRA:                  -1.141
REMARK UNBOUND:                -0.635
REMARK  Name = 
REMARK  8 active torsions:
REMARK  status: ('A' for Active; 'I' for Inactive)
REMARK    1  A    between atoms: C_1  and  O_2
REMARK    2  A    between atoms: O_2  and  C_3
REMARK    3  A    between atoms: C_7  and  C_8
REMARK    4  A    between atoms: C_8  and  O_9
REMARK    5  A    between atoms: O_9  and  C_10
REMARK    6  A    between atoms: C_13  and  C_14
REMARK    7  A    between atoms: C_14  and  N_15
REMARK    8  A    between atoms: C_16  and  C_18
REMARK                            x       y       z     vdW  Elec       q    Type
REMARK                         _______ _______ _______ _____ _____    ______ ____
ROOT
ATOM      1  C   UNL     1      45.220   4.272  12.428  0.00  0.00    +0.000 A 
ATOM      2  C   UNL     1      45.162   5.660  12.501  0.00  0.00    +0.000 A 
ATOM      3  C   UNL     1      46.145   6.355  13.201  0.00  0.00    +0.000 A 
ATOM      4  C   UNL     1      47.151   5.633  13.842  0.00  0.00    +0.000 A 
ATOM      5  N   UNL     1      47.209   4.278  13.807  0.00  0.00    +0.000 NA
ATOM      6  C   UNL     1      46.245   3.634  13.112  0.00  0.00    +0.000 A 
ENDROOT
BRANCH   1   7
ATOM      7  O   UNL     1      44.249   3.663  11.689  0.00  0.00    +0.000 OA
BRANCH   7   8
ATOM      8  C   UNL     1      43.958   4.286  10.436  0.00  0.00    +0.000 C 
BRANCH   8  13
ATOM      9  C   UNL     1      45.933   1.811   8.307  0.00  0.00    +0.000 A 
ATOM     10  C   UNL     1      46.626   2.677   7.461  0.00  0.00    +0.000 A 
ATOM     11  C   UNL     1      46.463   4.059   7.583  0.00  0.00    +0.000 A 
ATOM     12  C   UNL     1      45.602   4.578   8.547  0.00  0.00    +0.000 A 
ATOM     13  C   UNL     1      44.890   3.721   9.397  0.00  0.00    +0.000 A 
ATOM     14  C   UNL     1      45.077   2.338   9.278  0.00  0.00    +0.000 A 
BRANCH   9  16
ATOM     15  C   UNL     1      47.026  -0.132   7.491  0.00  0.00    +0.000 C 
ATOM     16  O   UNL     1      46.003   0.444   8.292  0.00  0.00    +0.000 OA
ENDBRANCH   9  16
ENDBRANCH   8  13
ENDBRANCH   7   8
ENDBRANCH   1   7
BRANCH   4  17
ATOM     17  C   UNL     1      48.257   6.341  14.582  0.00  0.00    +0.000 C 
BRANCH  17  18
ATOM     18  N   UNL     1      48.050   6.322  16.014  0.00  0.00    +0.000 N 
ATOM     19  C   UNL     1      49.013   5.891  16.882  0.00  0.00    +0.000 C 
ATOM     20  O   UNL     1      50.104   5.480  16.490  0.00  0.00    +0.000 OA
ATOM     21  H   UNL     1      47.091   6.445  16.328  0.00  0.00    +0.000 HD
BRANCH  19  22
ATOM     22  C   UNL     1      48.713   6.002  18.317  0.00  0.00    +0.000 A 
ATOM     23  C   UNL     1      48.925   4.904  19.140  0.00  0.00    +0.000 A 
ATOM     24  S   UNL     1      48.563   5.195  20.779  0.00  0.00    +0.000 S 
ATOM     25  C   UNL     1      48.071   6.789  20.443  0.00  0.00    +0.000 A 
ATOM     26  N   UNL     1      47.604   7.596  21.433  0.00  0.00    +0.000 NA
ATOM     27  C   UNL     1      47.234   8.767  21.034  0.00  0.00    +0.000 A 
ATOM     28  N   UNL     1      47.301   9.207  19.738  0.00  0.00    +0.000 N 
ATOM     29  C   UNL     1      47.817   8.446  18.715  0.00  0.00    +0.000 A 
ATOM     30  O   UNL     1      47.947   8.901  17.585  0.00  0.00    +0.000 OA
ATOM     31  C   UNL     1      48.209   7.103  19.102  0.00  0.00    +0.000 A 
ATOM     32  H   UNL     1      47.017  10.145  19.495  0.00  0.00    +0.000 HD
ENDBRANCH  19  22
ENDBRANCH  17  18
ENDBRANCH   4  17
TORSDOF 7
ENDMDL
MODEL 4
REMARK VINA RESULT:    -7.736      2.249      3.861
REMARK INTER + INTRA:         -11.536
REMARK INTER:                 -10.599
REMARK INTRA:                  -0.937
REMARK UNBOUND:                -0.635
REMARK  Name = 
REMARK  8 active torsions:
REMARK  status: ('A' for Active; 'I' for Inactive)
REMARK    1  A    between atoms: C_1  and  O_2
REMARK    2  A    between atoms: O_2  and  C_3
REMARK    3  A    between atoms: C_7  and  C_8
REMARK    4  A    between atoms: C_8  and  O_9
REMARK    5  A    between atoms: O_9  and  C_10
REMARK    6  A    between atoms: C_13  and  C_14
REMARK    7  A    between atoms: C_14  and  N_15
REMARK    8  A    between atoms: C_16  and  C_18
REMARK                            x       y       z     vdW  Elec       q    Type
REMARK                         _______ _______ _______ _____ _____    ______ ____
ROOT
ATOM      1  C   UNL     1      44.781   5.087  12.322  0.00  0.00    +0.000 A 
ATOM      2  C   UNL     1      45.185   6.380  12.004  0.00  0.00    +0.000 A 
ATOM      3  C   UNL     1      46.331   6.908  12.593  0.00  0.00    +0.000 A 
ATOM      4  C   UNL     1      47.031   6.133  13.517  0.00  0.00    +0.000 A 
ATOM      5  N   UNL     1      46.637   4.881  13.862  0.00  0.00    +0.000 NA
ATOM      6  C   UNL     1      45.526   4.394  13.266  0.00  0.00    +0.000 A 
ENDROOT
BRANCH   1   7
ATOM      7  O   UNL     1      43.676   4.620  11.674  0.00  0.00    +0.000 OA
BRANCH   7   8
ATOM      8  C   UNL     1      43.595   4.961  10.287  0.00  0.00    +0.000 C 
BRANCH   8  13
ATOM      9  C   UNL     1      45.884   3.378   7.677  0.00  0.00    +0.000 A 
ATOM     10  C   UNL     1      45.822   2.033   8.045  0.00  0.00    +0.000 A 
ATOM     11  C   UNL     1      45.035   1.638   9.129  0.00  0.00    +0.000 A 
ATOM     12  C   UNL     1      44.314   2.585   9.853  0.00  0.00    +0.000 A 
ATOM     13  C   UNL     1      44.374   3.940   9.502  0.00  0.00    +0.000 A 
ATOM     14  C   UNL     1      45.151   4.323   8.400  0.00  0.00    +0.000 A 
BRANCH   9  16
ATOM     15  C   UNL     1      46.979   2.991   5.607  0.00  0.00    +0.000 C 
ATOM     16  O   UNL     1      46.612   3.895   6.640  0.00  0.00    +0.000 OA
ENDBRANCH   9  16
ENDBRANCH   8  13
ENDBRANCH   7   8
ENDBRANCH   1   7
BRANCH   4  17
ATOM     17  C   UNL     1      48.296   6.647  14.154  0.00  0.00    +0.000 C 
BRANCH  17  18
ATOM     18  N   UNL     1      48.159   6.798  15.586  0.00  0.00    +0.000 N 
ATOM     19  C   UNL     1      49.161   6.460  16.452  0.00  0.00    +0.000 C 
ATOM     20  O   UNL     1      50.230   5.995  16.060  0.00  0.00    +0.000 OA
ATOM     21  H   UNL     1      47.218   6.967  15.930  0.00  0.00    +0.000 HD
BRANCH  19  22
ATOM     22  C   UNL     1      48.933   6.742  17.876  0.00  0.00    +0.000 A 
ATOM     23  C   UNL     1      48.857   8.060  18.303  0.00  0.00    +0.000 A 
ATOM     24  S   UNL     1      48.557   8.227  19.971  0.00  0.00    +0.000 S 
ATOM     25  C   UNL     1      48.557   6.540  20.194  0.00  0.00    +0.000 A 
ATOM     26  N   UNL     1      48.381   6.001  21.430  0.00  0.00    +0.000 NA
ATOM     27  C   UNL     1      48.436   4.712  21.461  0.00  0.00    +0.000 A 
ATOM     28  N   UNL     1      48.640   3.913  20.367  0.00  0.00    +0.000 N 
ATOM     29  C   UNL     1      48.767   4.411  19.091  0.00  0.00    +0.000 A 
ATOM     30  O   UNL     1      48.857   3.666  18.122  0.00  0.00    +0.000 OA
ATOM     31  C   UNL     1      48.754   5.859  19.005  0.00  0.00    +0.000 A 
ATOM     32  H   UNL     1      48.649   2.907  20.455  0.00  0.00    +0.000 HD
ENDBRANCH  19  22
ENDBRANCH  17  18
ENDBRANCH   4  17
TORSDOF 7
ENDMDL
MODEL 5
REMARK VINA RESULT:    -7.504      2.658      4.182
REMARK INTER + INTRA:         -11.210
REMARK INTER:                 -10.192
REMARK INTRA:                  -1.019
REMARK UNBOUND:                -0.635
REMARK  Name = 
REMARK  8 active torsions:
REMARK  status: ('A' for Active; 'I' for Inactive)
REMARK    1  A    between atoms: C_1  and  O_2
REMARK    2  A    between atoms: O_2  and  C_3
REMARK    3  A    between atoms: C_7  and  C_8
REMARK    4  A    between atoms: C_8  and  O_9
REMARK    5  A    between atoms: O_9  and  C_10
REMARK    6  A    between atoms: C_13  and  C_14
REMARK    7  A    between atoms: C_14  and  N_15
REMARK    8  A    between atoms: C_16  and  C_18
REMARK                            x       y       z     vdW  Elec       q    Type
REMARK                         _______ _______ _______ _____ _____    ______ ____
ROOT
ATOM      1  C   UNL     1      46.613   2.594   6.546  0.00  0.00    +0.000 A 
ATOM      2  C   UNL     1      46.291   1.579   7.442  0.00  0.00    +0.000 A 
ATOM      3  C   UNL     1      45.675   1.897   8.650  0.00  0.00    +0.000 A 
ATOM      4  C   UNL     1      45.424   3.237   8.945  0.00  0.00    +0.000 A 
ATOM      5  N   UNL     1      45.757   4.242   8.097  0.00  0.00    +0.000 NA
ATOM      6  C   UNL     1      46.346   3.900   6.929  0.00  0.00    +0.000 A 
ENDROOT
BRANCH   1   7
ATOM      7  O   UNL     1      47.174   2.205   5.366  0.00  0.00    +0.000 OA
BRANCH   7   8
ATOM      8  C   UNL     1      47.601   0.841   5.316  0.00  0.00    +0.000 C 
BRANCH   8  13
ATOM      9  C   UNL     1      46.303  -1.856   2.950  0.00  0.00    +0.000 A 
ATOM     10  C   UNL     1      45.579  -1.088   2.037  0.00  0.00    +0.000 A 
ATOM     11  C   UNL     1      45.518   0.301   2.181  0.00  0.00    +0.000 A 
ATOM     12  C   UNL     1      46.174   0.923   3.240  0.00  0.00    +0.000 A 
ATOM     13  C   UNL     1      46.896   0.164   4.171  0.00  0.00    +0.000 A 
ATOM     14  C   UNL     1      46.967  -1.225   4.005  0.00  0.00    +0.000 A 
BRANCH   9  16
ATOM     15  C   UNL     1      47.758  -3.719   2.730  0.00  0.00    +0.000 C 
ATOM     16  O   UNL     1      46.443  -3.217   2.922  0.00  0.00    +0.000 OA
ENDBRANCH   9  16
ENDBRANCH   8  13
ENDBRANCH   7   8
ENDBRANCH   1   7
BRANCH   4  17
ATOM     17  C   UNL     1      44.727   3.627  10.222  0.00  0.00    +0.000 C 
BRANCH  17  18
ATOM     18  N   UNL     1      45.258   4.853  10.776  0.00  0.00    +0.000 N 
ATOM     19  C   UNL     1      44.449   5.872  11.195  0.00  0.00    +0.000 C 
ATOM     20  O   UNL     1      43.224   5.807  11.108  0.00  0.00    +0.000 OA
ATOM     21  H   UNL     1      46.254   5.007  10.648  0.00  0.00    +0.000 HD
BRANCH  19  22
ATOM     22  C   UNL     1      45.106   7.030  11.819  0.00  0.00    +0.000 A 
ATOM     23  C   UNL     1      44.718   8.310  11.449  0.00  0.00    +0.000 A 
ATOM     24  S   UNL     1      45.545   9.546  12.280  0.00  0.00    +0.000 S 
ATOM     25  C   UNL     1      46.482   8.414  13.138  0.00  0.00    +0.000 A 
ATOM     26  N   UNL     1      47.434   8.825  14.019  0.00  0.00    +0.000 NA
ATOM     27  C   UNL     1      48.094   7.864  14.575  0.00  0.00    +0.000 A 
ATOM     28  N   UNL     1      47.880   6.531  14.339  0.00  0.00    +0.000 N 
ATOM     29  C   UNL     1      46.892   6.070  13.500  0.00  0.00    +0.000 A 
ATOM     30  O   UNL     1      46.667   4.872  13.380  0.00  0.00    +0.000 OA
ATOM     31  C   UNL     1      46.148   7.111  12.816  0.00  0.00    +0.000 A 
ATOM     32  H   UNL     1      48.415   5.827  14.825  0.00  0.00    +0.000 HD
ENDBRANCH  19  22
ENDBRANCH  17  18
ENDBRANCH   4  17
TORSDOF 7
ENDMDL
MODEL 6
REMARK VINA RESULT:    -7.437      3.492      6.280
REMARK INTER + INTRA:         -11.114
REMARK INTER:                 -10.326
REMARK INTRA:                  -0.788
REMARK UNBOUND:                -0.635
REMARK  Name = 
REMARK  8 active torsions:
REMARK  status: ('A' for Active; 'I' for Inactive)
REMARK    1  A    between atoms: C_1  and  O_2
REMARK    2  A    between atoms: O_2  and  C_3
REMARK    3  A    between atoms: C_7  and  C_8
REMARK    4  A    between atoms: C_8  and  O_9
REMARK    5  A    between atoms: O_9  and  C_10
REMARK    6  A    between atoms: C_13  and  C_14
REMARK    7  A    between atoms: C_14  and  N_15
REMARK    8  A    between atoms: C_16  and  C_18
REMARK                            x       y       z     vdW  Elec       q    Type
REMARK                         _______ _______ _______ _____ _____    ______ ____
ROOT
ATOM      1  C   UNL     1      47.402   5.531  13.928  0.00  0.00    +0.000 A 
ATOM      2  C   UNL     1      48.010   6.100  15.043  0.00  0.00    +0.000 A 
ATOM      3  C   UNL     1      48.150   5.352  16.209  0.00  0.00    +0.000 A 
ATOM      4  C   UNL     1      47.646   4.052  16.239  0.00  0.00    +0.000 A 
ATOM      5  N   UNL     1      47.024   3.489  15.172  0.00  0.00    +0.000 NA
ATOM      6  C   UNL     1      46.912   4.239  14.052  0.00  0.00    +0.000 A 
ENDROOT
BRANCH   1   7
ATOM      7  O   UNL     1      47.339   6.307  12.809  0.00  0.00    +0.000 OA
BRANCH   7   8
ATOM      8  C   UNL     1      46.125   7.045  12.649  0.00  0.00    +0.000 C 
BRANCH   8  13
ATOM      9  C   UNL     1      44.233   4.568  10.448  0.00  0.00    +0.000 A 
ATOM     10  C   UNL     1      43.082   4.356  11.209  0.00  0.00    +0.000 A 
ATOM     11  C   UNL     1      42.913   5.020  12.427  0.00  0.00    +0.000 A 
ATOM     12  C   UNL     1      43.897   5.890  12.890  0.00  0.00    +0.000 A 
ATOM     13  C   UNL     1      45.063   6.105  12.143  0.00  0.00    +0.000 A 
ATOM     14  C   UNL     1      45.212   5.449  10.914  0.00  0.00    +0.000 A 
BRANCH   9  16
ATOM     15  C   UNL     1      44.528   2.563   9.212  0.00  0.00    +0.000 C 
ATOM     16  O   UNL     1      44.519   3.984   9.244  0.00  0.00    +0.000 OA
ENDBRANCH   9  16
ENDBRANCH   8  13
ENDBRANCH   7   8
ENDBRANCH   1   7
BRANCH   4  17
ATOM     17  C   UNL     1      47.805   3.191  17.465  0.00  0.00    +0.000 C 
BRANCH  17  18
ATOM     18  N   UNL     1      49.196   2.975  17.799  0.00  0.00    +0.000 N 
ATOM     19  C   UNL     1      50.009   2.175  17.047  0.00  0.00    +0.000 C 
ATOM     20  O   UNL     1      49.597   1.583  16.051  0.00  0.00    +0.000 OA
ATOM     21  H   UNL     1      49.484   3.274  18.726  0.00  0.00    +0.000 HD
BRANCH  19  22
ATOM     22  C   UNL     1      51.423   2.106  17.441  0.00  0.00    +0.000 A 
ATOM     23  C   UNL     1      52.021   0.865  17.605  0.00  0.00    +0.000 A 
ATOM     24  S   UNL     1      53.668   0.945  18.030  0.00  0.00    +0.000 S 
ATOM     25  C   UNL     1      53.634   2.646  18.051  0.00  0.00    +0.000 A 
ATOM     26  N   UNL     1      54.744   3.361  18.381  0.00  0.00    +0.000 NA
ATOM     27  C   UNL     1      54.570   4.640  18.390  0.00  0.00    +0.000 A 
ATOM     28  N   UNL     1      53.390   5.269  18.087  0.00  0.00    +0.000 N 
ATOM     29  C   UNL     1      52.260   4.590  17.695  0.00  0.00    +0.000 A 
ATOM     30  O   UNL     1      51.249   5.187  17.344  0.00  0.00    +0.000 OA
ATOM     31  C   UNL     1      52.390   3.145  17.709  0.00  0.00    +0.000 A 
ATOM     32  H   UNL     1      53.326   6.277  18.090  0.00  0.00    +0.000 HD
ENDBRANCH  19  22
ENDBRANCH  17  18
ENDBRANCH   4  17
TORSDOF 7
ENDMDL
MODEL 7
REMARK VINA RESULT:    -7.348      3.345      5.045
REMARK INTER + INTRA:         -10.989
REMARK INTER:                 -10.214
REMARK INTRA:                  -0.775
REMARK UNBOUND:                -0.635
REMARK  Name = 
REMARK  8 active torsions:
REMARK  status: ('A' for Active; 'I' for Inactive)
REMARK    1  A    between atoms: C_1  and  O_2
REMARK    2  A    between atoms: O_2  and  C_3
REMARK    3  A    between atoms: C_7  and  C_8
REMARK    4  A    between atoms: C_8  and  O_9
REMARK    5  A    between atoms: O_9  and  C_10
REMARK    6  A    between atoms: C_13  and  C_14
REMARK    7  A    between atoms: C_14  and  N_15
REMARK    8  A    between atoms: C_16  and  C_18
REMARK                            x       y       z     vdW  Elec       q    Type
REMARK                         _______ _______ _______ _____ _____    ______ ____
ROOT
ATOM      1  C   UNL     1      46.929   5.833  12.647  0.00  0.00    +0.000 A 
ATOM      2  C   UNL     1      46.313   4.760  13.283  0.00  0.00    +0.000 A 
ATOM      3  C   UNL     1      46.651   4.452  14.598  0.00  0.00    +0.000 A 
ATOM      4  C   UNL     1      47.628   5.214  15.238  0.00  0.00    +0.000 A 
ATOM      5  N   UNL     1      48.260   6.247  14.625  0.00  0.00    +0.000 NA
ATOM      6  C   UNL     1      47.903   6.526  13.351  0.00  0.00    +0.000 A 
ENDROOT
BRANCH   1   7
ATOM      7  O   UNL     1      46.516   6.102  11.376  0.00  0.00    +0.000 OA
BRANCH   7   8
ATOM      8  C   UNL     1      45.162   5.746  11.088  0.00  0.00    +0.000 C 
BRANCH   8  13
ATOM      9  C   UNL     1      45.802   3.742   7.904  0.00  0.00    +0.000 A 
ATOM     10  C   UNL     1      45.181   2.532   8.218  0.00  0.00    +0.000 A 
ATOM     11  C   UNL     1      44.549   2.367   9.454  0.00  0.00    +0.000 A 
ATOM     12  C   UNL     1      44.542   3.407  10.380  0.00  0.00    +0.000 A 
ATOM     13  C   UNL     1      45.170   4.624  10.083  0.00  0.00    +0.000 A 
ATOM     14  C   UNL     1      45.783   4.786   8.834  0.00  0.00    +0.000 A 
BRANCH   9  16
ATOM     15  C   UNL     1      46.749   2.935   5.883  0.00  0.00    +0.000 C 
ATOM     16  O   UNL     1      46.452   4.032   6.736  0.00  0.00    +0.000 OA
ENDBRANCH   9  16
ENDBRANCH   8  13
ENDBRANCH   7   8
ENDBRANCH   1   7
BRANCH   4  17
ATOM     17  C   UNL     1      48.002   4.943  16.672  0.00  0.00    +0.000 C 
BRANCH  17  18
ATOM     18  N   UNL     1      49.427   4.760  16.835  0.00  0.00    +0.000 N 
ATOM     19  C   UNL     1      49.956   4.073  17.891  0.00  0.00    +0.000 C 
ATOM     20  O   UNL     1      49.248   3.585  18.769  0.00  0.00    +0.000 OA
ATOM     21  H   UNL     1      50.022   5.339  16.248  0.00  0.00    +0.000 HD
BRANCH  19  22
ATOM     22  C   UNL     1      51.414   3.883  17.898  0.00  0.00    +0.000 A 
ATOM     23  C   UNL     1      52.239   4.979  18.104  0.00  0.00    +0.000 A 
ATOM     24  S   UNL     1      53.899   4.597  18.117  0.00  0.00    +0.000 S 
ATOM     25  C   UNL     1      53.578   2.955  17.808  0.00  0.00    +0.000 A 
ATOM     26  N   UNL     1      54.594   2.062  17.667  0.00  0.00    +0.000 NA
ATOM     27  C   UNL     1      54.211   0.858  17.401  0.00  0.00    +0.000 A 
ATOM     28  N   UNL     1      52.904   0.465  17.276  0.00  0.00    +0.000 N 
ATOM     29  C   UNL     1      51.844   1.321  17.465  0.00  0.00    +0.000 A 
ATOM     30  O   UNL     1      50.687   0.918  17.435  0.00  0.00    +0.000 OA
ATOM     31  C   UNL     1      52.221   2.698  17.725  0.00  0.00    +0.000 A 
ATOM     32  H   UNL     1      52.670  -0.500  17.091  0.00  0.00    +0.000 HD
ENDBRANCH  19  22
ENDBRANCH  17  18
ENDBRANCH   4  17
TORSDOF 7
ENDMDL
MODEL 8
REMARK VINA RESULT:    -7.227      3.137      5.263
REMARK INTER + INTRA:         -10.819
REMARK INTER:                  -9.894
REMARK INTRA:                  -0.925
REMARK UNBOUND:                -0.635
REMARK  Name = 
REMARK  8 active torsions:
REMARK  status: ('A' for Active; 'I' for Inactive)
REMARK    1  A    between atoms: C_1  and  O_2
REMARK    2  A    between atoms: O_2  and  C_3
REMARK    3  A    between atoms: C_7  and  C_8
REMARK    4  A    between atoms: C_8  and  O_9
REMARK    5  A    between atoms: O_9  and  C_10
REMARK    6  A    between atoms: C_13  and  C_14
REMARK    7  A    between atoms: C_14  and  N_15
REMARK    8  A    between atoms: C_16  and  C_18
REMARK                            x       y       z     vdW  Elec       q    Type
REMARK                         _______ _______ _______ _____ _____    ______ ____
ROOT
ATOM      1  C   UNL     1      47.142   6.493  12.615  0.00  0.00    +0.000 A 
ATOM      2  C   UNL     1      47.532   7.800  12.887  0.00  0.00    +0.000 A 
ATOM      3  C   UNL     1      48.213   8.085  14.068  0.00  0.00    +0.000 A 
ATOM      4  C   UNL     1      48.461   7.049  14.968  0.00  0.00    +0.000 A 
ATOM      5  N   UNL     1      48.064   5.773  14.734  0.00  0.00    +0.000 NA
ATOM      6  C   UNL     1      47.413   5.528  13.575  0.00  0.00    +0.000 A 
ENDROOT
BRANCH   1   7
ATOM      7  O   UNL     1      46.519   6.282  11.421  0.00  0.00    +0.000 OA
BRANCH   7   8
ATOM      8  C   UNL     1      45.227   5.675  11.509  0.00  0.00    +0.000 C 
BRANCH   8  13
ATOM      9  C   UNL     1      45.610   3.862   8.173  0.00  0.00    +0.000 A 
ATOM     10  C   UNL     1      44.917   2.677   8.430  0.00  0.00    +0.000 A 
ATOM     11  C   UNL     1      44.321   2.469   9.676  0.00  0.00    +0.000 A 
ATOM     12  C   UNL     1      44.420   3.439  10.670  0.00  0.00    +0.000 A 
ATOM     13  C   UNL     1      45.120   4.629  10.431  0.00  0.00    +0.000 A 
ATOM     14  C   UNL     1      45.698   4.836   9.171  0.00  0.00    +0.000 A 
BRANCH   9  16
ATOM     15  C   UNL     1      46.648   3.108   6.176  0.00  0.00    +0.000 C 
ATOM     16  O   UNL     1      46.236   4.189   7.002  0.00  0.00    +0.000 OA
ENDBRANCH   9  16
ENDBRANCH   8  13
ENDBRANCH   7   8
ENDBRANCH   1   7
BRANCH   4  17
ATOM     17  C   UNL     1      49.226   7.300  16.242  0.00  0.00    +0.000 C 
BRANCH  17  18
ATOM     18  N   UNL     1      50.205   6.268  16.499  0.00  0.00    +0.000 N 
ATOM     19  C   UNL     1      51.000   6.280  17.611  0.00  0.00    +0.000 C 
ATOM     20  O   UNL     1      50.936   7.181  18.445  0.00  0.00    +0.000 OA
ATOM     21  H   UNL     1      50.419   5.651  15.721  0.00  0.00    +0.000 HD
BRANCH  19  22
ATOM     22  C   UNL     1      51.894   5.129  17.802  0.00  0.00    +0.000 A 
ATOM     23  C   UNL     1      53.211   5.350  18.181  0.00  0.00    +0.000 A 
ATOM     24  S   UNL     1      54.113   3.922  18.395  0.00  0.00    +0.000 S 
ATOM     25  C   UNL     1      52.786   2.954  17.949  0.00  0.00    +0.000 A 
ATOM     26  N   UNL     1      52.900   1.599  17.894  0.00  0.00    +0.000 NA
ATOM     27  C   UNL     1      51.829   0.991  17.509  0.00  0.00    +0.000 A 
ATOM     28  N   UNL     1      50.651   1.613  17.186  0.00  0.00    +0.000 N 
ATOM     29  C   UNL     1      50.474   2.974  17.281  0.00  0.00    +0.000 A 
ATOM     30  O   UNL     1      49.382   3.490  17.072  0.00  0.00    +0.000 OA
ATOM     31  C   UNL     1      51.662   3.710  17.670  0.00  0.00    +0.000 A 
ATOM     32  H   UNL     1      49.841   1.076  16.915  0.00  0.00    +0.000 HD
ENDBRANCH  19  22
ENDBRANCH  17  18
ENDBRANCH   4  17
TORSDOF 7
ENDMDL
MODEL 9
REMARK VINA RESULT:    -7.131      3.345      9.213
REMARK INTER + INTRA:         -10.684
REMARK INTER:                  -9.420
REMARK INTRA:                  -1.263
REMARK UNBOUND:                -0.635
REMARK  Name = 
REMARK  8 active torsions:
REMARK  status: ('A' for Active; 'I' for Inactive)
REMARK    1  A    between atoms: C_1  and  O_2
REMARK    2  A    between atoms: O_2  and  C_3
REMARK    3  A    between atoms: C_7  and  C_8
REMARK    4  A    between atoms: C_8  and  O_9
REMARK    5  A    between atoms: O_9  and  C_10
REMARK    6  A    between atoms: C_13  and  C_14
REMARK    7  A    between atoms: C_14  and  N_15
REMARK    8  A    between atoms: C_16  and  C_18
REMARK                            x       y       z     vdW  Elec       q    Type
REMARK                         _______ _______ _______ _____ _____    ______ ____
ROOT
ATOM      1  C   UNL     1      49.549   8.112  15.727  0.00  0.00    +0.000 A 
ATOM      2  C   UNL     1      48.353   8.793  15.522  0.00  0.00    +0.000 A 
ATOM      3  C   UNL     1      47.731   8.734  14.277  0.00  0.00    +0.000 A 
ATOM      4  C   UNL     1      48.344   8.014  13.252  0.00  0.00    +0.000 A 
ATOM      5  N   UNL     1      49.525   7.367  13.424  0.00  0.00    +0.000 NA
ATOM      6  C   UNL     1      50.098   7.436  14.646  0.00  0.00    +0.000 A 
ENDROOT
BRANCH   1   7
ATOM      7  O   UNL     1      50.077   8.178  16.982  0.00  0.00    +0.000 OA
BRANCH   7   8
ATOM      8  C   UNL     1      49.293   7.558  18.005  0.00  0.00    +0.000 C 
BRANCH   8  13
ATOM      9  C   UNL     1      48.325   4.029  16.927  0.00  0.00    +0.000 A 
ATOM     10  C   UNL     1      49.411   3.294  17.406  0.00  0.00    +0.000 A 
ATOM     11  C   UNL     1      50.450   3.937  18.084  0.00  0.00    +0.000 A 
ATOM     12  C   UNL     1      50.410   5.315  18.279  0.00  0.00    +0.000 A 
ATOM     13  C   UNL     1      49.332   6.068  17.795  0.00  0.00    +0.000 A 
ATOM     14  C   UNL     1      48.286   5.410  17.134  0.00  0.00    +0.000 A 
BRANCH   9  16
ATOM     15  C   UNL     1      46.998   4.061  14.960  0.00  0.00    +0.000 C 
ATOM     16  O   UNL     1      47.249   3.523  16.251  0.00  0.00    +0.000 OA
ENDBRANCH   9  16
ENDBRANCH   8  13
ENDBRANCH   7   8
ENDBRANCH   1   7
BRANCH   4  17
ATOM     17  C   UNL     1      47.693   7.891  11.899  0.00  0.00    +0.000 C 
BRANCH  17  18
ATOM     18  N   UNL     1      46.963   6.650  11.759  0.00  0.00    +0.000 N 
ATOM     19  C   UNL     1      45.600   6.595  11.843  0.00  0.00    +0.000 C 
ATOM     20  O   UNL     1      44.921   7.597  12.058  0.00  0.00    +0.000 OA
ATOM     21  H   UNL     1      47.516   5.799  11.804  0.00  0.00    +0.000 HD
BRANCH  19  22
ATOM     22  C   UNL     1      44.971   5.289  11.597  0.00  0.00    +0.000 A 
ATOM     23  C   UNL     1      44.235   4.691  12.609  0.00  0.00    +0.000 A 
ATOM     24  S   UNL     1      43.541   3.199  12.166  0.00  0.00    +0.000 S 
ATOM     25  C   UNL     1      44.235   3.279  10.614  0.00  0.00    +0.000 A 
ATOM     26  N   UNL     1      44.053   2.271   9.718  0.00  0.00    +0.000 NA
ATOM     27  C   UNL     1      44.662   2.444   8.593  0.00  0.00    +0.000 A 
ATOM     28  N   UNL     1      45.425   3.537   8.278  0.00  0.00    +0.000 N 
ATOM     29  C   UNL     1      45.591   4.604   9.131  0.00  0.00    +0.000 A 
ATOM     30  O   UNL     1      46.205   5.607   8.785  0.00  0.00    +0.000 OA
ATOM     31  C   UNL     1      44.961   4.442  10.428  0.00  0.00    +0.000 A 
ATOM     32  H   UNL     1      45.856   3.623   7.369  0.00  0.00    +0.000 HD
ENDBRANCH  19  22
ENDBRANCH  17  18
ENDBRANCH   4  17
TORSDOF 7
ENDMDL
