MODEL 1
REMARK VINA RESULT:    -8.073      0.000      0.000
REMARK INTER + INTRA:         -11.320
REMARK INTER:                 -10.432
REMARK INTRA:                  -0.888
REMARK UNBOUND:                -0.888
REMARK  Name = 
REMARK  5 active torsions:
REMARK  status: ('A' for Active; 'I' for Inactive)
REMARK    1  A    between atoms: C_2  and  C_4
REMARK    2  A    between atoms: C_8  and  S_9
REMARK    3  A    between atoms: S_9  and  C_10
REMARK    4  A    between atoms: C_10  and  C_11
REMARK    5  A    between atoms: C_16  and  C_17
REMARK                            x       y       z     vdW  Elec       q    Type
REMARK                         _______ _______ _______ _____ _____    ______ ____
ROOT
ATOM      1  C   UNL     1      45.251   5.264  12.136  0.00  0.00    +0.000 A 
ATOM      2  C   UNL     1      45.567   4.513  13.273  0.00  0.00    +0.000 A 
ATOM      3  C   UNL     1      46.657   4.857  14.056  0.00  0.00    +0.000 A 
ATOM      4  F   UNL     1      46.926   4.144  15.158  0.00  0.00    +0.000 F 
ATOM      5  C   UNL     1      47.483   5.920  13.716  0.00  0.00    +0.000 A 
ATOM      6  C   UNL     1      47.252   6.664  12.546  0.00  0.00    +0.000 A 
ATOM      7  C   UNL     1      46.118   6.322  11.776  0.00  0.00    +0.000 A 
ENDROOT
BRANCH   6   8
ATOM      8  C   UNL     1      48.187   7.742  12.139  0.00  0.00    +0.000 A 
ATOM      9  C   UNL     1      49.536   7.487  11.825  0.00  0.00    +0.000 A 
ATOM     10  C   UNL     1      50.409   8.517  11.447  0.00  0.00    +0.000 A 
ATOM     11  C   UNL     1      49.946   9.826  11.358  0.00  0.00    +0.000 A 
ATOM     12  C   UNL     1      48.621  10.094  11.659  0.00  0.00    +0.000 A 
ATOM     13  F   UNL     1      48.164  11.351  11.576  0.00  0.00    +0.000 F 
ATOM     14  C   UNL     1      47.752   9.078  12.049  0.00  0.00    +0.000 A 
ENDBRANCH   6   8
BRANCH   1  15
ATOM     15  C   UNL     1      44.075   4.931  11.237  0.00  0.00    +0.000 C 
BRANCH  15  16
ATOM     16  S   UNL     1      43.978   3.169  10.738  0.00  0.00    +0.000 S 
BRANCH  16  21
ATOM     17  C   UNL     1      46.466   1.991   7.743  0.00  0.00    +0.000 A 
ATOM     18  C   UNL     1      46.804   3.205   7.133  0.00  0.00    +0.000 A 
ATOM     19  C   UNL     1      46.274   4.399   7.624  0.00  0.00    +0.000 A 
ATOM     20  C   UNL     1      45.405   4.380   8.717  0.00  0.00    +0.000 A 
ATOM     21  C   UNL     1      45.051   3.169   9.320  0.00  0.00    +0.000 A 
ATOM     22  C   UNL     1      45.591   1.978   8.834  0.00  0.00    +0.000 A 
BRANCH  17  24
ATOM     23  N   UNL     1      47.608   0.668   6.046  0.00  0.00    +0.000 N 
ATOM     24  C   UNL     1      46.982   0.688   7.259  0.00  0.00    +0.000 C 
ATOM     25  O   UNL     1      46.881  -0.328   7.936  0.00  0.00    +0.000 OA
ATOM     26  H   UNL     1      48.051  -0.206   5.791  0.00  0.00    +0.000 HD
ATOM     27  H   UNL     1      47.934   1.509   5.591  0.00  0.00    +0.000 HD
ENDBRANCH  17  24
ENDBRANCH  16  21
ENDBRANCH  15  16
ENDBRANCH   1  15
TORSDOF 5
ENDMDL
MODEL 2
REMARK VINA RESULT:    -7.830      4.073      7.341
REMARK INTER + INTRA:         -11.007
REMARK INTER:                 -10.099
REMARK INTRA:                  -0.908
REMARK UNBOUND:                -0.888
REMARK  Name = 
REMARK  5 active torsions:
REMARK  status: ('A' for Active; 'I' for Inactive)
REMARK    1  A    between atoms: C_2  and  C_4
REMARK    2  A    between atoms: C_8  and  S_9
REMARK    3  A    between atoms: S_9  and  C_10
REMARK    4  A    between atoms: C_10  and  C_11
REMARK    5  A    between atoms: C_16  and  C_17
REMARK                            x       y       z     vdW  Elec       q    Type
REMARK                         _______ _______ _______ _____ _____    ______ ____
ROOT
ATOM      1  C   UNL     1      45.175   6.535  11.529  0.00  0.00    +0.000 A 
ATOM      2  C   UNL     1      43.815   6.379  11.820  0.00  0.00    +0.000 A 
ATOM      3  C   UNL     1      43.086   5.360  11.226  0.00  0.00    +0.000 A 
ATOM      4  F   UNL     1      41.793   5.209  11.540  0.00  0.00    +0.000 F 
ATOM      5  C   UNL     1      43.667   4.500  10.305  0.00  0.00    +0.000 A 
ATOM      6  C   UNL     1      45.011   4.655   9.924  0.00  0.00    +0.000 A 
ATOM      7  C   UNL     1      45.750   5.677  10.562  0.00  0.00    +0.000 A 
ENDROOT
BRANCH   6   8
ATOM      8  C   UNL     1      45.604   3.789   8.875  0.00  0.00    +0.000 A 
ATOM      9  C   UNL     1      46.236   4.320   7.733  0.00  0.00    +0.000 A 
ATOM     10  C   UNL     1      46.788   3.489   6.747  0.00  0.00    +0.000 A 
ATOM     11  C   UNL     1      46.733   2.106   6.890  0.00  0.00    +0.000 A 
ATOM     12  C   UNL     1      46.119   1.568   8.009  0.00  0.00    +0.000 A 
ATOM     13  F   UNL     1      46.062   0.237   8.156  0.00  0.00    +0.000 F 
ATOM     14  C   UNL     1      45.557   2.386   8.985  0.00  0.00    +0.000 A 
ENDBRANCH   6   8
BRANCH   1  15
ATOM     15  C   UNL     1      46.021   7.634  12.141  0.00  0.00    +0.000 C 
BRANCH  15  16
ATOM     16  S   UNL     1      47.829   7.350  12.029  0.00  0.00    +0.000 S 
BRANCH  16  21
ATOM     17  C   UNL     1      47.896   5.217  15.493  0.00  0.00    +0.000 A 
ATOM     18  C   UNL     1      48.679   6.020  16.330  0.00  0.00    +0.000 A 
ATOM     19  C   UNL     1      49.201   7.221  15.848  0.00  0.00    +0.000 A 
ATOM     20  C   UNL     1      48.947   7.616  14.533  0.00  0.00    +0.000 A 
ATOM     21  C   UNL     1      48.179   6.809  13.687  0.00  0.00    +0.000 A 
ATOM     22  C   UNL     1      47.649   5.614  14.175  0.00  0.00    +0.000 A 
BRANCH  17  24
ATOM     23  N   UNL     1      47.698   2.801  15.254  0.00  0.00    +0.000 N 
ATOM     24  C   UNL     1      47.326   3.922  15.939  0.00  0.00    +0.000 C 
ATOM     25  O   UNL     1      46.577   3.854  16.906  0.00  0.00    +0.000 OA
ATOM     26  H   UNL     1      47.389   1.920  15.646  0.00  0.00    +0.000 HD
ATOM     27  H   UNL     1      48.496   2.784  14.635  0.00  0.00    +0.000 HD
ENDBRANCH  17  24
ENDBRANCH  16  21
ENDBRANCH  15  16
ENDBRANCH   1  15
TORSDOF 5
ENDMDL
MODEL 3
REMARK VINA RESULT:    -7.644      3.986      7.125
REMARK INTER + INTRA:         -10.767
REMARK INTER:                  -9.978
REMARK INTRA:                  -0.788
REMARK UNBOUND:                -0.888
REMARK  Name = 
REMARK  5 active torsions:
REMARK  status: ('A' for Active; 'I' for Inactive)
REMARK    1  A    between atoms: C_2  and  C_4
REMARK    2  A    between atoms: C_8  and  S_9
REMARK    3  A    between atoms: S_9  and  C_10
REMARK    4  A    between atoms: C_10  and  C_11
REMARK    5  A    between atoms: C_16  and  C_17
REMARK                            x       y       z     vdW  Elec       q    Type
REMARK                         _______ _______ _______ _____ _____    ______ ____
ROOT
ATOM      1  C   UNL     1      44.313   5.075  11.094  0.00  0.00    +0.000 A 
ATOM      2  C   UNL     1      43.518   4.104  11.711  0.00  0.00    +0.000 A 
ATOM      3  C   UNL     1      43.543   2.793  11.262  0.00  0.00    +0.000 A 
ATOM      4  F   UNL     1      42.797   1.870  11.885  0.00  0.00    +0.000 F 
ATOM      5  C   UNL     1      44.317   2.418  10.173  0.00  0.00    +0.000 A 
ATOM      6  C   UNL     1      45.081   3.367   9.473  0.00  0.00    +0.000 A 
ATOM      7  C   UNL     1      45.072   4.692   9.963  0.00  0.00    +0.000 A 
ENDROOT
BRANCH   6   8
ATOM      8  C   UNL     1      45.839   2.980   8.257  0.00  0.00    +0.000 A 
ATOM      9  C   UNL     1      46.212   3.918   7.275  0.00  0.00    +0.000 A 
ATOM     10  C   UNL     1      46.923   3.537   6.128  0.00  0.00    +0.000 A 
ATOM     11  C   UNL     1      47.292   2.208   5.946  0.00  0.00    +0.000 A 
ATOM     12  C   UNL     1      46.938   1.273   6.905  0.00  0.00    +0.000 A 
ATOM     13  F   UNL     1      47.289  -0.010   6.740  0.00  0.00    +0.000 F 
ATOM     14  C   UNL     1      46.219   1.642   8.039  0.00  0.00    +0.000 A 
ENDBRANCH   6   8
BRANCH   1  15
ATOM     15  C   UNL     1      44.322   6.526  11.536  0.00  0.00    +0.000 C 
BRANCH  15  16
ATOM     16  S   UNL     1      45.873   7.425  11.153  0.00  0.00    +0.000 S 
BRANCH  16  21
ATOM     17  C   UNL     1      47.420   5.510  14.392  0.00  0.00    +0.000 A 
ATOM     18  C   UNL     1      48.342   6.440  14.884  0.00  0.00    +0.000 A 
ATOM     19  C   UNL     1      48.509   7.663  14.232  0.00  0.00    +0.000 A 
ATOM     20  C   UNL     1      47.761   7.953  13.089  0.00  0.00    +0.000 A 
ATOM     21  C   UNL     1      46.849   7.020  12.584  0.00  0.00    +0.000 A 
ATOM     22  C   UNL     1      46.676   5.803  13.244  0.00  0.00    +0.000 A 
BRANCH  17  24
ATOM     23  N   UNL     1      46.762   4.173  16.319  0.00  0.00    +0.000 N 
ATOM     24  C   UNL     1      47.207   4.187  15.029  0.00  0.00    +0.000 C 
ATOM     25  O   UNL     1      47.390   3.145  14.411  0.00  0.00    +0.000 OA
ATOM     26  H   UNL     1      46.515   3.264  16.693  0.00  0.00    +0.000 HD
ATOM     27  H   UNL     1      46.359   4.986  16.762  0.00  0.00    +0.000 HD
ENDBRANCH  17  24
ENDBRANCH  16  21
ENDBRANCH  15  16
ENDBRANCH   1  15
TORSDOF 5
ENDMDL
MODEL 4
REMARK VINA RESULT:    -7.528      4.007      7.411
REMARK INTER + INTRA:         -10.616
REMARK INTER:                  -9.943
REMARK INTRA:                  -0.673
REMARK UNBOUND:                -0.888
REMARK  Name = 
REMARK  5 active torsions:
REMARK  status: ('A' for Active; 'I' for Inactive)
REMARK    1  A    between atoms: C_2  and  C_4
REMARK    2  A    between atoms: C_8  and  S_9
REMARK    3  A    between atoms: S_9  and  C_10
REMARK    4  A    between atoms: C_10  and  C_11
REMARK    5  A    between atoms: C_16  and  C_17
REMARK                            x       y       z     vdW  Elec       q    Type
REMARK                         _______ _______ _______ _____ _____    ______ ____
ROOT
ATOM      1  C   UNL     1      44.724   5.349  10.757  0.00  0.00    +0.000 A 
ATOM      2  C   UNL     1      43.827   4.541  11.463  0.00  0.00    +0.000 A 
ATOM      3  C   UNL     1      43.688   3.201  11.135  0.00  0.00    +0.000 A 
ATOM      4  F   UNL     1      42.845   2.436  11.842  0.00  0.00    +0.000 F 
ATOM      5  C   UNL     1      44.397   2.639  10.084  0.00  0.00    +0.000 A 
ATOM      6  C   UNL     1      45.259   3.421   9.297  0.00  0.00    +0.000 A 
ATOM      7  C   UNL     1      45.415   4.777   9.664  0.00  0.00    +0.000 A 
ENDROOT
BRANCH   6   8
ATOM      8  C   UNL     1      45.948   2.838   8.119  0.00  0.00    +0.000 A 
ATOM      9  C   UNL     1      46.328   3.618   7.010  0.00  0.00    +0.000 A 
ATOM     10  C   UNL     1      46.974   3.051   5.902  0.00  0.00    +0.000 A 
ATOM     11  C   UNL     1      47.269   1.691   5.886  0.00  0.00    +0.000 A 
ATOM     12  C   UNL     1      46.906   0.911   6.971  0.00  0.00    +0.000 A 
ATOM     13  F   UNL     1      47.187  -0.400   6.967  0.00  0.00    +0.000 F 
ATOM     14  C   UNL     1      46.252   1.464   8.069  0.00  0.00    +0.000 A 
ENDBRANCH   6   8
BRANCH   1  15
ATOM     15  C   UNL     1      44.913   6.823  11.065  0.00  0.00    +0.000 C 
BRANCH  15  16
ATOM     16  S   UNL     1      45.660   7.165  12.704  0.00  0.00    +0.000 S 
BRANCH  16  21
ATOM     17  C   UNL     1      49.371   8.554  11.782  0.00  0.00    +0.000 A 
ATOM     18  C   UNL     1      49.142   9.918  11.572  0.00  0.00    +0.000 A 
ATOM     19  C   UNL     1      47.852  10.434  11.706  0.00  0.00    +0.000 A 
ATOM     20  C   UNL     1      46.792   9.587  12.041  0.00  0.00    +0.000 A 
ATOM     21  C   UNL     1      47.013   8.219  12.234  0.00  0.00    +0.000 A 
ATOM     22  C   UNL     1      48.306   7.709  12.112  0.00  0.00    +0.000 A 
BRANCH  17  24
ATOM     23  N   UNL     1      51.531   7.952  12.734  0.00  0.00    +0.000 N 
ATOM     24  C   UNL     1      50.715   7.942  11.640  0.00  0.00    +0.000 C 
ATOM     25  O   UNL     1      51.068   7.416  10.592  0.00  0.00    +0.000 OA
ATOM     26  H   UNL     1      52.394   7.429  12.648  0.00  0.00    +0.000 HD
ATOM     27  H   UNL     1      51.186   8.136  13.665  0.00  0.00    +0.000 HD
ENDBRANCH  17  24
ENDBRANCH  16  21
ENDBRANCH  15  16
ENDBRANCH   1  15
TORSDOF 5
ENDMDL
MODEL 5
REMARK VINA RESULT:    -7.354      4.282      7.818
REMARK INTER + INTRA:         -10.391
REMARK INTER:                  -9.484
REMARK INTRA:                  -0.907
REMARK UNBOUND:                -0.888
REMARK  Name = 
REMARK  5 active torsions:
REMARK  status: ('A' for Active; 'I' for Inactive)
REMARK    1  A    between atoms: C_2  and  C_4
REMARK    2  A    between atoms: C_8  and  S_9
REMARK    3  A    between atoms: S_9  and  C_10
REMARK    4  A    between atoms: C_10  and  C_11
REMARK    5  A    between atoms: C_16  and  C_17
REMARK                            x       y       z     vdW  Elec       q    Type
REMARK                         _______ _______ _______ _____ _____    ______ ____
ROOT
ATOM      1  C   UNL     1      47.680   7.304  13.113  0.00  0.00    +0.000 A 
ATOM      2  C   UNL     1      46.909   8.464  13.242  0.00  0.00    +0.000 A 
ATOM      3  C   UNL     1      45.641   8.525  12.684  0.00  0.00    +0.000 A 
ATOM      4  F   UNL     1      44.907   9.634  12.844  0.00  0.00    +0.000 F 
ATOM      5  C   UNL     1      45.122   7.465  11.956  0.00  0.00    +0.000 A 
ATOM      6  C   UNL     1      45.880   6.302  11.737  0.00  0.00    +0.000 A 
ATOM      7  C   UNL     1      47.157   6.241  12.339  0.00  0.00    +0.000 A 
ENDROOT
BRANCH   6   8
ATOM      8  C   UNL     1      45.356   5.207  10.884  0.00  0.00    +0.000 A 
ATOM      9  C   UNL     1      45.662   5.112   9.513  0.00  0.00    +0.000 A 
ATOM     10  C   UNL     1      45.155   4.073   8.719  0.00  0.00    +0.000 A 
ATOM     11  C   UNL     1      44.343   3.095   9.284  0.00  0.00    +0.000 A 
ATOM     12  C   UNL     1      44.037   3.171  10.633  0.00  0.00    +0.000 A 
ATOM     13  F   UNL     1      43.256   2.233  11.188  0.00  0.00    +0.000 F 
ATOM     14  C   UNL     1      44.524   4.207  11.424  0.00  0.00    +0.000 A 
ENDBRANCH   6   8
BRANCH   1  15
ATOM     15  C   UNL     1      49.075   7.181  13.695  0.00  0.00    +0.000 C 
BRANCH  15  16
ATOM     16  S   UNL     1      49.357   8.180  15.206  0.00  0.00    +0.000 S 
BRANCH  16  21
ATOM     17  C   UNL     1      47.925   4.880  17.107  0.00  0.00    +0.000 A 
ATOM     18  C   UNL     1      47.865   5.300  18.440  0.00  0.00    +0.000 A 
ATOM     19  C   UNL     1      48.263   6.594  18.779  0.00  0.00    +0.000 A 
ATOM     20  C   UNL     1      48.727   7.463  17.790  0.00  0.00    +0.000 A 
ATOM     21  C   UNL     1      48.806   7.044  16.458  0.00  0.00    +0.000 A 
ATOM     22  C   UNL     1      48.396   5.754  16.120  0.00  0.00    +0.000 A 
BRANCH  17  24
ATOM     23  N   UNL     1      46.937   2.713  17.615  0.00  0.00    +0.000 N 
ATOM     24  C   UNL     1      47.532   3.514  16.684  0.00  0.00    +0.000 C 
ATOM     25  O   UNL     1      47.702   3.129  15.534  0.00  0.00    +0.000 OA
ATOM     26  H   UNL     1      46.574   1.831  17.274  0.00  0.00    +0.000 HD
ATOM     27  H   UNL     1      46.551   3.076  18.475  0.00  0.00    +0.000 HD
ENDBRANCH  17  24
ENDBRANCH  16  21
ENDBRANCH  15  16
ENDBRANCH   1  15
TORSDOF 5
ENDMDL
MODEL 6
REMARK VINA RESULT:    -7.192      2.332      4.682
REMARK INTER + INTRA:         -10.182
REMARK INTER:                  -9.403
REMARK INTRA:                  -0.779
REMARK UNBOUND:                -0.888
REMARK  Name = 
REMARK  5 active torsions:
REMARK  status: ('A' for Active; 'I' for Inactive)
REMARK    1  A    between atoms: C_2  and  C_4
REMARK    2  A    between atoms: C_8  and  S_9
REMARK    3  A    between atoms: S_9  and  C_10
REMARK    4  A    between atoms: C_10  and  C_11
REMARK    5  A    between atoms: C_16  and  C_17
REMARK                            x       y       z     vdW  Elec       q    Type
REMARK                         _______ _______ _______ _____ _____    ______ ____
ROOT
ATOM      1  C   UNL     1      46.018   5.648  12.432  0.00  0.00    +0.000 A 
ATOM      2  C   UNL     1      46.857   6.610  11.860  0.00  0.00    +0.000 A 
ATOM      3  C   UNL     1      48.018   6.998  12.510  0.00  0.00    +0.000 A 
ATOM      4  F   UNL     1      48.824   7.900  11.933  0.00  0.00    +0.000 F 
ATOM      5  C   UNL     1      48.358   6.479  13.751  0.00  0.00    +0.000 A 
ATOM      6  C   UNL     1      47.516   5.562  14.402  0.00  0.00    +0.000 A 
ATOM      7  C   UNL     1      46.353   5.151  13.713  0.00  0.00    +0.000 A 
ENDROOT
BRANCH   6   8
ATOM      8  C   UNL     1      47.838   5.076  15.767  0.00  0.00    +0.000 A 
ATOM      9  C   UNL     1      48.741   5.752  16.610  0.00  0.00    +0.000 A 
ATOM     10  C   UNL     1      49.039   5.278  17.896  0.00  0.00    +0.000 A 
ATOM     11  C   UNL     1      48.427   4.123  18.374  0.00  0.00    +0.000 A 
ATOM     12  C   UNL     1      47.533   3.449  17.559  0.00  0.00    +0.000 A 
ATOM     13  F   UNL     1      46.936   2.337  18.009  0.00  0.00    +0.000 F 
ATOM     14  C   UNL     1      47.242   3.906  16.276  0.00  0.00    +0.000 A 
ENDBRANCH   6   8
BRANCH   1  15
ATOM     15  C   UNL     1      44.731   5.189  11.772  0.00  0.00    +0.000 C 
BRANCH  15  16
ATOM     16  S   UNL     1      44.620   5.570   9.982  0.00  0.00    +0.000 S 
BRANCH  16  21
ATOM     17  C   UNL     1      46.378   2.702   7.692  0.00  0.00    +0.000 A 
ATOM     18  C   UNL     1      45.759   1.531   8.143  0.00  0.00    +0.000 A 
ATOM     19  C   UNL     1      44.800   1.599   9.154  0.00  0.00    +0.000 A 
ATOM     20  C   UNL     1      44.465   2.832   9.718  0.00  0.00    +0.000 A 
ATOM     21  C   UNL     1      45.092   4.004   9.283  0.00  0.00    +0.000 A 
ATOM     22  C   UNL     1      46.042   3.935   8.264  0.00  0.00    +0.000 A 
BRANCH  17  24
ATOM     23  N   UNL     1      47.167   3.420   5.502  0.00  0.00    +0.000 N 
ATOM     24  C   UNL     1      47.416   2.697   6.633  0.00  0.00    +0.000 C 
ATOM     25  O   UNL     1      48.473   2.095   6.778  0.00  0.00    +0.000 OA
ATOM     26  H   UNL     1      47.934   3.495   4.846  0.00  0.00    +0.000 HD
ATOM     27  H   UNL     1      46.443   4.123   5.457  0.00  0.00    +0.000 HD
ENDBRANCH  17  24
ENDBRANCH  16  21
ENDBRANCH  15  16
ENDBRANCH   1  15
TORSDOF 5
ENDMDL
MODEL 7
REMARK VINA RESULT:    -7.114      2.622      3.286
REMARK INTER + INTRA:         -10.082
REMARK INTER:                  -9.109
REMARK INTRA:                  -0.973
REMARK UNBOUND:                -0.888
REMARK  Name = 
REMARK  5 active torsions:
REMARK  status: ('A' for Active; 'I' for Inactive)
REMARK    1  A    between atoms: C_2  and  C_4
REMARK    2  A    between atoms: C_8  and  S_9
REMARK    3  A    between atoms: S_9  and  C_10
REMARK    4  A    between atoms: C_10  and  C_11
REMARK    5  A    between atoms: C_16  and  C_17
REMARK                            x       y       z     vdW  Elec       q    Type
REMARK                         _______ _______ _______ _____ _____    ______ ____
ROOT
ATOM      1  C   UNL     1      45.587   5.217  12.134  0.00  0.00    +0.000 A 
ATOM      2  C   UNL     1      46.947   5.321  12.444  0.00  0.00    +0.000 A 
ATOM      3  C   UNL     1      47.550   6.567  12.529  0.00  0.00    +0.000 A 
ATOM      4  F   UNL     1      48.846   6.648  12.856  0.00  0.00    +0.000 F 
ATOM      5  C   UNL     1      46.839   7.731  12.274  0.00  0.00    +0.000 A 
ATOM      6  C   UNL     1      45.488   7.680  11.891  0.00  0.00    +0.000 A 
ATOM      7  C   UNL     1      44.879   6.405  11.840  0.00  0.00    +0.000 A 
ENDROOT
BRANCH   6   8
ATOM      8  C   UNL     1      44.756   8.920  11.533  0.00  0.00    +0.000 A 
ATOM      9  C   UNL     1      45.312  10.200  11.718  0.00  0.00    +0.000 A 
ATOM     10  C   UNL     1      44.606  11.363  11.379  0.00  0.00    +0.000 A 
ATOM     11  C   UNL     1      43.330  11.270  10.833  0.00  0.00    +0.000 A 
ATOM     12  C   UNL     1      42.770  10.018  10.640  0.00  0.00    +0.000 A 
ATOM     13  F   UNL     1      41.542   9.917  10.112  0.00  0.00    +0.000 F 
ATOM     14  C   UNL     1      43.459   8.860  10.986  0.00  0.00    +0.000 A 
ENDBRANCH   6   8
BRANCH   1  15
ATOM     15  C   UNL     1      44.875   3.882  12.019  0.00  0.00    +0.000 C 
BRANCH  15  16
ATOM     16  S   UNL     1      43.799   3.723  10.543  0.00  0.00    +0.000 S 
BRANCH  16  21
ATOM     17  C   UNL     1      46.418   2.209   7.822  0.00  0.00    +0.000 A 
ATOM     18  C   UNL     1      47.007   3.363   7.293  0.00  0.00    +0.000 A 
ATOM     19  C   UNL     1      46.611   4.619   7.755  0.00  0.00    +0.000 A 
ATOM     20  C   UNL     1      45.625   4.722   8.739  0.00  0.00    +0.000 A 
ATOM     21  C   UNL     1      45.021   3.574   9.259  0.00  0.00    +0.000 A 
ATOM     22  C   UNL     1      45.427   2.319   8.803  0.00  0.00    +0.000 A 
BRANCH  17  24
ATOM     23  N   UNL     1      47.268   0.720   6.093  0.00  0.00    +0.000 N 
ATOM     24  C   UNL     1      46.782   0.848   7.362  0.00  0.00    +0.000 C 
ATOM     25  O   UNL     1      46.684  -0.123   8.103  0.00  0.00    +0.000 OA
ATOM     26  H   UNL     1      47.617  -0.197   5.842  0.00  0.00    +0.000 HD
ATOM     27  H   UNL     1      47.602   1.509   5.559  0.00  0.00    +0.000 HD
ENDBRANCH  17  24
ENDBRANCH  16  21
ENDBRANCH  15  16
ENDBRANCH   1  15
TORSDOF 5
ENDMDL
MODEL 8
REMARK VINA RESULT:    -6.835      2.949      5.572
REMARK INTER + INTRA:          -9.721
REMARK INTER:                  -8.902
REMARK INTRA:                  -0.819
REMARK UNBOUND:                -0.888
REMARK  Name = 
REMARK  5 active torsions:
REMARK  status: ('A' for Active; 'I' for Inactive)
REMARK    1  A    between atoms: C_2  and  C_4
REMARK    2  A    between atoms: C_8  and  S_9
REMARK    3  A    between atoms: S_9  and  C_10
REMARK    4  A    between atoms: C_10  and  C_11
REMARK    5  A    between atoms: C_16  and  C_17
REMARK                            x       y       z     vdW  Elec       q    Type
REMARK                         _______ _______ _______ _____ _____    ______ ____
ROOT
ATOM      1  C   UNL     1      47.625   7.306  13.209  0.00  0.00    +0.000 A 
ATOM      2  C   UNL     1      47.981   8.593  13.623  0.00  0.00    +0.000 A 
ATOM      3  C   UNL     1      48.569   8.790  14.863  0.00  0.00    +0.000 A 
ATOM      4  F   UNL     1      48.931  10.027  15.230  0.00  0.00    +0.000 F 
ATOM      5  C   UNL     1      48.781   7.733  15.736  0.00  0.00    +0.000 A 
ATOM      6  C   UNL     1      48.379   6.429  15.400  0.00  0.00    +0.000 A 
ATOM      7  C   UNL     1      47.811   6.239  14.119  0.00  0.00    +0.000 A 
ENDROOT
BRANCH   6   8
ATOM      8  C   UNL     1      48.527   5.317  16.371  0.00  0.00    +0.000 A 
ATOM      9  C   UNL     1      49.695   5.141  17.137  0.00  0.00    +0.000 A 
ATOM     10  C   UNL     1      49.822   4.082  18.048  0.00  0.00    +0.000 A 
ATOM     11  C   UNL     1      48.775   3.183  18.223  0.00  0.00    +0.000 A 
ATOM     12  C   UNL     1      47.617   3.345  17.480  0.00  0.00    +0.000 A 
ATOM     13  F   UNL     1      46.601   2.485  17.642  0.00  0.00    +0.000 F 
ATOM     14  C   UNL     1      47.489   4.386  16.564  0.00  0.00    +0.000 A 
ENDBRANCH   6   8
BRANCH   1  15
ATOM     15  C   UNL     1      46.972   7.030  11.868  0.00  0.00    +0.000 C 
BRANCH  15  16
ATOM     16  S   UNL     1      45.156   7.281  11.843  0.00  0.00    +0.000 S 
BRANCH  16  21
ATOM     17  C   UNL     1      44.243   3.572  10.440  0.00  0.00    +0.000 A 
ATOM     18  C   UNL     1      43.625   2.973  11.543  0.00  0.00    +0.000 A 
ATOM     19  C   UNL     1      43.481   3.691  12.732  0.00  0.00    +0.000 A 
ATOM     20  C   UNL     1      43.960   5.000  12.820  0.00  0.00    +0.000 A 
ATOM     21  C   UNL     1      44.593   5.598  11.726  0.00  0.00    +0.000 A 
ATOM     22  C   UNL     1      44.725   4.883  10.536  0.00  0.00    +0.000 A 
BRANCH  17  24
ATOM     23  N   UNL     1      44.362   3.595   8.007  0.00  0.00    +0.000 N 
ATOM     24  C   UNL     1      44.441   2.859   9.155  0.00  0.00    +0.000 C 
ATOM     25  O   UNL     1      44.700   1.663   9.123  0.00  0.00    +0.000 OA
ATOM     26  H   UNL     1      44.613   3.112   7.154  0.00  0.00    +0.000 HD
ATOM     27  H   UNL     1      44.410   4.604   8.006  0.00  0.00    +0.000 HD
ENDBRANCH  17  24
ENDBRANCH  16  21
ENDBRANCH  15  16
ENDBRANCH   1  15
TORSDOF 5
ENDMDL
MODEL 9
REMARK VINA RESULT:    -6.607      4.651      7.962
REMARK INTER + INTRA:          -9.427
REMARK INTER:                  -8.540
REMARK INTRA:                  -0.887
REMARK UNBOUND:                -0.888
REMARK  Name = 
REMARK  5 active torsions:
REMARK  status: ('A' for Active; 'I' for Inactive)
REMARK    1  A    between atoms: C_2  and  C_4
REMARK    2  A    between atoms: C_8  and  S_9
REMARK    3  A    between atoms: S_9  and  C_10
REMARK    4  A    between atoms: C_10  and  C_11
REMARK    5  A    between atoms: C_16  and  C_17
REMARK                            x       y       z     vdW  Elec       q    Type
REMARK                         _______ _______ _______ _____ _____    ______ ____
ROOT
ATOM      1  C   UNL     1      49.121   7.242  14.034  0.00  0.00    +0.000 A 
ATOM      2  C   UNL     1      49.537   8.171  13.074  0.00  0.00    +0.000 A 
ATOM      3  C   UNL     1      48.784   8.376  11.929  0.00  0.00    +0.000 A 
ATOM      4  F   UNL     1      49.183   9.292  11.035  0.00  0.00    +0.000 F 
ATOM      5  C   UNL     1      47.630   7.646  11.684  0.00  0.00    +0.000 A 
ATOM      6  C   UNL     1      47.204   6.652  12.581  0.00  0.00    +0.000 A 
ATOM      7  C   UNL     1      47.964   6.477  13.760  0.00  0.00    +0.000 A 
ENDROOT
BRANCH   6   8
ATOM      8  C   UNL     1      46.019   5.813  12.274  0.00  0.00    +0.000 A 
ATOM      9  C   UNL     1      45.233   5.225  13.284  0.00  0.00    +0.000 A 
ATOM     10  C   UNL     1      44.119   4.430  12.978  0.00  0.00    +0.000 A 
ATOM     11  C   UNL     1      43.756   4.218  11.652  0.00  0.00    +0.000 A 
ATOM     12  C   UNL     1      44.516   4.793  10.646  0.00  0.00    +0.000 A 
ATOM     13  F   UNL     1      44.174   4.597   9.365  0.00  0.00    +0.000 F 
ATOM     14  C   UNL     1      45.631   5.572  10.942  0.00  0.00    +0.000 A 
ENDBRANCH   6   8
BRANCH   1  15
ATOM     15  C   UNL     1      49.907   6.969  15.302  0.00  0.00    +0.000 C 
BRANCH  15  16
ATOM     16  S   UNL     1      49.046   7.453  16.847  0.00  0.00    +0.000 S 
BRANCH  16  21
ATOM     17  C   UNL     1      49.235   3.476  17.686  0.00  0.00    +0.000 A 
ATOM     18  C   UNL     1      48.769   3.421  19.004  0.00  0.00    +0.000 A 
ATOM     19  C   UNL     1      48.395   4.596  19.657  0.00  0.00    +0.000 A 
ATOM     20  C   UNL     1      48.491   5.823  18.997  0.00  0.00    +0.000 A 
ATOM     21  C   UNL     1      48.972   5.886  17.686  0.00  0.00    +0.000 A 
ATOM     22  C   UNL     1      49.335   4.709  17.031  0.00  0.00    +0.000 A 
BRANCH  17  24
ATOM     23  N   UNL     1      50.650   1.502  17.496  0.00  0.00    +0.000 N 
ATOM     24  C   UNL     1      49.663   2.267  16.942  0.00  0.00    +0.000 C 
ATOM     25  O   UNL     1      49.130   1.944  15.887  0.00  0.00    +0.000 OA
ATOM     26  H   UNL     1      50.844   0.625  17.030  0.00  0.00    +0.000 HD
ATOM     27  H   UNL     1      50.922   1.589  18.464  0.00  0.00    +0.000 HD
ENDBRANCH  17  24
ENDBRANCH  16  21
ENDBRANCH  15  16
ENDBRANCH   1  15
TORSDOF 5
ENDMDL
