MODEL 1
REMARK VINA RESULT:    -7.875      0.000      0.000
REMARK INTER + INTRA:         -12.636
REMARK INTER:                 -11.788
REMARK INTRA:                  -0.848
REMARK UNBOUND:                -0.848
REMARK  Name = 
REMARK  9 active torsions:
REMARK  status: ('A' for Active; 'I' for Inactive)
REMARK    1  A    between atoms: C_2  and  C_13
REMARK    2  A    between atoms: N_3  and  CA_4
REMARK    3  A    between atoms: CA_4  and  C_5
REMARK    4  A    between atoms: CA_4  and  C_7
REMARK    5  A    between atoms: C_5  and  O_6
REMARK    6  A    between atoms: C_16  and  C_17
REMARK    7  A    between atoms: C_17  and  N_18
REMARK    8  A    between atoms: N_18  and  C_19
REMARK    9  A    between atoms: C_19  and  C_20
REMARK                            x       y       z     vdW  Elec       q    Type
REMARK                         _______ _______ _______ _____ _____    ______ ____
ROOT
ATOM      1  C   UNL     1      46.868   4.378  13.858  0.00  0.00    +0.000 A 
ATOM      2  C   UNL     1      47.126   5.652  13.338  0.00  0.00    +0.000 A 
ATOM      3  C   UNL     1      46.504   6.067  12.153  0.00  0.00    +0.000 A 
ATOM      4  C   UNL     1      45.610   5.219  11.485  0.00  0.00    +0.000 A 
ATOM      5  C   UNL     1      45.371   3.939  12.004  0.00  0.00    +0.000 A 
ATOM      6  C   UNL     1      45.993   3.521  13.184  0.00  0.00    +0.000 A 
ENDROOT
BRANCH   1   8
ATOM      7  O   UNL     1      47.812   2.831  15.360  0.00  0.00    +0.000 OA
ATOM      8  C   UNL     1      47.488   3.994  15.158  0.00  0.00    +0.000 C 
ATOM      9  N   UNL     1      47.632   4.999  16.086  0.00  0.00    +0.000 N 
ATOM     10  H   UNL     1      47.159   5.882  15.960  0.00  0.00    +0.000 HD
BRANCH   9  11
ATOM     11  CA  UNL     1      48.152   4.709  17.415  0.00  0.00    +0.000 C 
BRANCH  11  12
ATOM     12  C   UNL     1      49.673   4.641  17.402  0.00  0.00    +0.000 A 
ATOM     13  C   UNL     1      50.322   3.446  17.752  0.00  0.00    +0.000 A 
ATOM     14  C   UNL     1      51.716   3.384  17.832  0.00  0.00    +0.000 A 
ATOM     15  C   UNL     1      52.482   4.513  17.551  0.00  0.00    +0.000 A 
ATOM     16  C   UNL     1      51.857   5.694  17.158  0.00  0.00    +0.000 A 
ATOM     17  C   UNL     1      50.465   5.754  17.074  0.00  0.00    +0.000 A 
ENDBRANCH  11  12
BRANCH  11  18
ATOM     18  C   UNL     1      47.586   5.685  18.480  0.00  0.00    +0.000 C 
BRANCH  18  19
ATOM     19  O   UNL     1      46.225   5.405  18.826  0.00  0.00    +0.000 OA
ATOM     20  H   UNL     1      45.904   6.160  19.349  0.00  0.00    +0.000 HD
ENDBRANCH  18  19
ENDBRANCH  11  18
ENDBRANCH   9  11
ENDBRANCH   1   8
BRANCH   4  21
ATOM     21  C   UNL     1      44.843   5.701  10.274  0.00  0.00    +0.000 C 
BRANCH  21  22
ATOM     22  N   UNL     1      45.469   5.283   9.020  0.00  0.00    +0.000 NA
ATOM     23  H   UNL     1      46.442   5.043   9.206  0.00  0.00    +0.000 HD
BRANCH  22  24
ATOM     24  C   UNL     1      44.775   4.120   8.465  0.00  0.00    +0.000 C 
BRANCH  24  25
ATOM     25  C   UNL     1      45.737   3.072   8.005  0.00  0.00    +0.000 A 
ATOM     26  C   UNL     1      46.770   3.346   7.128  0.00  0.00    +0.000 A 
ATOM     27  N   UNL     1      47.658   2.427   6.700  0.00  0.00    +0.000 NA
ATOM     28  C   UNL     1      47.494   1.188   7.191  0.00  0.00    +0.000 A 
ATOM     29  N   UNL     1      46.544   0.801   8.055  0.00  0.00    +0.000 NA
ATOM     30  C   UNL     1      45.683   1.763   8.445  0.00  0.00    +0.000 A 
ENDBRANCH  24  25
ENDBRANCH  22  24
ENDBRANCH  21  22
ENDBRANCH   4  21
TORSDOF 9
ENDMDL
MODEL 2
REMARK VINA RESULT:    -7.855      1.647      2.110
REMARK INTER + INTRA:         -12.606
REMARK INTER:                 -11.520
REMARK INTRA:                  -1.086
REMARK UNBOUND:                -0.848
REMARK  Name = 
REMARK  9 active torsions:
REMARK  status: ('A' for Active; 'I' for Inactive)
REMARK    1  A    between atoms: C_2  and  C_13
REMARK    2  A    between atoms: N_3  and  CA_4
REMARK    3  A    between atoms: CA_4  and  C_5
REMARK    4  A    between atoms: CA_4  and  C_7
REMARK    5  A    between atoms: C_5  and  O_6
REMARK    6  A    between atoms: C_16  and  C_17
REMARK    7  A    between atoms: C_17  and  N_18
REMARK    8  A    between atoms: N_18  and  C_19
REMARK    9  A    between atoms: C_19  and  C_20
REMARK                            x       y       z     vdW  Elec       q    Type
REMARK                         _______ _______ _______ _____ _____    ______ ____
ROOT
ATOM      1  C   UNL     1      46.437   4.207  13.357  0.00  0.00    +0.000 A 
ATOM      2  C   UNL     1      46.343   5.500  12.829  0.00  0.00    +0.000 A 
ATOM      3  C   UNL     1      45.549   5.743  11.701  0.00  0.00    +0.000 A 
ATOM      4  C   UNL     1      44.832   4.699  11.098  0.00  0.00    +0.000 A 
ATOM      5  C   UNL     1      44.947   3.404  11.624  0.00  0.00    +0.000 A 
ATOM      6  C   UNL     1      45.741   3.159  12.747  0.00  0.00    +0.000 A 
ENDROOT
BRANCH   1   8
ATOM      7  O   UNL     1      47.675   2.884  14.860  0.00  0.00    +0.000 OA
ATOM      8  C   UNL     1      47.231   3.995  14.601  0.00  0.00    +0.000 C 
ATOM      9  N   UNL     1      47.391   5.091  15.416  0.00  0.00    +0.000 N 
ATOM     10  H   UNL     1      46.832   5.919  15.274  0.00  0.00    +0.000 HD
BRANCH   9  11
ATOM     11  CA  UNL     1      48.081   4.967  16.694  0.00  0.00    +0.000 C 
BRANCH  11  12
ATOM     12  C   UNL     1      48.891   6.219  16.999  0.00  0.00    +0.000 A 
ATOM     13  C   UNL     1      49.695   6.791  15.999  0.00  0.00    +0.000 A 
ATOM     14  C   UNL     1      50.513   7.889  16.279  0.00  0.00    +0.000 A 
ATOM     15  C   UNL     1      50.532   8.438  17.559  0.00  0.00    +0.000 A 
ATOM     16  C   UNL     1      49.707   7.912  18.550  0.00  0.00    +0.000 A 
ATOM     17  C   UNL     1      48.886   6.818  18.269  0.00  0.00    +0.000 A 
ENDBRANCH  11  12
BRANCH  11  18
ATOM     18  C   UNL     1      47.110   4.566  17.835  0.00  0.00    +0.000 C 
BRANCH  18  19
ATOM     19  O   UNL     1      46.612   3.230  17.701  0.00  0.00    +0.000 OA
ATOM     20  H   UNL     1      46.371   2.926  18.594  0.00  0.00    +0.000 HD
ENDBRANCH  18  19
ENDBRANCH  11  18
ENDBRANCH   9  11
ENDBRANCH   1   8
BRANCH   4  21
ATOM     21  C   UNL     1      43.880   4.973   9.956  0.00  0.00    +0.000 C 
BRANCH  21  22
ATOM     22  N   UNL     1      44.159   4.134   8.790  0.00  0.00    +0.000 NA
ATOM     23  H   UNL     1      43.481   4.353   8.061  0.00  0.00    +0.000 HD
BRANCH  22  24
ATOM     24  C   UNL     1      45.513   4.385   8.291  0.00  0.00    +0.000 C 
BRANCH  24  25
ATOM     25  C   UNL     1      46.203   3.115   7.908  0.00  0.00    +0.000 A 
ATOM     26  C   UNL     1      45.810   1.881   8.391  0.00  0.00    +0.000 A 
ATOM     27  N   UNL     1      46.404   0.718   8.060  0.00  0.00    +0.000 NA
ATOM     28  C   UNL     1      47.430   0.816   7.198  0.00  0.00    +0.000 A 
ATOM     29  N   UNL     1      47.895   1.947   6.650  0.00  0.00    +0.000 NA
ATOM     30  C   UNL     1      47.263   3.079   7.022  0.00  0.00    +0.000 A 
ENDBRANCH  24  25
ENDBRANCH  22  24
ENDBRANCH  21  22
ENDBRANCH   4  21
TORSDOF 9
ENDMDL
MODEL 3
REMARK VINA RESULT:    -7.438      2.722      8.462
REMARK INTER + INTRA:         -11.982
REMARK INTER:                 -10.822
REMARK INTRA:                  -1.160
REMARK UNBOUND:                -0.848
REMARK  Name = 
REMARK  9 active torsions:
REMARK  status: ('A' for Active; 'I' for Inactive)
REMARK    1  A    between atoms: C_2  and  C_13
REMARK    2  A    between atoms: N_3  and  CA_4
REMARK    3  A    between atoms: CA_4  and  C_5
REMARK    4  A    between atoms: CA_4  and  C_7
REMARK    5  A    between atoms: C_5  and  O_6
REMARK    6  A    between atoms: C_16  and  C_17
REMARK    7  A    between atoms: C_17  and  N_18
REMARK    8  A    between atoms: N_18  and  C_19
REMARK    9  A    between atoms: C_19  and  C_20
REMARK                            x       y       z     vdW  Elec       q    Type
REMARK                         _______ _______ _______ _____ _____    ______ ____
ROOT
ATOM      1  C   UNL     1      46.421   6.525  12.583  0.00  0.00    +0.000 A 
ATOM      2  C   UNL     1      47.254   5.627  13.260  0.00  0.00    +0.000 A 
ATOM      3  C   UNL     1      48.084   6.079  14.294  0.00  0.00    +0.000 A 
ATOM      4  C   UNL     1      48.080   7.429  14.668  0.00  0.00    +0.000 A 
ATOM      5  C   UNL     1      47.256   8.326  13.973  0.00  0.00    +0.000 A 
ATOM      6  C   UNL     1      46.429   7.878  12.939  0.00  0.00    +0.000 A 
ENDROOT
BRANCH   1   8
ATOM      7  O   UNL     1      44.860   6.779  10.839  0.00  0.00    +0.000 OA
ATOM      8  C   UNL     1      45.496   6.001  11.538  0.00  0.00    +0.000 C 
ATOM      9  N   UNL     1      45.394   4.632  11.445  0.00  0.00    +0.000 N 
ATOM     10  H   UNL     1      45.765   4.043  12.175  0.00  0.00    +0.000 HD
BRANCH   9  11
ATOM     11  CA  UNL     1      44.457   4.023  10.511  0.00  0.00    +0.000 C 
BRANCH  11  12
ATOM     12  C   UNL     1      45.184   3.464   9.297  0.00  0.00    +0.000 A 
ATOM     13  C   UNL     1      45.333   2.075   9.151  0.00  0.00    +0.000 A 
ATOM     14  C   UNL     1      46.071   1.541   8.091  0.00  0.00    +0.000 A 
ATOM     15  C   UNL     1      46.662   2.386   7.154  0.00  0.00    +0.000 A 
ATOM     16  C   UNL     1      46.485   3.764   7.258  0.00  0.00    +0.000 A 
ATOM     17  C   UNL     1      45.745   4.297   8.315  0.00  0.00    +0.000 A 
ENDBRANCH  11  12
BRANCH  11  18
ATOM     18  C   UNL     1      43.538   2.989  11.212  0.00  0.00    +0.000 C 
BRANCH  18  19
ATOM     19  O   UNL     1      44.056   2.545  12.471  0.00  0.00    +0.000 OA
ATOM     20  H   UNL     1      43.535   2.986  13.164  0.00  0.00    +0.000 HD
ENDBRANCH  18  19
ENDBRANCH  11  18
ENDBRANCH   9  11
ENDBRANCH   1   8
BRANCH   4  21
ATOM     21  C   UNL     1      48.881   7.905  15.860  0.00  0.00    +0.000 C 
BRANCH  21  22
ATOM     22  N   UNL     1      48.167   7.708  17.121  0.00  0.00    +0.000 NA
ATOM     23  H   UNL     1      47.239   7.337  16.916  0.00  0.00    +0.000 HD
BRANCH  22  24
ATOM     24  C   UNL     1      48.891   6.767  17.978  0.00  0.00    +0.000 C 
BRANCH  24  25
ATOM     25  C   UNL     1      48.551   5.349  17.649  0.00  0.00    +0.000 A 
ATOM     26  C   UNL     1      47.252   4.876  17.652  0.00  0.00    +0.000 A 
ATOM     27  N   UNL     1      46.911   3.607  17.354  0.00  0.00    +0.000 NA
ATOM     28  C   UNL     1      47.930   2.794  17.032  0.00  0.00    +0.000 A 
ATOM     29  N   UNL     1      49.225   3.134  16.979  0.00  0.00    +0.000 NA
ATOM     30  C   UNL     1      49.505   4.416  17.291  0.00  0.00    +0.000 A 
ENDBRANCH  24  25
ENDBRANCH  22  24
ENDBRANCH  21  22
ENDBRANCH   4  21
TORSDOF 9
ENDMDL
MODEL 4
REMARK VINA RESULT:    -7.393      1.850      2.858
REMARK INTER + INTRA:         -11.915
REMARK INTER:                 -10.956
REMARK INTRA:                  -0.959
REMARK UNBOUND:                -0.848
REMARK  Name = 
REMARK  9 active torsions:
REMARK  status: ('A' for Active; 'I' for Inactive)
REMARK    1  A    between atoms: C_2  and  C_13
REMARK    2  A    between atoms: N_3  and  CA_4
REMARK    3  A    between atoms: CA_4  and  C_5
REMARK    4  A    between atoms: CA_4  and  C_7
REMARK    5  A    between atoms: C_5  and  O_6
REMARK    6  A    between atoms: C_16  and  C_17
REMARK    7  A    between atoms: C_17  and  N_18
REMARK    8  A    between atoms: N_18  and  C_19
REMARK    9  A    between atoms: C_19  and  C_20
REMARK                            x       y       z     vdW  Elec       q    Type
REMARK                         _______ _______ _______ _____ _____    ______ ____
ROOT
ATOM      1  C   UNL     1      46.577   5.526  13.384  0.00  0.00    +0.000 A 
ATOM      2  C   UNL     1      45.537   4.603  13.541  0.00  0.00    +0.000 A 
ATOM      3  C   UNL     1      44.549   4.482  12.555  0.00  0.00    +0.000 A 
ATOM      4  C   UNL     1      44.600   5.272  11.398  0.00  0.00    +0.000 A 
ATOM      5  C   UNL     1      45.636   6.206  11.258  0.00  0.00    +0.000 A 
ATOM      6  C   UNL     1      46.620   6.332  12.242  0.00  0.00    +0.000 A 
ENDROOT
BRANCH   1   8
ATOM      7  O   UNL     1      48.701   6.163  14.175  0.00  0.00    +0.000 OA
ATOM      8  C   UNL     1      47.652   5.579  14.416  0.00  0.00    +0.000 C 
ATOM      9  N   UNL     1      47.397   4.922  15.597  0.00  0.00    +0.000 N 
ATOM     10  H   UNL     1      46.622   4.281  15.667  0.00  0.00    +0.000 HD
BRANCH   9  11
ATOM     11  CA  UNL     1      48.417   4.848  16.635  0.00  0.00    +0.000 C 
BRANCH  11  12
ATOM     12  C   UNL     1      48.102   5.805  17.776  0.00  0.00    +0.000 A 
ATOM     13  C   UNL     1      48.469   7.157  17.674  0.00  0.00    +0.000 A 
ATOM     14  C   UNL     1      48.269   8.036  18.742  0.00  0.00    +0.000 A 
ATOM     15  C   UNL     1      47.690   7.580  19.923  0.00  0.00    +0.000 A 
ATOM     16  C   UNL     1      47.278   6.253  20.025  0.00  0.00    +0.000 A 
ATOM     17  C   UNL     1      47.474   5.376  18.957  0.00  0.00    +0.000 A 
ENDBRANCH  11  12
BRANCH  11  18
ATOM     18  C   UNL     1      48.655   3.388  17.102  0.00  0.00    +0.000 C 
BRANCH  18  19
ATOM     19  O   UNL     1      48.830   2.475  16.012  0.00  0.00    +0.000 OA
ATOM     20  H   UNL     1      49.131   2.997  15.249  0.00  0.00    +0.000 HD
ENDBRANCH  18  19
ENDBRANCH  11  18
ENDBRANCH   9  11
ENDBRANCH   1   8
BRANCH   4  21
ATOM     21  C   UNL     1      43.608   5.065  10.275  0.00  0.00    +0.000 C 
BRANCH  21  22
ATOM     22  N   UNL     1      44.236   4.498   9.081  0.00  0.00    +0.000 NA
ATOM     23  H   UNL     1      45.156   4.922   8.964  0.00  0.00    +0.000 HD
BRANCH  22  24
ATOM     24  C   UNL     1      44.379   3.047   9.218  0.00  0.00    +0.000 C 
BRANCH  24  25
ATOM     25  C   UNL     1      45.537   2.531   8.426  0.00  0.00    +0.000 A 
ATOM     26  C   UNL     1      46.357   3.359   7.683  0.00  0.00    +0.000 A 
ATOM     27  N   UNL     1      47.412   2.927   6.964  0.00  0.00    +0.000 NA
ATOM     28  C   UNL     1      47.644   1.605   7.012  0.00  0.00    +0.000 A 
ATOM     29  N   UNL     1      46.933   0.704   7.704  0.00  0.00    +0.000 NA
ATOM     30  C   UNL     1      45.888   1.194   8.401  0.00  0.00    +0.000 A 
ENDBRANCH  24  25
ENDBRANCH  22  24
ENDBRANCH  21  22
ENDBRANCH   4  21
TORSDOF 9
ENDMDL
MODEL 5
REMARK VINA RESULT:    -6.893      2.495      3.369
REMARK INTER + INTRA:         -11.166
REMARK INTER:                 -10.145
REMARK INTRA:                  -1.021
REMARK UNBOUND:                -0.848
REMARK  Name = 
REMARK  9 active torsions:
REMARK  status: ('A' for Active; 'I' for Inactive)
REMARK    1  A    between atoms: C_2  and  C_13
REMARK    2  A    between atoms: N_3  and  CA_4
REMARK    3  A    between atoms: CA_4  and  C_5
REMARK    4  A    between atoms: CA_4  and  C_7
REMARK    5  A    between atoms: C_5  and  O_6
REMARK    6  A    between atoms: C_16  and  C_17
REMARK    7  A    between atoms: C_17  and  N_18
REMARK    8  A    between atoms: N_18  and  C_19
REMARK    9  A    between atoms: C_19  and  C_20
REMARK                            x       y       z     vdW  Elec       q    Type
REMARK                         _______ _______ _______ _____ _____    ______ ____
ROOT
ATOM      1  C   UNL     1      46.773   6.140  13.073  0.00  0.00    +0.000 A 
ATOM      2  C   UNL     1      45.918   5.159  13.588  0.00  0.00    +0.000 A 
ATOM      3  C   UNL     1      44.734   4.833  12.915  0.00  0.00    +0.000 A 
ATOM      4  C   UNL     1      44.400   5.477  11.715  0.00  0.00    +0.000 A 
ATOM      5  C   UNL     1      45.253   6.471  11.216  0.00  0.00    +0.000 A 
ATOM      6  C   UNL     1      46.434   6.800  11.888  0.00  0.00    +0.000 A 
ENDROOT
BRANCH   1   8
ATOM      7  O   UNL     1      49.106   6.448  13.138  0.00  0.00    +0.000 OA
ATOM      8  C   UNL     1      48.061   6.411  13.774  0.00  0.00    +0.000 C 
ATOM      9  N   UNL     1      47.990   6.580  15.137  0.00  0.00    +0.000 N 
ATOM     10  H   UNL     1      47.151   6.329  15.639  0.00  0.00    +0.000 HD
BRANCH   9  11
ATOM     11  CA  UNL     1      49.203   6.768  15.922  0.00  0.00    +0.000 C 
BRANCH  11  12
ATOM     12  C   UNL     1      49.305   8.199  16.430  0.00  0.00    +0.000 A 
ATOM     13  C   UNL     1      50.562   8.819  16.523  0.00  0.00    +0.000 A 
ATOM     14  C   UNL     1      50.690  10.100  17.067  0.00  0.00    +0.000 A 
ATOM     15  C   UNL     1      49.564  10.785  17.516  0.00  0.00    +0.000 A 
ATOM     16  C   UNL     1      48.305  10.203  17.389  0.00  0.00    +0.000 A 
ATOM     17  C   UNL     1      48.176   8.926  16.842  0.00  0.00    +0.000 A 
ENDBRANCH  11  12
BRANCH  11  18
ATOM     18  C   UNL     1      49.333   5.704  17.043  0.00  0.00    +0.000 C 
BRANCH  18  19
ATOM     19  O   UNL     1      50.503   4.890  16.907  0.00  0.00    +0.000 OA
ATOM     20  H   UNL     1      50.784   4.948  15.977  0.00  0.00    +0.000 HD
ENDBRANCH  18  19
ENDBRANCH  11  18
ENDBRANCH   9  11
ENDBRANCH   1   8
BRANCH   4  21
ATOM     21  C   UNL     1      43.187   5.049  10.919  0.00  0.00    +0.000 C 
BRANCH  21  22
ATOM     22  N   UNL     1      43.544   4.556   9.588  0.00  0.00    +0.000 NA
ATOM     23  H   UNL     1      44.196   5.213   9.161  0.00  0.00    +0.000 HD
BRANCH  22  24
ATOM     24  C   UNL     1      44.171   3.236   9.683  0.00  0.00    +0.000 C 
BRANCH  24  25
ATOM     25  C   UNL     1      45.266   3.073   8.679  0.00  0.00    +0.000 A 
ATOM     26  C   UNL     1      45.757   4.130   7.938  0.00  0.00    +0.000 A 
ATOM     27  N   UNL     1      46.748   4.019   7.031  0.00  0.00    +0.000 NA
ATOM     28  C   UNL     1      47.262   2.788   6.882  0.00  0.00    +0.000 A 
ATOM     29  N   UNL     1      46.884   1.688   7.549  0.00  0.00    +0.000 NA
ATOM     30  C   UNL     1      45.886   1.861   8.440  0.00  0.00    +0.000 A 
ENDBRANCH  24  25
ENDBRANCH  22  24
ENDBRANCH  21  22
ENDBRANCH   4  21
TORSDOF 9
ENDMDL
MODEL 6
REMARK VINA RESULT:    -6.700      2.135      3.224
REMARK INTER + INTRA:         -10.878
REMARK INTER:                 -10.068
REMARK INTRA:                  -0.810
REMARK UNBOUND:                -0.848
REMARK  Name = 
REMARK  9 active torsions:
REMARK  status: ('A' for Active; 'I' for Inactive)
REMARK    1  A    between atoms: C_2  and  C_13
REMARK    2  A    between atoms: N_3  and  CA_4
REMARK    3  A    between atoms: CA_4  and  C_5
REMARK    4  A    between atoms: CA_4  and  C_7
REMARK    5  A    between atoms: C_5  and  O_6
REMARK    6  A    between atoms: C_16  and  C_17
REMARK    7  A    between atoms: C_17  and  N_18
REMARK    8  A    between atoms: N_18  and  C_19
REMARK    9  A    between atoms: C_19  and  C_20
REMARK                            x       y       z     vdW  Elec       q    Type
REMARK                         _______ _______ _______ _____ _____    ______ ____
ROOT
ATOM      1  C   UNL     1      47.668   5.516  14.638  0.00  0.00    +0.000 A 
ATOM      2  C   UNL     1      47.429   6.425  13.601  0.00  0.00    +0.000 A 
ATOM      3  C   UNL     1      46.565   6.084  12.552  0.00  0.00    +0.000 A 
ATOM      4  C   UNL     1      45.925   4.838  12.536  0.00  0.00    +0.000 A 
ATOM      5  C   UNL     1      46.185   3.927  13.569  0.00  0.00    +0.000 A 
ATOM      6  C   UNL     1      47.048   4.263  14.616  0.00  0.00    +0.000 A 
ENDROOT
BRANCH   1   8
ATOM      7  O   UNL     1      49.667   6.347  15.564  0.00  0.00    +0.000 OA
ATOM      8  C   UNL     1      48.534   5.936  15.777  0.00  0.00    +0.000 C 
ATOM      9  N   UNL     1      47.993   5.804  17.035  0.00  0.00    +0.000 N 
ATOM     10  H   UNL     1      47.151   5.265  17.174  0.00  0.00    +0.000 HD
BRANCH   9  11
ATOM     11  CA  UNL     1      48.788   6.111  18.216  0.00  0.00    +0.000 C 
BRANCH  11  12
ATOM     12  C   UNL     1      48.230   7.324  18.947  0.00  0.00    +0.000 A 
ATOM     13  C   UNL     1      47.948   7.243  20.321  0.00  0.00    +0.000 A 
ATOM     14  C   UNL     1      47.355   8.314  20.995  0.00  0.00    +0.000 A 
ATOM     15  C   UNL     1      47.046   9.486  20.310  0.00  0.00    +0.000 A 
ATOM     16  C   UNL     1      47.361   9.600  18.958  0.00  0.00    +0.000 A 
ATOM     17  C   UNL     1      47.957   8.532  18.285  0.00  0.00    +0.000 A 
ENDBRANCH  11  12
BRANCH  11  18
ATOM     18  C   UNL     1      48.966   4.868  19.128  0.00  0.00    +0.000 C 
BRANCH  18  19
ATOM     19  O   UNL     1      47.944   3.884  18.935  0.00  0.00    +0.000 OA
ATOM     20  H   UNL     1      47.453   3.817  19.772  0.00  0.00    +0.000 HD
ENDBRANCH  18  19
ENDBRANCH  11  18
ENDBRANCH   9  11
ENDBRANCH   1   8
BRANCH   4  21
ATOM     21  C   UNL     1      44.900   4.507  11.473  0.00  0.00    +0.000 C 
BRANCH  21  22
ATOM     22  N   UNL     1      44.853   3.075  11.176  0.00  0.00    +0.000 NA
ATOM     23  H   UNL     1      44.303   2.611  11.898  0.00  0.00    +0.000 HD
BRANCH  22  24
ATOM     24  C   UNL     1      44.240   2.844   9.867  0.00  0.00    +0.000 C 
BRANCH  24  25
ATOM     25  C   UNL     1      45.264   2.793   8.780  0.00  0.00    +0.000 A 
ATOM     26  C   UNL     1      45.610   3.904   8.033  0.00  0.00    +0.000 A 
ATOM     27  N   UNL     1      46.533   3.894   7.051  0.00  0.00    +0.000 NA
ATOM     28  C   UNL     1      47.132   2.712   6.830  0.00  0.00    +0.000 A 
ATOM     29  N   UNL     1      46.896   1.572   7.494  0.00  0.00    +0.000 NA
ATOM     30  C   UNL     1      45.960   1.642   8.462  0.00  0.00    +0.000 A 
ENDBRANCH  24  25
ENDBRANCH  22  24
ENDBRANCH  21  22
ENDBRANCH   4  21
TORSDOF 9
ENDMDL
MODEL 7
REMARK VINA RESULT:    -6.600      2.985      8.559
REMARK INTER + INTRA:         -10.728
REMARK INTER:                  -9.603
REMARK INTRA:                  -1.125
REMARK UNBOUND:                -0.848
REMARK  Name = 
REMARK  9 active torsions:
REMARK  status: ('A' for Active; 'I' for Inactive)
REMARK    1  A    between atoms: C_2  and  C_13
REMARK    2  A    between atoms: N_3  and  CA_4
REMARK    3  A    between atoms: CA_4  and  C_5
REMARK    4  A    between atoms: CA_4  and  C_7
REMARK    5  A    between atoms: C_5  and  O_6
REMARK    6  A    between atoms: C_16  and  C_17
REMARK    7  A    between atoms: C_17  and  N_18
REMARK    8  A    between atoms: N_18  and  C_19
REMARK    9  A    between atoms: C_19  and  C_20
REMARK                            x       y       z     vdW  Elec       q    Type
REMARK                         _______ _______ _______ _____ _____    ______ ____
ROOT
ATOM      1  C   UNL     1      47.059   7.530  12.709  0.00  0.00    +0.000 A 
ATOM      2  C   UNL     1      48.284   6.930  12.395  0.00  0.00    +0.000 A 
ATOM      3  C   UNL     1      49.440   7.280  13.103  0.00  0.00    +0.000 A 
ATOM      4  C   UNL     1      49.381   8.222  14.140  0.00  0.00    +0.000 A 
ATOM      5  C   UNL     1      48.153   8.830  14.436  0.00  0.00    +0.000 A 
ATOM      6  C   UNL     1      46.998   8.485  13.728  0.00  0.00    +0.000 A 
ENDROOT
BRANCH   1   8
ATOM      7  O   UNL     1      45.106   7.908  11.450  0.00  0.00    +0.000 OA
ATOM      8  C   UNL     1      45.833   7.083  11.987  0.00  0.00    +0.000 C 
ATOM      9  N   UNL     1      45.578   5.731  11.998  0.00  0.00    +0.000 N 
ATOM     10  H   UNL     1      46.079   5.123  12.628  0.00  0.00    +0.000 HD
BRANCH   9  11
ATOM     11  CA  UNL     1      44.363   5.204  11.390  0.00  0.00    +0.000 C 
BRANCH  11  12
ATOM     12  C   UNL     1      44.694   4.256  10.246  0.00  0.00    +0.000 A 
ATOM     13  C   UNL     1      45.394   4.733   9.125  0.00  0.00    +0.000 A 
ATOM     14  C   UNL     1      45.633   3.904   8.025  0.00  0.00    +0.000 A 
ATOM     15  C   UNL     1      45.188   2.585   8.034  0.00  0.00    +0.000 A 
ATOM     16  C   UNL     1      44.534   2.083   9.156  0.00  0.00    +0.000 A 
ATOM     17  C   UNL     1      44.298   2.909  10.257  0.00  0.00    +0.000 A 
ENDBRANCH  11  12
BRANCH  11  18
ATOM     18  C   UNL     1      43.413   4.586  12.449  0.00  0.00    +0.000 C 
BRANCH  18  19
ATOM     19  O   UNL     1      42.851   5.563  13.333  0.00  0.00    +0.000 OA
ATOM     20  H   UNL     1      42.771   5.143  14.207  0.00  0.00    +0.000 HD
ENDBRANCH  18  19
ENDBRANCH  11  18
ENDBRANCH   9  11
ENDBRANCH   1   8
BRANCH   4  21
ATOM     21  C   UNL     1      50.598   8.517  14.988  0.00  0.00    +0.000 C 
BRANCH  21  22
ATOM     22  N   UNL     1      51.360   7.308  15.302  0.00  0.00    +0.000 NA
ATOM     23  H   UNL     1      52.334   7.460  15.040  0.00  0.00    +0.000 HD
BRANCH  22  24
ATOM     24  C   UNL     1      51.279   7.009  16.733  0.00  0.00    +0.000 C 
BRANCH  24  25
ATOM     25  C   UNL     1      50.541   5.734  16.988  0.00  0.00    +0.000 A 
ATOM     26  C   UNL     1      51.169   4.590  17.442  0.00  0.00    +0.000 A 
ATOM     27  N   UNL     1      50.533   3.428  17.689  0.00  0.00    +0.000 NA
ATOM     28  C   UNL     1      49.207   3.437  17.475  0.00  0.00    +0.000 A 
ATOM     29  N   UNL     1      48.482   4.482  17.051  0.00  0.00    +0.000 NA
ATOM     30  C   UNL     1      49.175   5.616  16.817  0.00  0.00    +0.000 A 
ENDBRANCH  24  25
ENDBRANCH  22  24
ENDBRANCH  21  22
ENDBRANCH   4  21
TORSDOF 9
ENDMDL
MODEL 8
REMARK VINA RESULT:    -6.546      3.763      5.116
REMARK INTER + INTRA:         -10.647
REMARK INTER:                  -9.793
REMARK INTRA:                  -0.855
REMARK UNBOUND:                -0.848
REMARK  Name = 
REMARK  9 active torsions:
REMARK  status: ('A' for Active; 'I' for Inactive)
REMARK    1  A    between atoms: C_2  and  C_13
REMARK    2  A    between atoms: N_3  and  CA_4
REMARK    3  A    between atoms: CA_4  and  C_5
REMARK    4  A    between atoms: CA_4  and  C_7
REMARK    5  A    between atoms: C_5  and  O_6
REMARK    6  A    between atoms: C_16  and  C_17
REMARK    7  A    between atoms: C_17  and  N_18
REMARK    8  A    between atoms: N_18  and  C_19
REMARK    9  A    between atoms: C_19  and  C_20
REMARK                            x       y       z     vdW  Elec       q    Type
REMARK                         _______ _______ _______ _____ _____    ______ ____
ROOT
ATOM      1  C   UNL     1      46.331   6.351  13.052  0.00  0.00    +0.000 A 
ATOM      2  C   UNL     1      46.599   4.988  13.221  0.00  0.00    +0.000 A 
ATOM      3  C   UNL     1      45.622   4.034  12.908  0.00  0.00    +0.000 A 
ATOM      4  C   UNL     1      44.373   4.434  12.413  0.00  0.00    +0.000 A 
ATOM      5  C   UNL     1      44.107   5.802  12.264  0.00  0.00    +0.000 A 
ATOM      6  C   UNL     1      45.079   6.756  12.578  0.00  0.00    +0.000 A 
ENDROOT
BRANCH   1   8
ATOM      7  O   UNL     1      48.036   7.288  14.378  0.00  0.00    +0.000 OA
ATOM      8  C   UNL     1      47.417   7.336  13.323  0.00  0.00    +0.000 C 
ATOM      9  N   UNL     1      47.639   8.282  12.349  0.00  0.00    +0.000 N 
ATOM     10  H   UNL     1      46.970   8.415  11.606  0.00  0.00    +0.000 HD
BRANCH   9  11
ATOM     11  CA  UNL     1      48.622   9.337  12.555  0.00  0.00    +0.000 C 
BRANCH  11  12
ATOM     12  C   UNL     1      49.898   9.052  11.776  0.00  0.00    +0.000 A 
ATOM     13  C   UNL     1      50.709  10.117  11.349  0.00  0.00    +0.000 A 
ATOM     14  C   UNL     1      51.838   9.885  10.559  0.00  0.00    +0.000 A 
ATOM     15  C   UNL     1      52.180   8.586  10.193  0.00  0.00    +0.000 A 
ATOM     16  C   UNL     1      51.414   7.515  10.646  0.00  0.00    +0.000 A 
ATOM     17  C   UNL     1      50.288   7.745  11.439  0.00  0.00    +0.000 A 
ENDBRANCH  11  12
BRANCH  11  18
ATOM     18  C   UNL     1      48.026  10.741  12.272  0.00  0.00    +0.000 C 
BRANCH  18  19
ATOM     19  O   UNL     1      48.051  11.600  13.417  0.00  0.00    +0.000 OA
ATOM     20  H   UNL     1      47.518  11.169  14.107  0.00  0.00    +0.000 HD
ENDBRANCH  18  19
ENDBRANCH  11  18
ENDBRANCH   9  11
ENDBRANCH   1   8
BRANCH   4  21
ATOM     21  C   UNL     1      43.356   3.410  11.960  0.00  0.00    +0.000 C 
BRANCH  21  22
ATOM     22  N   UNL     1      43.827   2.632  10.814  0.00  0.00    +0.000 NA
ATOM     23  H   UNL     1      43.102   1.963  10.555  0.00  0.00    +0.000 HD
BRANCH  22  24
ATOM     24  C   UNL     1      44.108   3.513   9.679  0.00  0.00    +0.000 C 
BRANCH  24  25
ATOM     25  C   UNL     1      45.189   2.959   8.807  0.00  0.00    +0.000 A 
ATOM     26  C   UNL     1      45.510   1.615   8.785  0.00  0.00    +0.000 A 
ATOM     27  N   UNL     1      46.472   1.083   8.006  0.00  0.00    +0.000 NA
ATOM     28  C   UNL     1      47.124   1.951   7.215  0.00  0.00    +0.000 A 
ATOM     29  N   UNL     1      46.897   3.269   7.135  0.00  0.00    +0.000 NA
ATOM     30  C   UNL     1      45.925   3.744   7.940  0.00  0.00    +0.000 A 
ENDBRANCH  24  25
ENDBRANCH  22  24
ENDBRANCH  21  22
ENDBRANCH   4  21
TORSDOF 9
ENDMDL
MODEL 9
REMARK VINA RESULT:    -6.527      4.071      4.945
REMARK INTER + INTRA:         -10.618
REMARK INTER:                  -9.484
REMARK INTRA:                  -1.134
REMARK UNBOUND:                -0.848
REMARK  Name = 
REMARK  9 active torsions:
REMARK  status: ('A' for Active; 'I' for Inactive)
REMARK    1  A    between atoms: C_2  and  C_13
REMARK    2  A    between atoms: N_3  and  CA_4
REMARK    3  A    between atoms: CA_4  and  C_5
REMARK    4  A    between atoms: CA_4  and  C_7
REMARK    5  A    between atoms: C_5  and  O_6
REMARK    6  A    between atoms: C_16  and  C_17
REMARK    7  A    between atoms: C_17  and  N_18
REMARK    8  A    between atoms: N_18  and  C_19
REMARK    9  A    between atoms: C_19  and  C_20
REMARK                            x       y       z     vdW  Elec       q    Type
REMARK                         _______ _______ _______ _____ _____    ______ ____
ROOT
ATOM      1  C   UNL     1      47.318   6.668  12.896  0.00  0.00    +0.000 A 
ATOM      2  C   UNL     1      46.705   5.528  13.427  0.00  0.00    +0.000 A 
ATOM      3  C   UNL     1      45.432   5.142  12.987  0.00  0.00    +0.000 A 
ATOM      4  C   UNL     1      44.766   5.886  12.003  0.00  0.00    +0.000 A 
ATOM      5  C   UNL     1      45.380   7.037  11.489  0.00  0.00    +0.000 A 
ATOM      6  C   UNL     1      46.648   7.425  11.929  0.00  0.00    +0.000 A 
ENDROOT
BRANCH   1   8
ATOM      7  O   UNL     1      49.168   6.497  14.340  0.00  0.00    +0.000 OA
ATOM      8  C   UNL     1      48.702   7.010  13.331  0.00  0.00    +0.000 C 
ATOM      9  N   UNL     1      49.374   7.929  12.560  0.00  0.00    +0.000 N 
ATOM     10  H   UNL     1      48.879   8.479  11.874  0.00  0.00    +0.000 HD
BRANCH   9  11
ATOM     11  CA  UNL     1      50.701   8.389  12.948  0.00  0.00    +0.000 C 
BRANCH  11  12
ATOM     12  C   UNL     1      51.690   8.227  11.802  0.00  0.00    +0.000 A 
ATOM     13  C   UNL     1      51.307   7.534  10.641  0.00  0.00    +0.000 A 
ATOM     14  C   UNL     1      52.223   7.298   9.613  0.00  0.00    +0.000 A 
ATOM     15  C   UNL     1      53.532   7.761   9.723  0.00  0.00    +0.000 A 
ATOM     16  C   UNL     1      53.916   8.490  10.846  0.00  0.00    +0.000 A 
ATOM     17  C   UNL     1      53.000   8.729  11.871  0.00  0.00    +0.000 A 
ENDBRANCH  11  12
BRANCH  11  18
ATOM     18  C   UNL     1      50.663   9.825  13.533  0.00  0.00    +0.000 C 
BRANCH  18  19
ATOM     19  O   UNL     1      50.258  10.808  12.574  0.00  0.00    +0.000 OA
ATOM     20  H   UNL     1      50.417  10.428  11.693  0.00  0.00    +0.000 HD
ENDBRANCH  18  19
ENDBRANCH  11  18
ENDBRANCH   9  11
ENDBRANCH   1   8
BRANCH   4  21
ATOM     21  C   UNL     1      43.447   5.412  11.435  0.00  0.00    +0.000 C 
BRANCH  21  22
ATOM     22  N   UNL     1      43.575   4.943  10.055  0.00  0.00    +0.000 NA
ATOM     23  H   UNL     1      44.263   5.523   9.576  0.00  0.00    +0.000 HD
BRANCH  22  24
ATOM     24  C   UNL     1      44.010   3.545  10.029  0.00  0.00    +0.000 C 
BRANCH  24  25
ATOM     25  C   UNL     1      45.079   3.320   9.008  0.00  0.00    +0.000 A 
ATOM     26  C   UNL     1      45.668   4.356   8.309  0.00  0.00    +0.000 A 
ATOM     27  N   UNL     1      46.638   4.189   7.389  0.00  0.00    +0.000 NA
ATOM     28  C   UNL     1      47.029   2.921   7.182  0.00  0.00    +0.000 A 
ATOM     29  N   UNL     1      46.548   1.836   7.805  0.00  0.00    +0.000 NA
ATOM     30  C   UNL     1      45.577   2.065   8.712  0.00  0.00    +0.000 A 
ENDBRANCH  24  25
ENDBRANCH  22  24
ENDBRANCH  21  22
ENDBRANCH   4  21
TORSDOF 9
ENDMDL
