MODEL 1
REMARK VINA RESULT:    -6.935      0.000      0.000
REMARK INTER + INTRA:         -10.778
REMARK INTER:                  -9.773
REMARK INTRA:                  -1.005
REMARK UNBOUND:                -1.005
REMARK  Name = 
REMARK  7 active torsions:
REMARK  status: ('A' for Active; 'I' for Inactive)
REMARK    1  A    between atoms: C_2  and  C_20
REMARK    2  A    between atoms: N_3  and  C_4
REMARK    3  A    between atoms: C_4  and  C_5
REMARK    4  A    between atoms: C_8  and  O_9
REMARK    5  A    between atoms: O_9  and  C_10
REMARK    6  A    between atoms: C_10  and  C_11
REMARK    7  A    between atoms: C_11  and  N_12
REMARK                            x       y       z     vdW  Elec       q    Type
REMARK                         _______ _______ _______ _____ _____    ______ ____
ROOT
ATOM      1  C   UNL     1      46.355   7.875  12.795  0.00  0.00    +0.000 C 
ENDROOT
BRANCH   1   2
ATOM      2  C   UNL     1      45.621   6.779  12.054  0.00  0.00    +0.000 A 
ATOM      3  C   UNL     1      44.262   6.910  11.775  0.00  0.00    +0.000 A 
ATOM      4  C   UNL     1      43.620   5.914  11.038  0.00  0.00    +0.000 A 
ATOM      5  C   UNL     1      44.352   4.832  10.552  0.00  0.00    +0.000 A 
ATOM      6  C   UNL     1      45.694   4.771  10.898  0.00  0.00    +0.000 A 
ATOM      7  N   UNL     1      46.344   5.718  11.620  0.00  0.00    +0.000 NA
BRANCH   5   8
ATOM      8  O   UNL     1      43.870   3.834   9.745  0.00  0.00    +0.000 OA
BRANCH   8   9
ATOM      9  C   UNL     1      44.761   2.724   9.589  0.00  0.00    +0.000 C 
BRANCH   9  10
ATOM     10  C   UNL     1      45.141   2.516   8.110  0.00  0.00    +0.000 C 
BRANCH  10  11
ATOM     11  N   UNL     1      46.589   2.371   7.891  0.00  0.00    +0.000 NA
ATOM     12  C   UNL     1      47.116   3.338   6.907  0.00  0.00    +0.000 C 
ATOM     13  C   UNL     1      47.050   2.857   5.449  0.00  0.00    +0.000 C 
ATOM     14  O   UNL     1      47.761   1.624   5.296  0.00  0.00    +0.000 OA
ATOM     15  C   UNL     1      47.158   0.612   6.104  0.00  0.00    +0.000 C 
ATOM     16  C   UNL     1      47.089   1.016   7.588  0.00  0.00    +0.000 C 
ENDBRANCH  10  11
ENDBRANCH   9  10
ENDBRANCH   8   9
ENDBRANCH   5   8
ENDBRANCH   1   2
BRANCH   1  19
ATOM     17  O   UNL     1      49.048   7.180  13.153  0.00  0.00    +0.000 OA
ATOM     18  C   UNL     1      48.264   7.001  14.075  0.00  0.00    +0.000 C 
ATOM     19  N   UNL     1      46.949   7.384  14.013  0.00  0.00    +0.000 N 
ATOM     20  H   UNL     1      46.323   7.187  14.784  0.00  0.00    +0.000 HD
BRANCH  18  21
ATOM     21  C   UNL     1      48.685   6.425  15.356  0.00  0.00    +0.000 A 
ATOM     22  C   UNL     1      49.742   6.975  16.065  0.00  0.00    +0.000 A 
ATOM     23  S   UNL     1      50.044   6.191  17.552  0.00  0.00    +0.000 S 
ATOM     24  C   UNL     1      48.802   5.061  17.272  0.00  0.00    +0.000 A 
ATOM     25  N   UNL     1      48.519   4.088  18.178  0.00  0.00    +0.000 NA
ATOM     26  C   UNL     1      47.578   3.278  17.817  0.00  0.00    +0.000 A 
ATOM     27  N   UNL     1      46.900   3.350  16.627  0.00  0.00    +0.000 N 
ATOM     28  C   UNL     1      47.144   4.320  15.686  0.00  0.00    +0.000 A 
ATOM     29  O   UNL     1      46.508   4.358  14.635  0.00  0.00    +0.000 OA
ATOM     30  C   UNL     1      48.175   5.270  16.056  0.00  0.00    +0.000 A 
ATOM     31  H   UNL     1      46.179   2.682  16.402  0.00  0.00    +0.000 HD
ENDBRANCH  18  21
ENDBRANCH   1  19
TORSDOF 7
ENDMDL
MODEL 2
REMARK VINA RESULT:    -6.869      2.835      8.165
REMARK INTER + INTRA:         -10.684
REMARK INTER:                  -9.327
REMARK INTRA:                  -1.357
REMARK UNBOUND:                -1.005
REMARK  Name = 
REMARK  7 active torsions:
REMARK  status: ('A' for Active; 'I' for Inactive)
REMARK    1  A    between atoms: C_2  and  C_20
REMARK    2  A    between atoms: N_3  and  C_4
REMARK    3  A    between atoms: C_4  and  C_5
REMARK    4  A    between atoms: C_8  and  O_9
REMARK    5  A    between atoms: O_9  and  C_10
REMARK    6  A    between atoms: C_10  and  C_11
REMARK    7  A    between atoms: C_11  and  N_12
REMARK                            x       y       z     vdW  Elec       q    Type
REMARK                         _______ _______ _______ _____ _____    ______ ____
ROOT
ATOM      1  C   UNL     1      47.933   7.807  12.000  0.00  0.00    +0.000 C 
ENDROOT
BRANCH   1   2
ATOM      2  C   UNL     1      48.398   7.888  13.437  0.00  0.00    +0.000 A 
ATOM      3  C   UNL     1      47.982   8.940  14.251  0.00  0.00    +0.000 A 
ATOM      4  C   UNL     1      48.375   8.961  15.590  0.00  0.00    +0.000 A 
ATOM      5  C   UNL     1      49.134   7.911  16.105  0.00  0.00    +0.000 A 
ATOM      6  C   UNL     1      49.523   6.918  15.217  0.00  0.00    +0.000 A 
ATOM      7  N   UNL     1      49.165   6.875  13.909  0.00  0.00    +0.000 NA
BRANCH   5   8
ATOM      8  O   UNL     1      49.512   7.760  17.414  0.00  0.00    +0.000 OA
BRANCH   8   9
ATOM      9  C   UNL     1      48.567   7.044  18.218  0.00  0.00    +0.000 C 
BRANCH   9  10
ATOM     10  C   UNL     1      49.131   5.681  18.663  0.00  0.00    +0.000 C 
BRANCH  10  11
ATOM     11  N   UNL     1      48.139   4.595  18.629  0.00  0.00    +0.000 NA
ATOM     12  C   UNL     1      48.759   3.259  18.511  0.00  0.00    +0.000 C 
ATOM     13  C   UNL     1      49.012   2.805  17.065  0.00  0.00    +0.000 C 
ATOM     14  O   UNL     1      47.790   2.801  16.320  0.00  0.00    +0.000 OA
ATOM     15  C   UNL     1      47.255   4.124  16.261  0.00  0.00    +0.000 C 
ATOM     16  C   UNL     1      47.033   4.727  17.660  0.00  0.00    +0.000 C 
ENDBRANCH  10  11
ENDBRANCH   9  10
ENDBRANCH   8   9
ENDBRANCH   5   8
ENDBRANCH   1   2
BRANCH   1  19
ATOM     17  O   UNL     1      45.132   7.672  12.031  0.00  0.00    +0.000 OA
ATOM     18  C   UNL     1      45.772   6.640  11.873  0.00  0.00    +0.000 C 
ATOM     19  N   UNL     1      47.139   6.626  11.767  0.00  0.00    +0.000 N 
ATOM     20  H   UNL     1      47.635   5.749  11.672  0.00  0.00    +0.000 HD
BRANCH  18  21
ATOM     21  C   UNL     1      45.122   5.336  11.710  0.00  0.00    +0.000 A 
ATOM     22  C   UNL     1      44.508   4.714  12.786  0.00  0.00    +0.000 A 
ATOM     23  S   UNL     1      43.768   3.228  12.379  0.00  0.00    +0.000 S 
ATOM     24  C   UNL     1      44.287   3.349  10.763  0.00  0.00    +0.000 A 
ATOM     25  N   UNL     1      43.981   2.386   9.852  0.00  0.00    +0.000 NA
ATOM     26  C   UNL     1      44.472   2.591   8.674  0.00  0.00    +0.000 A 
ATOM     27  N   UNL     1      45.248   3.666   8.326  0.00  0.00    +0.000 N 
ATOM     28  C   UNL     1      45.575   4.667   9.208  0.00  0.00    +0.000 A 
ATOM     29  O   UNL     1      46.265   5.622   8.856  0.00  0.00    +0.000 OA
ATOM     30  C   UNL     1      45.025   4.498  10.539  0.00  0.00    +0.000 A 
ATOM     31  H   UNL     1      45.606   3.763   7.388  0.00  0.00    +0.000 HD
ENDBRANCH  18  21
ENDBRANCH   1  19
TORSDOF 7
ENDMDL
MODEL 3
REMARK VINA RESULT:    -6.552      1.949      2.622
REMARK INTER + INTRA:         -10.239
REMARK INTER:                  -9.563
REMARK INTRA:                  -0.675
REMARK UNBOUND:                -1.005
REMARK  Name = 
REMARK  7 active torsions:
REMARK  status: ('A' for Active; 'I' for Inactive)
REMARK    1  A    between atoms: C_2  and  C_20
REMARK    2  A    between atoms: N_3  and  C_4
REMARK    3  A    between atoms: C_4  and  C_5
REMARK    4  A    between atoms: C_8  and  O_9
REMARK    5  A    between atoms: O_9  and  C_10
REMARK    6  A    between atoms: C_10  and  C_11
REMARK    7  A    between atoms: C_11  and  N_12
REMARK                            x       y       z     vdW  Elec       q    Type
REMARK                         _______ _______ _______ _____ _____    ______ ____
ROOT
ATOM      1  C   UNL     1      48.056   7.477  13.448  0.00  0.00    +0.000 C 
ENDROOT
BRANCH   1   2
ATOM      2  C   UNL     1      46.894   6.655  12.935  0.00  0.00    +0.000 A 
ATOM      3  C   UNL     1      46.418   5.575  13.676  0.00  0.00    +0.000 A 
ATOM      4  C   UNL     1      45.306   4.869  13.212  0.00  0.00    +0.000 A 
ATOM      5  C   UNL     1      44.661   5.281  12.048  0.00  0.00    +0.000 A 
ATOM      6  C   UNL     1      45.217   6.352  11.362  0.00  0.00    +0.000 A 
ATOM      7  N   UNL     1      46.302   7.052  11.782  0.00  0.00    +0.000 NA
BRANCH   5   8
ATOM      8  O   UNL     1      43.514   4.738  11.530  0.00  0.00    +0.000 OA
BRANCH   8   9
ATOM      9  C   UNL     1      43.539   3.311  11.419  0.00  0.00    +0.000 C 
BRANCH   9  10
ATOM     10  C   UNL     1      44.746   2.835  10.587  0.00  0.00    +0.000 C 
BRANCH  10  11
ATOM     11  N   UNL     1      44.457   2.714   9.150  0.00  0.00    +0.000 NA
ATOM     12  C   UNL     1      44.988   1.466   8.564  0.00  0.00    +0.000 C 
ATOM     13  C   UNL     1      46.436   1.571   8.060  0.00  0.00    +0.000 C 
ATOM     14  O   UNL     1      46.553   2.612   7.085  0.00  0.00    +0.000 OA
ATOM     15  C   UNL     1      46.218   3.869   7.675  0.00  0.00    +0.000 C 
ATOM     16  C   UNL     1      44.809   3.865   8.295  0.00  0.00    +0.000 C 
ENDBRANCH  10  11
ENDBRANCH   9  10
ENDBRANCH   8   9
ENDBRANCH   5   8
ENDBRANCH   1   2
BRANCH   1  19
ATOM     17  O   UNL     1      50.122   6.614  15.136  0.00  0.00    +0.000 OA
ATOM     18  C   UNL     1      49.086   7.034  15.636  0.00  0.00    +0.000 C 
ATOM     19  N   UNL     1      48.059   7.548  14.888  0.00  0.00    +0.000 N 
ATOM     20  H   UNL     1      47.204   7.854  15.336  0.00  0.00    +0.000 HD
BRANCH  18  21
ATOM     21  C   UNL     1      48.888   7.091  17.088  0.00  0.00    +0.000 A 
ATOM     22  C   UNL     1      48.654   8.300  17.723  0.00  0.00    +0.000 A 
ATOM     23  S   UNL     1      48.402   8.147  19.406  0.00  0.00    +0.000 S 
ATOM     24  C   UNL     1      48.647   6.464  19.344  0.00  0.00    +0.000 A 
ATOM     25  N   UNL     1      48.566   5.700  20.467  0.00  0.00    +0.000 NA
ATOM     26  C   UNL     1      48.812   4.445  20.278  0.00  0.00    +0.000 A 
ATOM     27  N   UNL     1      49.139   3.886  19.070  0.00  0.00    +0.000 N 
ATOM     28  C   UNL     1      49.223   4.615  17.908  0.00  0.00    +0.000 A 
ATOM     29  O   UNL     1      49.510   4.076  16.841  0.00  0.00    +0.000 OA
ATOM     30  C   UNL     1      48.930   6.027  18.063  0.00  0.00    +0.000 A 
ATOM     31  H   UNL     1      49.326   2.898  18.991  0.00  0.00    +0.000 HD
ENDBRANCH  18  21
ENDBRANCH   1  19
TORSDOF 7
ENDMDL
MODEL 4
REMARK VINA RESULT:    -6.551      3.379      5.436
REMARK INTER + INTRA:         -10.237
REMARK INTER:                  -9.660
REMARK INTRA:                  -0.577
REMARK UNBOUND:                -1.005
REMARK  Name = 
REMARK  7 active torsions:
REMARK  status: ('A' for Active; 'I' for Inactive)
REMARK    1  A    between atoms: C_2  and  C_20
REMARK    2  A    between atoms: N_3  and  C_4
REMARK    3  A    between atoms: C_4  and  C_5
REMARK    4  A    between atoms: C_8  and  O_9
REMARK    5  A    between atoms: O_9  and  C_10
REMARK    6  A    between atoms: C_10  and  C_11
REMARK    7  A    between atoms: C_11  and  N_12
REMARK                            x       y       z     vdW  Elec       q    Type
REMARK                         _______ _______ _______ _____ _____    ______ ____
ROOT
ATOM      1  C   UNL     1      47.896   4.267  16.873  0.00  0.00    +0.000 C 
ENDROOT
BRANCH   1   2
ATOM      2  C   UNL     1      47.678   4.821  15.483  0.00  0.00    +0.000 A 
ATOM      3  C   UNL     1      46.771   4.212  14.618  0.00  0.00    +0.000 A 
ATOM      4  C   UNL     1      46.542   4.776  13.362  0.00  0.00    +0.000 A 
ATOM      5  C   UNL     1      47.183   5.962  13.010  0.00  0.00    +0.000 A 
ATOM      6  C   UNL     1      48.087   6.487  13.923  0.00  0.00    +0.000 A 
ATOM      7  N   UNL     1      48.338   5.957  15.147  0.00  0.00    +0.000 NA
BRANCH   5   8
ATOM      8  O   UNL     1      46.985   6.669  11.853  0.00  0.00    +0.000 OA
BRANCH   8   9
ATOM      9  C   UNL     1      46.005   6.099  10.978  0.00  0.00    +0.000 C 
BRANCH   9  10
ATOM     10  C   UNL     1      44.578   6.507  11.393  0.00  0.00    +0.000 C 
BRANCH  10  11
ATOM     11  N   UNL     1      43.532   5.640  10.830  0.00  0.00    +0.000 NA
ATOM     12  C   UNL     1      42.632   5.088  11.862  0.00  0.00    +0.000 C 
ATOM     13  C   UNL     1      43.113   3.766  12.480  0.00  0.00    +0.000 C 
ATOM     14  O   UNL     1      43.295   2.775  11.464  0.00  0.00    +0.000 OA
ATOM     15  C   UNL     1      44.300   3.203  10.543  0.00  0.00    +0.000 C 
ATOM     16  C   UNL     1      43.970   4.569   9.913  0.00  0.00    +0.000 C 
ENDBRANCH  10  11
ENDBRANCH   9  10
ENDBRANCH   8   9
ENDBRANCH   5   8
ENDBRANCH   1   2
BRANCH   1  19
ATOM     17  O   UNL     1      49.375   4.784  19.199  0.00  0.00    +0.000 OA
ATOM     18  C   UNL     1      49.940   4.277  18.239  0.00  0.00    +0.000 C 
ATOM     19  N   UNL     1      49.278   3.920  17.094  0.00  0.00    +0.000 N 
ATOM     20  H   UNL     1      49.787   3.534  16.307  0.00  0.00    +0.000 HD
BRANCH  18  21
ATOM     21  C   UNL     1      51.368   3.941  18.263  0.00  0.00    +0.000 A 
ATOM     22  C   UNL     1      52.308   4.881  18.654  0.00  0.00    +0.000 A 
ATOM     23  S   UNL     1      53.908   4.280  18.660  0.00  0.00    +0.000 S 
ATOM     24  C   UNL     1      53.397   2.759  18.094  0.00  0.00    +0.000 A 
ATOM     25  N   UNL     1      54.286   1.753  17.881  0.00  0.00    +0.000 NA
ATOM     26  C   UNL     1      53.763   0.667  17.414  0.00  0.00    +0.000 A 
ATOM     27  N   UNL     1      52.431   0.498  17.134  0.00  0.00    +0.000 N 
ATOM     28  C   UNL     1      51.495   1.482  17.342  0.00  0.00    +0.000 A 
ATOM     29  O   UNL     1      50.308   1.290  17.088  0.00  0.00    +0.000 OA
ATOM     30  C   UNL     1      52.029   2.713  17.890  0.00  0.00    +0.000 A 
ATOM     31  H   UNL     1      52.087  -0.375  16.765  0.00  0.00    +0.000 HD
ENDBRANCH  18  21
ENDBRANCH   1  19
TORSDOF 7
ENDMDL
MODEL 5
REMARK VINA RESULT:    -6.466      4.243      9.412
REMARK INTER + INTRA:         -10.116
REMARK INTER:                  -8.928
REMARK INTRA:                  -1.188
REMARK UNBOUND:                -1.005
REMARK  Name = 
REMARK  7 active torsions:
REMARK  status: ('A' for Active; 'I' for Inactive)
REMARK    1  A    between atoms: C_2  and  C_20
REMARK    2  A    between atoms: N_3  and  C_4
REMARK    3  A    between atoms: C_4  and  C_5
REMARK    4  A    between atoms: C_8  and  O_9
REMARK    5  A    between atoms: O_9  and  C_10
REMARK    6  A    between atoms: C_10  and  C_11
REMARK    7  A    between atoms: C_11  and  N_12
REMARK                            x       y       z     vdW  Elec       q    Type
REMARK                         _______ _______ _______ _____ _____    ______ ____
ROOT
ATOM      1  C   UNL     1      47.288   3.518  16.536  0.00  0.00    +0.000 C 
ENDROOT
BRANCH   1   2
ATOM      2  C   UNL     1      47.660   4.227  17.819  0.00  0.00    +0.000 A 
ATOM      3  C   UNL     1      48.895   3.992  18.419  0.00  0.00    +0.000 A 
ATOM      4  C   UNL     1      49.241   4.703  19.569  0.00  0.00    +0.000 A 
ATOM      5  C   UNL     1      48.371   5.669  20.072  0.00  0.00    +0.000 A 
ATOM      6  C   UNL     1      47.153   5.821  19.425  0.00  0.00    +0.000 A 
ATOM      7  N   UNL     1      46.785   5.139  18.311  0.00  0.00    +0.000 NA
BRANCH   5   8
ATOM      8  O   UNL     1      48.621   6.498  21.134  0.00  0.00    +0.000 OA
BRANCH   8   9
ATOM      9  C   UNL     1      49.717   7.397  20.932  0.00  0.00    +0.000 C 
BRANCH   9  10
ATOM     10  C   UNL     1      49.224   8.802  20.535  0.00  0.00    +0.000 C 
BRANCH  10  11
ATOM     11  N   UNL     1      49.815   9.299  19.283  0.00  0.00    +0.000 NA
ATOM     12  C   UNL     1      49.035  10.402  18.684  0.00  0.00    +0.000 C 
ATOM     13  C   UNL     1      47.915   9.943  17.738  0.00  0.00    +0.000 C 
ATOM     14  O   UNL     1      48.449   9.141  16.680  0.00  0.00    +0.000 OA
ATOM     15  C   UNL     1      49.055   7.966  17.220  0.00  0.00    +0.000 C 
ATOM     16  C   UNL     1      50.148   8.296  18.253  0.00  0.00    +0.000 C 
ENDBRANCH  10  11
ENDBRANCH   9  10
ENDBRANCH   8   9
ENDBRANCH   5   8
ENDBRANCH   1   2
BRANCH   1  19
ATOM     17  O   UNL     1      47.138   3.147  13.760  0.00  0.00    +0.000 OA
ATOM     18  C   UNL     1      46.711   4.189  14.242  0.00  0.00    +0.000 C 
ATOM     19  N   UNL     1      46.674   4.419  15.592  0.00  0.00    +0.000 N 
ATOM     20  H   UNL     1      46.346   5.307  15.951  0.00  0.00    +0.000 HD
BRANCH  18  21
ATOM     21  C   UNL     1      46.134   5.252  13.413  0.00  0.00    +0.000 A 
ATOM     22  C   UNL     1      46.839   6.420  13.170  0.00  0.00    +0.000 A 
ATOM     23  S   UNL     1      46.015   7.510  12.144  0.00  0.00    +0.000 S 
ATOM     24  C   UNL     1      44.670   6.474  12.032  0.00  0.00    +0.000 A 
ATOM     25  N   UNL     1      43.584   6.810  11.285  0.00  0.00    +0.000 NA
ATOM     26  C   UNL     1      42.623   5.946  11.322  0.00  0.00    +0.000 A 
ATOM     27  N   UNL     1      42.645   4.782  12.045  0.00  0.00    +0.000 N 
ATOM     28  C   UNL     1      43.723   4.396  12.806  0.00  0.00    +0.000 A 
ATOM     29  O   UNL     1      43.710   3.339  13.433  0.00  0.00    +0.000 OA
ATOM     30  C   UNL     1      44.840   5.320  12.776  0.00  0.00    +0.000 A 
ATOM     31  H   UNL     1      41.857   4.152  12.036  0.00  0.00    +0.000 HD
ENDBRANCH  18  21
ENDBRANCH   1  19
TORSDOF 7
ENDMDL
MODEL 6
REMARK VINA RESULT:    -6.211      4.086      7.862
REMARK INTER + INTRA:          -9.757
REMARK INTER:                  -8.131
REMARK INTRA:                  -1.626
REMARK UNBOUND:                -1.005
REMARK  Name = 
REMARK  7 active torsions:
REMARK  status: ('A' for Active; 'I' for Inactive)
REMARK    1  A    between atoms: C_2  and  C_20
REMARK    2  A    between atoms: N_3  and  C_4
REMARK    3  A    between atoms: C_4  and  C_5
REMARK    4  A    between atoms: C_8  and  O_9
REMARK    5  A    between atoms: O_9  and  C_10
REMARK    6  A    between atoms: C_10  and  C_11
REMARK    7  A    between atoms: C_11  and  N_12
REMARK                            x       y       z     vdW  Elec       q    Type
REMARK                         _______ _______ _______ _____ _____    ______ ____
ROOT
ATOM      1  C   UNL     1      48.298   9.072  12.695  0.00  0.00    +0.000 C 
ENDROOT
BRANCH   1   2
ATOM      2  C   UNL     1      49.056   8.656  13.936  0.00  0.00    +0.000 A 
ATOM      3  C   UNL     1      48.445   8.722  15.187  0.00  0.00    +0.000 A 
ATOM      4  C   UNL     1      49.144   8.275  16.310  0.00  0.00    +0.000 A 
ATOM      5  C   UNL     1      50.417   7.728  16.160  0.00  0.00    +0.000 A 
ATOM      6  C   UNL     1      50.957   7.723  14.882  0.00  0.00    +0.000 A 
ATOM      7  N   UNL     1      50.307   8.159  13.773  0.00  0.00    +0.000 NA
BRANCH   5   8
ATOM      8  O   UNL     1      51.174   7.173  17.159  0.00  0.00    +0.000 OA
BRANCH   8   9
ATOM      9  C   UNL     1      50.450   6.290  18.023  0.00  0.00    +0.000 C 
BRANCH   9  10
ATOM     10  C   UNL     1      50.487   4.841  17.499  0.00  0.00    +0.000 C 
BRANCH  10  11
ATOM     11  N   UNL     1      49.539   3.947  18.182  0.00  0.00    +0.000 NA
ATOM     12  C   UNL     1      49.169   2.775  17.362  0.00  0.00    +0.000 C 
ATOM     13  C   UNL     1      47.969   3.007  16.431  0.00  0.00    +0.000 C 
ATOM     14  O   UNL     1      46.821   3.410  17.184  0.00  0.00    +0.000 OA
ATOM     15  C   UNL     1      47.087   4.646  17.850  0.00  0.00    +0.000 C 
ATOM     16  C   UNL     1      48.328   4.564  18.757  0.00  0.00    +0.000 C 
ENDBRANCH  10  11
ENDBRANCH   9  10
ENDBRANCH   8   9
ENDBRANCH   5   8
ENDBRANCH   1   2
BRANCH   1  19
ATOM     17  O   UNL     1      45.526   9.101  13.120  0.00  0.00    +0.000 OA
ATOM     18  C   UNL     1      46.033   8.119  12.594  0.00  0.00    +0.000 C 
ATOM     19  N   UNL     1      47.366   8.054  12.279  0.00  0.00    +0.000 N 
ATOM     20  H   UNL     1      47.755   7.210  11.875  0.00  0.00    +0.000 HD
BRANCH  18  21
ATOM     21  C   UNL     1      45.240   6.954  12.189  0.00  0.00    +0.000 A 
ATOM     22  C   UNL     1      44.077   7.113  11.452  0.00  0.00    +0.000 A 
ATOM     23  S   UNL     1      43.326   5.634  11.040  0.00  0.00    +0.000 S 
ATOM     24  C   UNL     1      44.508   4.739  11.876  0.00  0.00    +0.000 A 
ATOM     25  N   UNL     1      44.460   3.380  11.918  0.00  0.00    +0.000 NA
ATOM     26  C   UNL     1      45.399   2.835  12.620  0.00  0.00    +0.000 A 
ATOM     27  N   UNL     1      46.376   3.525  13.290  0.00  0.00    +0.000 N 
ATOM     28  C   UNL     1      46.469   4.896  13.269  0.00  0.00    +0.000 A 
ATOM     29  O   UNL     1      47.365   5.480  13.874  0.00  0.00    +0.000 OA
ATOM     30  C   UNL     1      45.453   5.555  12.472  0.00  0.00    +0.000 A 
ATOM     31  H   UNL     1      47.078   3.039  13.827  0.00  0.00    +0.000 HD
ENDBRANCH  18  21
ENDBRANCH   1  19
TORSDOF 7
ENDMDL
MODEL 7
REMARK VINA RESULT:    -6.174      4.286     10.283
REMARK INTER + INTRA:          -9.705
REMARK INTER:                  -8.789
REMARK INTRA:                  -0.916
REMARK UNBOUND:                -1.005
REMARK  Name = 
REMARK  7 active torsions:
REMARK  status: ('A' for Active; 'I' for Inactive)
REMARK    1  A    between atoms: C_2  and  C_20
REMARK    2  A    between atoms: N_3  and  C_4
REMARK    3  A    between atoms: C_4  and  C_5
REMARK    4  A    between atoms: C_8  and  O_9
REMARK    5  A    between atoms: O_9  and  C_10
REMARK    6  A    between atoms: C_10  and  C_11
REMARK    7  A    between atoms: C_11  and  N_12
REMARK                            x       y       z     vdW  Elec       q    Type
REMARK                         _______ _______ _______ _____ _____    ______ ____
ROOT
ATOM      1  C   UNL     1      47.385   3.587  16.399  0.00  0.00    +0.000 C 
ENDROOT
BRANCH   1   2
ATOM      2  C   UNL     1      48.021   4.381  17.519  0.00  0.00    +0.000 A 
ATOM      3  C   UNL     1      48.517   3.730  18.646  0.00  0.00    +0.000 A 
ATOM      4  C   UNL     1      49.153   4.477  19.639  0.00  0.00    +0.000 A 
ATOM      5  C   UNL     1      49.326   5.849  19.468  0.00  0.00    +0.000 A 
ATOM      6  C   UNL     1      48.781   6.417  18.326  0.00  0.00    +0.000 A 
ATOM      7  N   UNL     1      48.149   5.720  17.348  0.00  0.00    +0.000 NA
BRANCH   5   8
ATOM      8  O   UNL     1      50.007   6.684  20.315  0.00  0.00    +0.000 OA
BRANCH   8   9
ATOM      9  C   UNL     1      49.751   8.076  20.098  0.00  0.00    +0.000 C 
BRANCH   9  10
ATOM     10  C   UNL     1      48.935   8.682  21.256  0.00  0.00    +0.000 C 
BRANCH  10  11
ATOM     11  N   UNL     1      47.482   8.657  21.025  0.00  0.00    +0.000 NA
ATOM     12  C   UNL     1      47.100   9.257  19.730  0.00  0.00    +0.000 C 
ATOM     13  C   UNL     1      46.864  10.774  19.780  0.00  0.00    +0.000 C 
ATOM     14  O   UNL     1      45.851  11.092  20.740  0.00  0.00    +0.000 OA
ATOM     15  C   UNL     1      46.273  10.685  22.043  0.00  0.00    +0.000 C 
ATOM     16  C   UNL     1      46.622   9.187  22.101  0.00  0.00    +0.000 C 
ENDBRANCH  10  11
ENDBRANCH   9  10
ENDBRANCH   8   9
ENDBRANCH   5   8
ENDBRANCH   1   2
BRANCH   1  19
ATOM     17  O   UNL     1      47.456   3.404  13.601  0.00  0.00    +0.000 OA
ATOM     18  C   UNL     1      46.835   4.324  14.118  0.00  0.00    +0.000 C 
ATOM     19  N   UNL     1      46.684   4.445  15.475  0.00  0.00    +0.000 N 
ATOM     20  H   UNL     1      46.193   5.239  15.866  0.00  0.00    +0.000 HD
BRANCH  18  21
ATOM     21  C   UNL     1      46.137   5.339  13.321  0.00  0.00    +0.000 A 
ATOM     22  C   UNL     1      46.748   6.547  13.024  0.00  0.00    +0.000 A 
ATOM     23  S   UNL     1      45.790   7.569  12.046  0.00  0.00    +0.000 S 
ATOM     24  C   UNL     1      44.509   6.448  12.032  0.00  0.00    +0.000 A 
ATOM     25  N   UNL     1      43.358   6.705  11.356  0.00  0.00    +0.000 NA
ATOM     26  C   UNL     1      42.459   5.782  11.464  0.00  0.00    +0.000 A 
ATOM     27  N   UNL     1      42.604   4.630  12.192  0.00  0.00    +0.000 N 
ATOM     28  C   UNL     1      43.752   4.323  12.883  0.00  0.00    +0.000 A 
ATOM     29  O   UNL     1      43.849   3.275  13.517  0.00  0.00    +0.000 OA
ATOM     30  C   UNL     1      44.802   5.316  12.772  0.00  0.00    +0.000 A 
ATOM     31  H   UNL     1      41.860   3.951  12.241  0.00  0.00    +0.000 HD
ENDBRANCH  18  21
ENDBRANCH   1  19
TORSDOF 7
ENDMDL
MODEL 8
REMARK VINA RESULT:    -6.060      4.358      6.497
REMARK INTER + INTRA:          -9.545
REMARK INTER:                  -8.618
REMARK INTRA:                  -0.927
REMARK UNBOUND:                -1.005
REMARK  Name = 
REMARK  7 active torsions:
REMARK  status: ('A' for Active; 'I' for Inactive)
REMARK    1  A    between atoms: C_2  and  C_20
REMARK    2  A    between atoms: N_3  and  C_4
REMARK    3  A    between atoms: C_4  and  C_5
REMARK    4  A    between atoms: C_8  and  O_9
REMARK    5  A    between atoms: O_9  and  C_10
REMARK    6  A    between atoms: C_10  and  C_11
REMARK    7  A    between atoms: C_11  and  N_12
REMARK                            x       y       z     vdW  Elec       q    Type
REMARK                         _______ _______ _______ _____ _____    ______ ____
ROOT
ATOM      1  C   UNL     1      47.128   3.764  14.592  0.00  0.00    +0.000 C 
ENDROOT
BRANCH   1   2
ATOM      2  C   UNL     1      46.626   4.887  13.712  0.00  0.00    +0.000 A 
ATOM      3  C   UNL     1      45.268   5.001  13.425  0.00  0.00    +0.000 A 
ATOM      4  C   UNL     1      44.821   6.080  12.661  0.00  0.00    +0.000 A 
ATOM      5  C   UNL     1      45.727   7.051  12.239  0.00  0.00    +0.000 A 
ATOM      6  C   UNL     1      47.063   6.846  12.550  0.00  0.00    +0.000 A 
ATOM      7  N   UNL     1      47.530   5.803  13.282  0.00  0.00    +0.000 NA
BRANCH   5   8
ATOM      8  O   UNL     1      45.414   8.202  11.563  0.00  0.00    +0.000 OA
BRANCH   8   9
ATOM      9  C   UNL     1      45.037   9.294  12.409  0.00  0.00    +0.000 C 
BRANCH   9  10
ATOM     10  C   UNL     1      45.349  10.649  11.745  0.00  0.00    +0.000 C 
BRANCH  10  11
ATOM     11  N   UNL     1      44.202  11.569  11.722  0.00  0.00    +0.000 NA
ATOM     12  C   UNL     1      42.930  10.887  11.405  0.00  0.00    +0.000 C 
ATOM     13  C   UNL     1      42.624  10.787   9.903  0.00  0.00    +0.000 C 
ATOM     14  O   UNL     1      42.597  12.089   9.309  0.00  0.00    +0.000 OA
ATOM     15  C   UNL     1      43.878  12.707   9.439  0.00  0.00    +0.000 C 
ATOM     16  C   UNL     1      44.338  12.792  10.906  0.00  0.00    +0.000 C 
ENDBRANCH  10  11
ENDBRANCH   9  10
ENDBRANCH   8   9
ENDBRANCH   5   8
ENDBRANCH   1   2
BRANCH   1  19
ATOM     17  O   UNL     1      46.411   3.131  17.228  0.00  0.00    +0.000 OA
ATOM     18  C   UNL     1      47.293   3.958  17.037  0.00  0.00    +0.000 C 
ATOM     19  N   UNL     1      47.759   4.269  15.786  0.00  0.00    +0.000 N 
ATOM     20  H   UNL     1      48.465   4.984  15.667  0.00  0.00    +0.000 HD
BRANCH  18  21
ATOM     21  C   UNL     1      47.978   4.636  18.143  0.00  0.00    +0.000 A 
ATOM     22  C   UNL     1      47.312   5.571  18.920  0.00  0.00    +0.000 A 
ATOM     23  S   UNL     1      48.268   6.209  20.184  0.00  0.00    +0.000 S 
ATOM     24  C   UNL     1      49.617   5.290  19.701  0.00  0.00    +0.000 A 
ATOM     25  N   UNL     1      50.795   5.363  20.376  0.00  0.00    +0.000 NA
ATOM     26  C   UNL     1      51.743   4.640  19.876  0.00  0.00    +0.000 A 
ATOM     27  N   UNL     1      51.622   3.858  18.756  0.00  0.00    +0.000 N 
ATOM     28  C   UNL     1      50.450   3.747  18.047  0.00  0.00    +0.000 A 
ATOM     29  O   UNL     1      50.377   3.027  17.053  0.00  0.00    +0.000 OA
ATOM     30  C   UNL     1      49.347   4.519  18.585  0.00  0.00    +0.000 A 
ATOM     31  H   UNL     1      52.404   3.322  18.412  0.00  0.00    +0.000 HD
ENDBRANCH  18  21
ENDBRANCH   1  19
TORSDOF 7
ENDMDL
MODEL 9
REMARK VINA RESULT:    -5.980      4.166      5.959
REMARK INTER + INTRA:          -9.431
REMARK INTER:                  -8.300
REMARK INTRA:                  -1.131
REMARK UNBOUND:                -1.005
REMARK  Name = 
REMARK  7 active torsions:
REMARK  status: ('A' for Active; 'I' for Inactive)
REMARK    1  A    between atoms: C_2  and  C_20
REMARK    2  A    between atoms: N_3  and  C_4
REMARK    3  A    between atoms: C_4  and  C_5
REMARK    4  A    between atoms: C_8  and  O_9
REMARK    5  A    between atoms: O_9  and  C_10
REMARK    6  A    between atoms: C_10  and  C_11
REMARK    7  A    between atoms: C_11  and  N_12
REMARK                            x       y       z     vdW  Elec       q    Type
REMARK                         _______ _______ _______ _____ _____    ______ ____
ROOT
ATOM      1  C   UNL     1      46.712   3.498  14.033  0.00  0.00    +0.000 C 
ENDROOT
BRANCH   1   2
ATOM      2  C   UNL     1      46.218   4.719  13.289  0.00  0.00    +0.000 A 
ATOM      3  C   UNL     1      44.853   4.992  13.218  0.00  0.00    +0.000 A 
ATOM      4  C   UNL     1      44.424   6.157  12.579  0.00  0.00    +0.000 A 
ATOM      5  C   UNL     1      45.363   7.050  12.067  0.00  0.00    +0.000 A 
ATOM      6  C   UNL     1      46.699   6.687  12.161  0.00  0.00    +0.000 A 
ATOM      7  N   UNL     1      47.146   5.558  12.768  0.00  0.00    +0.000 NA
BRANCH   5   8
ATOM      8  O   UNL     1      45.087   8.266  11.497  0.00  0.00    +0.000 OA
BRANCH   8   9
ATOM      9  C   UNL     1      45.174   9.371  12.404  0.00  0.00    +0.000 C 
BRANCH   9  10
ATOM     10  C   UNL     1      45.692  10.637  11.694  0.00  0.00    +0.000 C 
BRANCH  10  11
ATOM     11  N   UNL     1      46.965  11.135  12.238  0.00  0.00    +0.000 NA
ATOM     12  C   UNL     1      47.633  12.096  11.335  0.00  0.00    +0.000 C 
ATOM     13  C   UNL     1      48.561  11.447  10.297  0.00  0.00    +0.000 C 
ATOM     14  O   UNL     1      49.567  10.662  10.944  0.00  0.00    +0.000 OA
ATOM     15  C   UNL     1      48.956   9.604  11.685  0.00  0.00    +0.000 C 
ATOM     16  C   UNL     1      47.934  10.127  12.711  0.00  0.00    +0.000 C 
ENDBRANCH  10  11
ENDBRANCH   9  10
ENDBRANCH   8   9
ENDBRANCH   5   8
ENDBRANCH   1   2
BRANCH   1  19
ATOM     17  O   UNL     1      46.430   3.454  16.822  0.00  0.00    +0.000 OA
ATOM     18  C   UNL     1      47.481   3.858  16.341  0.00  0.00    +0.000 C 
ATOM     19  N   UNL     1      47.732   3.841  14.993  0.00  0.00    +0.000 N 
ATOM     20  H   UNL     1      48.600   4.216  14.630  0.00  0.00    +0.000 HD
BRANCH  18  21
ATOM     21  C   UNL     1      48.591   4.330  17.175  0.00  0.00    +0.000 A 
ATOM     22  C   UNL     1      48.546   5.581  17.769  0.00  0.00    +0.000 A 
ATOM     23  S   UNL     1      49.911   5.922  18.738  0.00  0.00    +0.000 S 
ATOM     24  C   UNL     1      50.626   4.426  18.354  0.00  0.00    +0.000 A 
ATOM     25  N   UNL     1      51.834   4.072  18.868  0.00  0.00    +0.000 NA
ATOM     26  C   UNL     1      52.272   2.926  18.460  0.00  0.00    +0.000 A 
ATOM     27  N   UNL     1      51.616   2.106  17.579  0.00  0.00    +0.000 N 
ATOM     28  C   UNL     1      50.390   2.417  17.042  0.00  0.00    +0.000 A 
ATOM     29  O   UNL     1      49.827   1.652  16.262  0.00  0.00    +0.000 OA
ATOM     30  C   UNL     1      49.843   3.683  17.489  0.00  0.00    +0.000 A 
ATOM     31  H   UNL     1      52.016   1.225  17.296  0.00  0.00    +0.000 HD
ENDBRANCH  18  21
ENDBRANCH   1  19
TORSDOF 7
ENDMDL
