MODEL 1
REMARK VINA RESULT:    -8.224      0.000      0.000
REMARK INTER + INTRA:         -13.225
REMARK INTER:                 -12.311
REMARK INTRA:                  -0.914
REMARK UNBOUND:                -0.914
REMARK  Name = 
REMARK  9 active torsions:
REMARK  status: ('A' for Active; 'I' for Inactive)
REMARK    1  A    between atoms: C_2  and  C_13
REMARK    2  A    between atoms: N_3  and  CA_4
REMARK    3  A    between atoms: CA_4  and  C_5
REMARK    4  A    between atoms: CA_4  and  C_7
REMARK    5  A    between atoms: C_5  and  O_6
REMARK    6  A    between atoms: C_16  and  C_17
REMARK    7  A    between atoms: C_17  and  N_18
REMARK    8  A    between atoms: N_18  and  C_19
REMARK    9  A    between atoms: C_19  and  C_20
REMARK                            x       y       z     vdW  Elec       q    Type
REMARK                         _______ _______ _______ _____ _____    ______ ____
ROOT
ATOM      1  C   UNL     1      46.524   5.280  13.587  0.00  0.00    +0.000 A 
ATOM      2  C   UNL     1      45.879   6.346  12.958  0.00  0.00    +0.000 A 
ATOM      3  C   UNL     1      44.897   6.107  11.989  0.00  0.00    +0.000 A 
ATOM      4  C   UNL     1      44.550   4.792  11.636  0.00  0.00    +0.000 A 
ATOM      5  C   UNL     1      45.177   3.732  12.300  0.00  0.00    +0.000 A 
ATOM      6  C   UNL     1      46.162   3.966  13.269  0.00  0.00    +0.000 A 
ENDROOT
BRANCH   1   8
ATOM      7  O   UNL     1      48.576   6.192  14.281  0.00  0.00    +0.000 OA
ATOM      8  C   UNL     1      47.562   5.587  14.606  0.00  0.00    +0.000 C 
ATOM      9  N   UNL     1      47.336   5.125  15.885  0.00  0.00    +0.000 N 
ATOM     10  H   UNL     1      46.585   4.466  16.052  0.00  0.00    +0.000 HD
BRANCH   9  11
ATOM     11  CA  UNL     1      48.360   5.258  16.914  0.00  0.00    +0.000 C 
BRANCH  11  12
ATOM     12  C   UNL     1      49.219   4.010  17.031  0.00  0.00    +0.000 A 
ATOM     13  C   UNL     1      50.473   3.998  17.667  0.00  0.00    +0.000 A 
ATOM     14  C   UNL     1      51.240   2.846  17.668  0.00  0.00    +0.000 A 
ATOM     15  C   UNL     1      50.739   1.720  17.038  0.00  0.00    +0.000 A 
ATOM     16  N   UNL     1      49.541   1.684  16.422  0.00  0.00    +0.000 NA
ATOM     17  C   UNL     1      48.814   2.819  16.439  0.00  0.00    +0.000 A 
ENDBRANCH  11  12
BRANCH  11  18
ATOM     18  C   UNL     1      47.730   5.610  18.284  0.00  0.00    +0.000 C 
BRANCH  18  19
ATOM     19  O   UNL     1      46.437   5.022  18.467  0.00  0.00    +0.000 OA
ATOM     20  H   UNL     1      45.916   5.180  17.661  0.00  0.00    +0.000 HD
ENDBRANCH  18  19
ENDBRANCH  11  18
ENDBRANCH   9  11
ENDBRANCH   1   8
BRANCH   4  21
ATOM     21  C   UNL     1      43.497   4.532  10.578  0.00  0.00    +0.000 C 
BRANCH  21  22
ATOM     22  N   UNL     1      43.925   3.478   9.658  0.00  0.00    +0.000 NA
ATOM     23  H   UNL     1      43.099   2.984   9.321  0.00  0.00    +0.000 HD
BRANCH  22  24
ATOM     24  C   UNL     1      44.669   4.014   8.520  0.00  0.00    +0.000 C 
BRANCH  24  25
ATOM     25  C   UNL     1      45.685   3.027   8.031  0.00  0.00    +0.000 A 
ATOM     26  C   UNL     1      45.688   1.700   8.416  0.00  0.00    +0.000 A 
ATOM     27  N   UNL     1      46.595   0.795   7.997  0.00  0.00    +0.000 NA
ATOM     28  C   UNL     1      47.529   1.258   7.152  0.00  0.00    +0.000 A 
ATOM     29  N   UNL     1      47.627   2.515   6.696  0.00  0.00    +0.000 NA
ATOM     30  C   UNL     1      46.694   3.376   7.153  0.00  0.00    +0.000 A 
ENDBRANCH  24  25
ENDBRANCH  22  24
ENDBRANCH  21  22
ENDBRANCH   4  21
TORSDOF 9
ENDMDL
MODEL 2
REMARK VINA RESULT:    -7.451      1.686      2.182
REMARK INTER + INTRA:         -12.067
REMARK INTER:                 -10.954
REMARK INTRA:                  -1.113
REMARK UNBOUND:                -0.914
REMARK  Name = 
REMARK  9 active torsions:
REMARK  status: ('A' for Active; 'I' for Inactive)
REMARK    1  A    between atoms: C_2  and  C_13
REMARK    2  A    between atoms: N_3  and  CA_4
REMARK    3  A    between atoms: CA_4  and  C_5
REMARK    4  A    between atoms: CA_4  and  C_7
REMARK    5  A    between atoms: C_5  and  O_6
REMARK    6  A    between atoms: C_16  and  C_17
REMARK    7  A    between atoms: C_17  and  N_18
REMARK    8  A    between atoms: N_18  and  C_19
REMARK    9  A    between atoms: C_19  and  C_20
REMARK                            x       y       z     vdW  Elec       q    Type
REMARK                         _______ _______ _______ _____ _____    ______ ____
ROOT
ATOM      1  C   UNL     1      46.899   5.878  12.788  0.00  0.00    +0.000 A 
ATOM      2  C   UNL     1      46.262   4.800  13.404  0.00  0.00    +0.000 A 
ATOM      3  C   UNL     1      45.130   4.219  12.819  0.00  0.00    +0.000 A 
ATOM      4  C   UNL     1      44.621   4.714  11.607  0.00  0.00    +0.000 A 
ATOM      5  C   UNL     1      45.290   5.771  10.981  0.00  0.00    +0.000 A 
ATOM      6  C   UNL     1      46.422   6.357  11.563  0.00  0.00    +0.000 A 
ENDROOT
BRANCH   1   8
ATOM      7  O   UNL     1      49.164   6.502  12.858  0.00  0.00    +0.000 OA
ATOM      8  C   UNL     1      48.095   6.462  13.452  0.00  0.00    +0.000 C 
ATOM      9  N   UNL     1      47.935   6.900  14.749  0.00  0.00    +0.000 N 
ATOM     10  H   UNL     1      47.090   6.664  15.255  0.00  0.00    +0.000 HD
BRANCH   9  11
ATOM     11  CA  UNL     1      49.082   7.358  15.525  0.00  0.00    +0.000 C 
BRANCH  11  12
ATOM     12  C   UNL     1      49.643   6.264  16.417  0.00  0.00    +0.000 A 
ATOM     13  C   UNL     1      51.009   6.151  16.728  0.00  0.00    +0.000 A 
ATOM     14  C   UNL     1      51.464   5.083  17.481  0.00  0.00    +0.000 A 
ATOM     15  C   UNL     1      50.544   4.147  17.920  0.00  0.00    +0.000 A 
ATOM     16  N   UNL     1      49.226   4.217  17.653  0.00  0.00    +0.000 NA
ATOM     17  C   UNL     1      48.809   5.269  16.919  0.00  0.00    +0.000 A 
ENDBRANCH  11  12
BRANCH  11  18
ATOM     18  C   UNL     1      48.723   8.609  16.364  0.00  0.00    +0.000 C 
BRANCH  18  19
ATOM     19  O   UNL     1      47.474   9.195  15.979  0.00  0.00    +0.000 OA
ATOM     20  H   UNL     1      46.914   8.494  15.603  0.00  0.00    +0.000 HD
ENDBRANCH  18  19
ENDBRANCH  11  18
ENDBRANCH   9  11
ENDBRANCH   1   8
BRANCH   4  21
ATOM     21  C   UNL     1      43.388   4.094  10.981  0.00  0.00    +0.000 C 
BRANCH  21  22
ATOM     22  N   UNL     1      43.643   3.704   9.594  0.00  0.00    +0.000 NA
ATOM     23  H   UNL     1      44.158   4.454   9.133  0.00  0.00    +0.000 HD
BRANCH  22  24
ATOM     24  C   UNL     1      44.409   2.463   9.507  0.00  0.00    +0.000 C 
BRANCH  24  25
ATOM     25  C   UNL     1      45.501   2.577   8.489  0.00  0.00    +0.000 A 
ATOM     26  C   UNL     1      46.277   1.504   8.096  0.00  0.00    +0.000 A 
ATOM     27  N   UNL     1      47.271   1.583   7.188  0.00  0.00    +0.000 NA
ATOM     28  C   UNL     1      47.477   2.798   6.657  0.00  0.00    +0.000 A 
ATOM     29  N   UNL     1      46.788   3.911   6.945  0.00  0.00    +0.000 NA
ATOM     30  C   UNL     1      45.809   3.771   7.862  0.00  0.00    +0.000 A 
ENDBRANCH  24  25
ENDBRANCH  22  24
ENDBRANCH  21  22
ENDBRANCH   4  21
TORSDOF 9
ENDMDL
MODEL 3
REMARK VINA RESULT:    -6.802      2.489      3.771
REMARK INTER + INTRA:         -11.096
REMARK INTER:                 -10.092
REMARK INTRA:                  -1.004
REMARK UNBOUND:                -0.914
REMARK  Name = 
REMARK  9 active torsions:
REMARK  status: ('A' for Active; 'I' for Inactive)
REMARK    1  A    between atoms: C_2  and  C_13
REMARK    2  A    between atoms: N_3  and  CA_4
REMARK    3  A    between atoms: CA_4  and  C_5
REMARK    4  A    between atoms: CA_4  and  C_7
REMARK    5  A    between atoms: C_5  and  O_6
REMARK    6  A    between atoms: C_16  and  C_17
REMARK    7  A    between atoms: C_17  and  N_18
REMARK    8  A    between atoms: N_18  and  C_19
REMARK    9  A    between atoms: C_19  and  C_20
REMARK                            x       y       z     vdW  Elec       q    Type
REMARK                         _______ _______ _______ _____ _____    ______ ____
ROOT
ATOM      1  C   UNL     1      46.648   5.434  13.350  0.00  0.00    +0.000 A 
ATOM      2  C   UNL     1      45.632   4.498  13.546  0.00  0.00    +0.000 A 
ATOM      3  C   UNL     1      44.623   4.337  12.588  0.00  0.00    +0.000 A 
ATOM      4  C   UNL     1      44.620   5.117  11.420  0.00  0.00    +0.000 A 
ATOM      5  C   UNL     1      45.665   6.026  11.218  0.00  0.00    +0.000 A 
ATOM      6  C   UNL     1      46.675   6.192  12.174  0.00  0.00    +0.000 A 
ENDROOT
BRANCH   1   8
ATOM      7  O   UNL     1      47.806   4.709  15.263  0.00  0.00    +0.000 OA
ATOM      8  C   UNL     1      47.693   5.568  14.399  0.00  0.00    +0.000 C 
ATOM      9  N   UNL     1      48.472   6.706  14.362  0.00  0.00    +0.000 N 
ATOM     10  H   UNL     1      48.208   7.470  13.752  0.00  0.00    +0.000 HD
BRANCH   9  11
ATOM     11  CA  UNL     1      49.425   6.989  15.427  0.00  0.00    +0.000 C 
BRANCH  11  12
ATOM     12  C   UNL     1      48.811   7.827  16.536  0.00  0.00    +0.000 A 
ATOM     13  C   UNL     1      48.428   9.168  16.363  0.00  0.00    +0.000 A 
ATOM     14  C   UNL     1      47.950   9.898  17.437  0.00  0.00    +0.000 A 
ATOM     15  C   UNL     1      47.856   9.274  18.669  0.00  0.00    +0.000 A 
ATOM     16  N   UNL     1      48.206   7.990  18.880  0.00  0.00    +0.000 NA
ATOM     17  C   UNL     1      48.666   7.302  17.816  0.00  0.00    +0.000 A 
ENDBRANCH  11  12
BRANCH  11  18
ATOM     18  C   UNL     1      50.695   7.678  14.870  0.00  0.00    +0.000 C 
BRANCH  18  19
ATOM     19  O   UNL     1      50.722   7.715  13.438  0.00  0.00    +0.000 OA
ATOM     20  H   UNL     1      51.647   7.814  13.155  0.00  0.00    +0.000 HD
ENDBRANCH  18  19
ENDBRANCH  11  18
ENDBRANCH   9  11
ENDBRANCH   1   8
BRANCH   4  21
ATOM     21  C   UNL     1      43.521   4.954  10.389  0.00  0.00    +0.000 C 
BRANCH  21  22
ATOM     22  N   UNL     1      44.054   4.426   9.132  0.00  0.00    +0.000 NA
ATOM     23  H   UNL     1      44.895   4.949   8.890  0.00  0.00    +0.000 HD
BRANCH  22  24
ATOM     24  C   UNL     1      44.376   3.004   9.230  0.00  0.00    +0.000 C 
BRANCH  24  25
ATOM     25  C   UNL     1      45.560   2.663   8.379  0.00  0.00    +0.000 A 
ATOM     26  C   UNL     1      46.249   3.605   7.639  0.00  0.00    +0.000 A 
ATOM     27  N   UNL     1      47.312   3.323   6.860  0.00  0.00    +0.000 NA
ATOM     28  C   UNL     1      47.690   2.036   6.837  0.00  0.00    +0.000 A 
ATOM     29  N   UNL     1      47.115   1.033   7.517  0.00  0.00    +0.000 NA
ATOM     30  C   UNL     1      46.054   1.376   8.277  0.00  0.00    +0.000 A 
ENDBRANCH  24  25
ENDBRANCH  22  24
ENDBRANCH  21  22
ENDBRANCH   4  21
TORSDOF 9
ENDMDL
MODEL 4
REMARK VINA RESULT:    -6.625      1.422      2.122
REMARK INTER + INTRA:         -10.832
REMARK INTER:                 -10.001
REMARK INTRA:                  -0.831
REMARK UNBOUND:                -0.914
REMARK  Name = 
REMARK  9 active torsions:
REMARK  status: ('A' for Active; 'I' for Inactive)
REMARK    1  A    between atoms: C_2  and  C_13
REMARK    2  A    between atoms: N_3  and  CA_4
REMARK    3  A    between atoms: CA_4  and  C_5
REMARK    4  A    between atoms: CA_4  and  C_7
REMARK    5  A    between atoms: C_5  and  O_6
REMARK    6  A    between atoms: C_16  and  C_17
REMARK    7  A    between atoms: C_17  and  N_18
REMARK    8  A    between atoms: N_18  and  C_19
REMARK    9  A    between atoms: C_19  and  C_20
REMARK                            x       y       z     vdW  Elec       q    Type
REMARK                         _______ _______ _______ _____ _____    ______ ____
ROOT
ATOM      1  C   UNL     1      48.047   5.738  14.951  0.00  0.00    +0.000 A 
ATOM      2  C   UNL     1      47.147   4.672  14.953  0.00  0.00    +0.000 A 
ATOM      3  C   UNL     1      46.150   4.586  13.974  0.00  0.00    +0.000 A 
ATOM      4  C   UNL     1      46.041   5.573  12.980  0.00  0.00    +0.000 A 
ATOM      5  C   UNL     1      46.972   6.617  12.967  0.00  0.00    +0.000 A 
ATOM      6  C   UNL     1      47.971   6.708  13.945  0.00  0.00    +0.000 A 
ENDROOT
BRANCH   1   8
ATOM      7  O   UNL     1      50.056   6.519  15.889  0.00  0.00    +0.000 OA
ATOM      8  C   UNL     1      49.085   5.785  16.015  0.00  0.00    +0.000 C 
ATOM      9  N   UNL     1      48.910   4.944  17.094  0.00  0.00    +0.000 N 
ATOM     10  H   UNL     1      48.201   4.221  17.053  0.00  0.00    +0.000 HD
BRANCH   9  11
ATOM     11  CA  UNL     1      49.944   4.821  18.114  0.00  0.00    +0.000 C 
BRANCH  11  12
ATOM     12  C   UNL     1      50.763   3.552  17.948  0.00  0.00    +0.000 A 
ATOM     13  C   UNL     1      52.114   3.455  18.328  0.00  0.00    +0.000 A 
ATOM     14  C   UNL     1      52.824   2.294  18.074  0.00  0.00    +0.000 A 
ATOM     15  C   UNL     1      52.172   1.245  17.452  0.00  0.00    +0.000 A 
ATOM     16  N   UNL     1      50.879   1.290  17.077  0.00  0.00    +0.000 NA
ATOM     17  C   UNL     1      50.209   2.431  17.337  0.00  0.00    +0.000 A 
ENDBRANCH  11  12
BRANCH  11  18
ATOM     18  C   UNL     1      49.333   4.887  19.536  0.00  0.00    +0.000 C 
BRANCH  18  19
ATOM     19  O   UNL     1      48.218   4.004  19.702  0.00  0.00    +0.000 OA
ATOM     20  H   UNL     1      48.241   3.654  20.609  0.00  0.00    +0.000 HD
ENDBRANCH  18  19
ENDBRANCH  11  18
ENDBRANCH   9  11
ENDBRANCH   1   8
BRANCH   4  21
ATOM     21  C   UNL     1      44.953   5.489  11.928  0.00  0.00    +0.000 C 
BRANCH  21  22
ATOM     22  N   UNL     1      44.686   4.098  11.558  0.00  0.00    +0.000 NA
ATOM     23  H   UNL     1      44.096   3.678  12.276  0.00  0.00    +0.000 HD
BRANCH  22  24
ATOM     24  C   UNL     1      44.019   3.996  10.261  0.00  0.00    +0.000 C 
BRANCH  24  25
ATOM     25  C   UNL     1      44.977   3.546   9.201  0.00  0.00    +0.000 A 
ATOM     26  C   UNL     1      45.293   2.218   8.989  0.00  0.00    +0.000 A 
ATOM     27  N   UNL     1      46.158   1.789   8.048  0.00  0.00    +0.000 NA
ATOM     28  C   UNL     1      46.717   2.747   7.292  0.00  0.00    +0.000 A 
ATOM     29  N   UNL     1      46.484   4.064   7.391  0.00  0.00    +0.000 NA
ATOM     30  C   UNL     1      45.613   4.433   8.352  0.00  0.00    +0.000 A 
ENDBRANCH  24  25
ENDBRANCH  22  24
ENDBRANCH  21  22
ENDBRANCH   4  21
TORSDOF 9
ENDMDL
MODEL 5
REMARK VINA RESULT:    -6.562      4.200      5.450
REMARK INTER + INTRA:         -10.738
REMARK INTER:                  -9.642
REMARK INTRA:                  -1.096
REMARK UNBOUND:                -0.914
REMARK  Name = 
REMARK  9 active torsions:
REMARK  status: ('A' for Active; 'I' for Inactive)
REMARK    1  A    between atoms: C_2  and  C_13
REMARK    2  A    between atoms: N_3  and  CA_4
REMARK    3  A    between atoms: CA_4  and  C_5
REMARK    4  A    between atoms: CA_4  and  C_7
REMARK    5  A    between atoms: C_5  and  O_6
REMARK    6  A    between atoms: C_16  and  C_17
REMARK    7  A    between atoms: C_17  and  N_18
REMARK    8  A    between atoms: N_18  and  C_19
REMARK    9  A    between atoms: C_19  and  C_20
REMARK                            x       y       z     vdW  Elec       q    Type
REMARK                         _______ _______ _______ _____ _____    ______ ____
ROOT
ATOM      1  C   UNL     1      47.571   6.870  12.289  0.00  0.00    +0.000 A 
ATOM      2  C   UNL     1      46.445   6.997  11.475  0.00  0.00    +0.000 A 
ATOM      3  C   UNL     1      45.447   6.015  11.489  0.00  0.00    +0.000 A 
ATOM      4  C   UNL     1      45.567   4.890  12.321  0.00  0.00    +0.000 A 
ATOM      5  C   UNL     1      46.683   4.792  13.159  0.00  0.00    +0.000 A 
ATOM      6  C   UNL     1      47.685   5.771  13.147  0.00  0.00    +0.000 A 
ENDROOT
BRANCH   1   8
ATOM      7  O   UNL     1      48.277   9.091  11.986  0.00  0.00    +0.000 OA
ATOM      8  C   UNL     1      48.604   7.938  12.233  0.00  0.00    +0.000 C 
ATOM      9  N   UNL     1      49.913   7.551  12.429  0.00  0.00    +0.000 N 
ATOM     10  H   UNL     1      50.145   6.565  12.432  0.00  0.00    +0.000 HD
BRANCH   9  11
ATOM     11  CA  UNL     1      51.003   8.502  12.255  0.00  0.00    +0.000 C 
BRANCH  11  12
ATOM     12  C   UNL     1      51.668   8.369  10.896  0.00  0.00    +0.000 A 
ATOM     13  C   UNL     1      51.890   7.131  10.267  0.00  0.00    +0.000 A 
ATOM     14  C   UNL     1      52.575   7.075   9.066  0.00  0.00    +0.000 A 
ATOM     15  C   UNL     1      53.021   8.259   8.506  0.00  0.00    +0.000 A 
ATOM     16  N   UNL     1      52.826   9.467   9.068  0.00  0.00    +0.000 NA
ATOM     17  C   UNL     1      52.155   9.493  10.237  0.00  0.00    +0.000 A 
ENDBRANCH  11  12
BRANCH  11  18
ATOM     18  C   UNL     1      52.052   8.360  13.386  0.00  0.00    +0.000 C 
BRANCH  18  19
ATOM     19  O   UNL     1      51.579   7.571  14.484  0.00  0.00    +0.000 OA
ATOM     20  H   UNL     1      50.615   7.684  14.545  0.00  0.00    +0.000 HD
ENDBRANCH  18  19
ENDBRANCH  11  18
ENDBRANCH   9  11
ENDBRANCH   1   8
BRANCH   4  21
ATOM     21  C   UNL     1      44.494   3.819  12.327  0.00  0.00    +0.000 C 
BRANCH  21  22
ATOM     22  N   UNL     1      44.876   2.688  11.481  0.00  0.00    +0.000 NA
ATOM     23  H   UNL     1      44.650   1.823  11.972  0.00  0.00    +0.000 HD
BRANCH  22  24
ATOM     24  C   UNL     1      44.185   2.711  10.193  0.00  0.00    +0.000 C 
BRANCH  24  25
ATOM     25  C   UNL     1      45.159   2.855   9.065  0.00  0.00    +0.000 A 
ATOM     26  C   UNL     1      45.868   1.789   8.545  0.00  0.00    +0.000 A 
ATOM     27  N   UNL     1      46.757   1.894   7.536  0.00  0.00    +0.000 NA
ATOM     28  C   UNL     1      46.925   3.128   7.036  0.00  0.00    +0.000 A 
ATOM     29  N   UNL     1      46.291   4.237   7.445  0.00  0.00    +0.000 NA
ATOM     30  C   UNL     1      45.417   4.070   8.459  0.00  0.00    +0.000 A 
ENDBRANCH  24  25
ENDBRANCH  22  24
ENDBRANCH  21  22
ENDBRANCH   4  21
TORSDOF 9
ENDMDL
MODEL 6
REMARK VINA RESULT:    -6.279      2.291      8.616
REMARK INTER + INTRA:         -10.314
REMARK INTER:                 -10.548
REMARK INTRA:                   0.233
REMARK UNBOUND:                -0.914
REMARK  Name = 
REMARK  9 active torsions:
REMARK  status: ('A' for Active; 'I' for Inactive)
REMARK    1  A    between atoms: C_2  and  C_13
REMARK    2  A    between atoms: N_3  and  CA_4
REMARK    3  A    between atoms: CA_4  and  C_5
REMARK    4  A    between atoms: CA_4  and  C_7
REMARK    5  A    between atoms: C_5  and  O_6
REMARK    6  A    between atoms: C_16  and  C_17
REMARK    7  A    between atoms: C_17  and  N_18
REMARK    8  A    between atoms: N_18  and  C_19
REMARK    9  A    between atoms: C_19  and  C_20
REMARK                            x       y       z     vdW  Elec       q    Type
REMARK                         _______ _______ _______ _____ _____    ______ ____
ROOT
ATOM      1  C   UNL     1      46.690   5.422  13.247  0.00  0.00    +0.000 A 
ATOM      2  C   UNL     1      46.552   4.538  14.318  0.00  0.00    +0.000 A 
ATOM      3  C   UNL     1      47.315   4.709  15.480  0.00  0.00    +0.000 A 
ATOM      4  C   UNL     1      48.231   5.769  15.581  0.00  0.00    +0.000 A 
ATOM      5  C   UNL     1      48.334   6.670  14.515  0.00  0.00    +0.000 A 
ATOM      6  C   UNL     1      47.574   6.503  13.350  0.00  0.00    +0.000 A 
ENDROOT
BRANCH   1   8
ATOM      7  O   UNL     1      45.701   6.099  11.226  0.00  0.00    +0.000 OA
ATOM      8  C   UNL     1      45.860   5.195  12.035  0.00  0.00    +0.000 C 
ATOM      9  N   UNL     1      45.267   3.956  11.909  0.00  0.00    +0.000 N 
ATOM     10  H   UNL     1      45.269   3.320  12.698  0.00  0.00    +0.000 HD
BRANCH   9  11
ATOM     11  CA  UNL     1      44.326   3.690  10.829  0.00  0.00    +0.000 C 
BRANCH  11  12
ATOM     12  C   UNL     1      45.030   3.371   9.521  0.00  0.00    +0.000 A 
ATOM     13  C   UNL     1      45.424   2.071   9.158  0.00  0.00    +0.000 A 
ATOM     14  C   UNL     1      46.135   1.863   7.988  0.00  0.00    +0.000 A 
ATOM     15  C   UNL     1      46.435   2.956   7.195  0.00  0.00    +0.000 A 
ATOM     16  N   UNL     1      46.073   4.218   7.500  0.00  0.00    +0.000 NA
ATOM     17  C   UNL     1      45.380   4.392   8.643  0.00  0.00    +0.000 A 
ENDBRANCH  11  12
BRANCH  11  18
ATOM     18  C   UNL     1      43.346   4.874  10.639  0.00  0.00    +0.000 C 
BRANCH  18  19
ATOM     19  O   UNL     1      42.339   4.929  11.657  0.00  0.00    +0.000 OA
ATOM     20  H   UNL     1      42.354   4.087  12.143  0.00  0.00    +0.000 HD
ENDBRANCH  18  19
ENDBRANCH  11  18
ENDBRANCH   9  11
ENDBRANCH   1   8
BRANCH   4  21
ATOM     21  C   UNL     1      49.068   5.947  16.832  0.00  0.00    +0.000 C 
BRANCH  21  22
ATOM     22  N   UNL     1      50.205   5.025  16.839  0.00  0.00    +0.000 NA
ATOM     23  H   UNL     1      51.039   5.539  17.122  0.00  0.00    +0.000 HD
BRANCH  22  24
ATOM     24  C   UNL     1      49.992   3.903  17.751  0.00  0.00    +0.000 C 
BRANCH  24  25
ATOM     25  C   UNL     1      51.149   2.953  17.709  0.00  0.00    +0.000 A 
ATOM     26  C   UNL     1      51.025   1.635  17.315  0.00  0.00    +0.000 A 
ATOM     27  N   UNL     1      52.048   0.758  17.277  0.00  0.00    +0.000 NA
ATOM     28  C   UNL     1      53.243   1.243  17.649  0.00  0.00    +0.000 A 
ATOM     29  N   UNL     1      53.495   2.501  18.039  0.00  0.00    +0.000 NA
ATOM     30  C   UNL     1      52.432   3.331  18.060  0.00  0.00    +0.000 A 
ENDBRANCH  24  25
ENDBRANCH  22  24
ENDBRANCH  21  22
ENDBRANCH   4  21
TORSDOF 9
ENDMDL
MODEL 7
REMARK VINA RESULT:    -6.223      4.012      6.150
REMARK INTER + INTRA:         -10.230
REMARK INTER:                  -9.268
REMARK INTRA:                  -0.962
REMARK UNBOUND:                -0.914
REMARK  Name = 
REMARK  9 active torsions:
REMARK  status: ('A' for Active; 'I' for Inactive)
REMARK    1  A    between atoms: C_2  and  C_13
REMARK    2  A    between atoms: N_3  and  CA_4
REMARK    3  A    between atoms: CA_4  and  C_5
REMARK    4  A    between atoms: CA_4  and  C_7
REMARK    5  A    between atoms: C_5  and  O_6
REMARK    6  A    between atoms: C_16  and  C_17
REMARK    7  A    between atoms: C_17  and  N_18
REMARK    8  A    between atoms: N_18  and  C_19
REMARK    9  A    between atoms: C_19  and  C_20
REMARK                            x       y       z     vdW  Elec       q    Type
REMARK                         _______ _______ _______ _____ _____    ______ ____
ROOT
ATOM      1  C   UNL     1      46.961   6.965  13.209  0.00  0.00    +0.000 A 
ATOM      2  C   UNL     1      45.689   7.201  12.687  0.00  0.00    +0.000 A 
ATOM      3  C   UNL     1      44.784   6.146  12.522  0.00  0.00    +0.000 A 
ATOM      4  C   UNL     1      45.146   4.836  12.876  0.00  0.00    +0.000 A 
ATOM      5  C   UNL     1      46.410   4.616  13.432  0.00  0.00    +0.000 A 
ATOM      6  C   UNL     1      47.320   5.669  13.598  0.00  0.00    +0.000 A 
ENDROOT
BRANCH   1   8
ATOM      7  O   UNL     1      47.840   8.809  14.370  0.00  0.00    +0.000 OA
ATOM      8  C   UNL     1      47.885   8.119  13.360  0.00  0.00    +0.000 C 
ATOM      9  N   UNL     1      48.738   8.377  12.308  0.00  0.00    +0.000 N 
ATOM     10  H   UNL     1      48.598   7.901  11.425  0.00  0.00    +0.000 HD
BRANCH   9  11
ATOM     11  CA  UNL     1      49.580   9.567  12.309  0.00  0.00    +0.000 C 
BRANCH  11  12
ATOM     12  C   UNL     1      49.157  10.569  11.248  0.00  0.00    +0.000 A 
ATOM     13  C   UNL     1      50.059  11.157  10.344  0.00  0.00    +0.000 A 
ATOM     14  C   UNL     1      49.620  12.123   9.455  0.00  0.00    +0.000 A 
ATOM     15  C   UNL     1      48.284  12.483   9.479  0.00  0.00    +0.000 A 
ATOM     16  N   UNL     1      47.383  11.942  10.323  0.00  0.00    +0.000 NA
ATOM     17  C   UNL     1      47.837  11.002  11.176  0.00  0.00    +0.000 A 
ENDBRANCH  11  12
BRANCH  11  18
ATOM     18  C   UNL     1      51.073   9.194  12.134  0.00  0.00    +0.000 C 
BRANCH  18  19
ATOM     19  O   UNL     1      51.324   7.799  12.346  0.00  0.00    +0.000 OA
ATOM     20  H   UNL     1      51.319   7.633  13.304  0.00  0.00    +0.000 HD
ENDBRANCH  18  19
ENDBRANCH  11  18
ENDBRANCH   9  11
ENDBRANCH   1   8
BRANCH   4  21
ATOM     21  C   UNL     1      44.172   3.690  12.685  0.00  0.00    +0.000 C 
BRANCH  21  22
ATOM     22  N   UNL     1      44.655   2.754  11.669  0.00  0.00    +0.000 NA
ATOM     23  H   UNL     1      44.501   1.803  12.002  0.00  0.00    +0.000 HD
BRANCH  22  24
ATOM     24  C   UNL     1      43.973   2.937  10.389  0.00  0.00    +0.000 C 
BRANCH  24  25
ATOM     25  C   UNL     1      44.959   3.012   9.263  0.00  0.00    +0.000 A 
ATOM     26  C   UNL     1      45.596   1.899   8.748  0.00  0.00    +0.000 A 
ATOM     27  N   UNL     1      46.492   1.941   7.742  0.00  0.00    +0.000 NA
ATOM     28  C   UNL     1      46.744   3.159   7.239  0.00  0.00    +0.000 A 
ATOM     29  N   UNL     1      46.185   4.309   7.642  0.00  0.00    +0.000 NA
ATOM     30  C   UNL     1      45.299   4.205   8.653  0.00  0.00    +0.000 A 
ENDBRANCH  24  25
ENDBRANCH  22  24
ENDBRANCH  21  22
ENDBRANCH   4  21
TORSDOF 9
ENDMDL
MODEL 8
REMARK VINA RESULT:    -6.086      2.683      9.085
REMARK INTER + INTRA:         -10.025
REMARK INTER:                  -8.950
REMARK INTRA:                  -1.075
REMARK UNBOUND:                -0.914
REMARK  Name = 
REMARK  9 active torsions:
REMARK  status: ('A' for Active; 'I' for Inactive)
REMARK    1  A    between atoms: C_2  and  C_13
REMARK    2  A    between atoms: N_3  and  CA_4
REMARK    3  A    between atoms: CA_4  and  C_5
REMARK    4  A    between atoms: CA_4  and  C_7
REMARK    5  A    between atoms: C_5  and  O_6
REMARK    6  A    between atoms: C_16  and  C_17
REMARK    7  A    between atoms: C_17  and  N_18
REMARK    8  A    between atoms: N_18  and  C_19
REMARK    9  A    between atoms: C_19  and  C_20
REMARK                            x       y       z     vdW  Elec       q    Type
REMARK                         _______ _______ _______ _____ _____    ______ ____
ROOT
ATOM      1  C   UNL     1      46.896   5.070  13.939  0.00  0.00    +0.000 A 
ATOM      2  C   UNL     1      47.489   6.197  13.369  0.00  0.00    +0.000 A 
ATOM      3  C   UNL     1      48.441   6.934  14.084  0.00  0.00    +0.000 A 
ATOM      4  C   UNL     1      48.808   6.550  15.384  0.00  0.00    +0.000 A 
ATOM      5  C   UNL     1      48.234   5.398  15.931  0.00  0.00    +0.000 A 
ATOM      6  C   UNL     1      47.280   4.658  15.220  0.00  0.00    +0.000 A 
ENDROOT
BRANCH   1   8
ATOM      7  O   UNL     1      45.831   3.104  13.213  0.00  0.00    +0.000 OA
ATOM      8  C   UNL     1      45.888   4.325  13.139  0.00  0.00    +0.000 C 
ATOM      9  N   UNL     1      45.078   5.068  12.307  0.00  0.00    +0.000 N 
ATOM     10  H   UNL     1      45.299   6.043  12.137  0.00  0.00    +0.000 HD
BRANCH   9  11
ATOM     11  CA  UNL     1      44.159   4.413  11.385  0.00  0.00    +0.000 C 
BRANCH  11  12
ATOM     12  C   UNL     1      44.859   3.926  10.127  0.00  0.00    +0.000 A 
ATOM     13  C   UNL     1      45.449   4.793   9.191  0.00  0.00    +0.000 A 
ATOM     14  C   UNL     1      46.000   4.288   8.027  0.00  0.00    +0.000 A 
ATOM     15  C   UNL     1      45.959   2.920   7.818  0.00  0.00    +0.000 A 
ATOM     16  N   UNL     1      45.411   2.051   8.689  0.00  0.00    +0.000 NA
ATOM     17  C   UNL     1      44.884   2.570   9.816  0.00  0.00    +0.000 A 
ENDBRANCH  11  12
BRANCH  11  18
ATOM     18  C   UNL     1      42.979   5.346  11.018  0.00  0.00    +0.000 C 
BRANCH  18  19
ATOM     19  O   UNL     1      43.136   6.671  11.540  0.00  0.00    +0.000 OA
ATOM     20  H   UNL     1      43.459   7.242  10.823  0.00  0.00    +0.000 HD
ENDBRANCH  18  19
ENDBRANCH  11  18
ENDBRANCH   9  11
ENDBRANCH   1   8
BRANCH   4  21
ATOM     21  C   UNL     1      49.828   7.355  16.165  0.00  0.00    +0.000 C 
BRANCH  21  22
ATOM     22  N   UNL     1      49.172   8.281  17.089  0.00  0.00    +0.000 NA
ATOM     23  H   UNL     1      48.191   8.015  17.174  0.00  0.00    +0.000 HD
BRANCH  22  24
ATOM     24  C   UNL     1      49.796   8.268  18.410  0.00  0.00    +0.000 C 
BRANCH  24  25
ATOM     25  C   UNL     1      49.379   7.059  19.189  0.00  0.00    +0.000 A 
ATOM     26  C   UNL     1      48.057   6.756  19.453  0.00  0.00    +0.000 A 
ATOM     27  N   UNL     1      47.656   5.679  20.158  0.00  0.00    +0.000 NA
ATOM     28  C   UNL     1      48.637   4.879  20.604  0.00  0.00    +0.000 A 
ATOM     29  N   UNL     1      49.951   5.056  20.405  0.00  0.00    +0.000 NA
ATOM     30  C   UNL     1      50.291   6.153  19.696  0.00  0.00    +0.000 A 
ENDBRANCH  24  25
ENDBRANCH  22  24
ENDBRANCH  21  22
ENDBRANCH   4  21
TORSDOF 9
ENDMDL
MODEL 9
REMARK VINA RESULT:    -6.045      4.503      8.153
REMARK INTER + INTRA:          -9.963
REMARK INTER:                  -8.957
REMARK INTRA:                  -1.006
REMARK UNBOUND:                -0.914
REMARK  Name = 
REMARK  9 active torsions:
REMARK  status: ('A' for Active; 'I' for Inactive)
REMARK    1  A    between atoms: C_2  and  C_13
REMARK    2  A    between atoms: N_3  and  CA_4
REMARK    3  A    between atoms: CA_4  and  C_5
REMARK    4  A    between atoms: CA_4  and  C_7
REMARK    5  A    between atoms: C_5  and  O_6
REMARK    6  A    between atoms: C_16  and  C_17
REMARK    7  A    between atoms: C_17  and  N_18
REMARK    8  A    between atoms: N_18  and  C_19
REMARK    9  A    between atoms: C_19  and  C_20
REMARK                            x       y       z     vdW  Elec       q    Type
REMARK                         _______ _______ _______ _____ _____    ______ ____
ROOT
ATOM      1  C   UNL     1      47.532   5.786  13.919  0.00  0.00    +0.000 A 
ATOM      2  C   UNL     1      48.204   6.492  12.921  0.00  0.00    +0.000 A 
ATOM      3  C   UNL     1      49.316   7.281  13.238  0.00  0.00    +0.000 A 
ATOM      4  C   UNL     1      49.768   7.373  14.565  0.00  0.00    +0.000 A 
ATOM      5  C   UNL     1      49.110   6.631  15.551  0.00  0.00    +0.000 A 
ATOM      6  C   UNL     1      47.995   5.842  15.239  0.00  0.00    +0.000 A 
ENDROOT
BRANCH   1   8
ATOM      7  O   UNL     1      46.150   3.891  14.080  0.00  0.00    +0.000 OA
ATOM      8  C   UNL     1      46.354   4.966  13.531  0.00  0.00    +0.000 C 
ATOM      9  N   UNL     1      45.559   5.458  12.517  0.00  0.00    +0.000 N 
ATOM     10  H   UNL     1      45.883   6.245  11.968  0.00  0.00    +0.000 HD
BRANCH   9  11
ATOM     11  CA  UNL     1      44.467   4.659  11.976  0.00  0.00    +0.000 C 
BRANCH  11  12
ATOM     12  C   UNL     1      44.723   4.236  10.540  0.00  0.00    +0.000 A 
ATOM     13  C   UNL     1      44.340   2.983  10.028  0.00  0.00    +0.000 A 
ATOM     14  C   UNL     1      44.677   2.630   8.733  0.00  0.00    +0.000 A 
ATOM     15  C   UNL     1      45.385   3.538   7.965  0.00  0.00    +0.000 A 
ATOM     16  N   UNL     1      45.767   4.751   8.411  0.00  0.00    +0.000 NA
ATOM     17  C   UNL     1      45.424   5.070   9.675  0.00  0.00    +0.000 A 
ENDBRANCH  11  12
BRANCH  11  18
ATOM     18  C   UNL     1      43.119   5.414  12.084  0.00  0.00    +0.000 C 
BRANCH  18  19
ATOM     19  O   UNL     1      42.571   5.384  13.408  0.00  0.00    +0.000 OA
ATOM     20  H   UNL     1      42.011   4.593  13.486  0.00  0.00    +0.000 HD
ENDBRANCH  18  19
ENDBRANCH  11  18
ENDBRANCH   9  11
ENDBRANCH   1   8
BRANCH   4  21
ATOM     21  C   UNL     1      50.964   8.238  14.912  0.00  0.00    +0.000 C 
BRANCH  21  22
ATOM     22  N   UNL     1      52.207   7.632  14.434  0.00  0.00    +0.000 NA
ATOM     23  H   UNL     1      51.984   6.980  13.683  0.00  0.00    +0.000 HD
BRANCH  22  24
ATOM     24  C   UNL     1      53.151   8.635  13.944  0.00  0.00    +0.000 C 
BRANCH  24  25
ATOM     25  C   UNL     1      52.771   9.104  12.574  0.00  0.00    +0.000 A 
ATOM     26  C   UNL     1      52.541  10.432  12.271  0.00  0.00    +0.000 A 
ATOM     27  N   UNL     1      52.190  10.878  11.049  0.00  0.00    +0.000 NA
ATOM     28  C   UNL     1      52.074   9.938  10.098  0.00  0.00    +0.000 A 
ATOM     29  N   UNL     1      52.281   8.623  10.262  0.00  0.00    +0.000 NA
ATOM     30  C   UNL     1      52.627   8.237  11.507  0.00  0.00    +0.000 A 
ENDBRANCH  24  25
ENDBRANCH  22  24
ENDBRANCH  21  22
ENDBRANCH   4  21
TORSDOF 9
ENDMDL
