MODEL 1
REMARK VINA RESULT:    -8.062      0.000      0.000
REMARK INTER + INTRA:         -11.584
REMARK INTER:                 -10.890
REMARK INTRA:                  -0.694
REMARK UNBOUND:                -0.694
REMARK  Name = 
REMARK  6 active torsions:
REMARK  status: ('A' for Active; 'I' for Inactive)
REMARK    1  A    between atoms: C_2  and  C_20
REMARK    2  A    between atoms: N_3  and  C_4
REMARK    3  A    between atoms: C_4  and  C_5
REMARK    4  A    between atoms: C_8  and  C_9
REMARK    5  A    between atoms: C_9  and  C_10
REMARK    6  A    between atoms: C_10  and  N_11
REMARK                            x       y       z     vdW  Elec       q    Type
REMARK                         _______ _______ _______ _____ _____    ______ ____
ROOT
ATOM      1  C   UNL     1      46.988   5.928  12.998  0.00  0.00    +0.000 A 
ATOM      2  C   UNL     1      46.199   4.827  13.344  0.00  0.00    +0.000 A 
ATOM      3  C   UNL     1      45.199   4.370  12.484  0.00  0.00    +0.000 A 
ATOM      4  C   UNL     1      44.967   4.993  11.251  0.00  0.00    +0.000 A 
ATOM      5  C   UNL     1      45.769   6.090  10.902  0.00  0.00    +0.000 A 
ATOM      6  C   UNL     1      46.772   6.549  11.763  0.00  0.00    +0.000 A 
ENDROOT
BRANCH   1   7
ATOM      7  C   UNL     1      48.049   6.419  13.939  0.00  0.00    +0.000 C 
BRANCH   7  10
ATOM      8  O   UNL     1      49.971   6.275  15.945  0.00  0.00    +0.000 OA
ATOM      9  C   UNL     1      48.805   6.001  16.225  0.00  0.00    +0.000 C 
ATOM     10  N   UNL     1      47.792   6.029  15.298  0.00  0.00    +0.000 N 
ATOM     11  H   UNL     1      46.860   5.786  15.618  0.00  0.00    +0.000 HD
BRANCH   9  12
ATOM     12  C   UNL     1      48.378   5.637  17.582  0.00  0.00    +0.000 A 
ATOM     13  N   UNL     1      48.160   4.352  17.949  0.00  0.00    +0.000 NA
ATOM     14  N   UNL     1      47.765   4.456  19.238  0.00  0.00    +0.000 N 
ATOM     15  C   UNL     1      47.708   5.736  19.703  0.00  0.00    +0.000 A 
ATOM     16  N   UNL     1      47.326   6.123  20.935  0.00  0.00    +0.000 NA
ATOM     17  C   UNL     1      47.361   7.469  21.090  0.00  0.00    +0.000 A 
ATOM     18  C   UNL     1      47.753   8.390  20.124  0.00  0.00    +0.000 A 
ATOM     19  C   UNL     1      48.147   7.927  18.869  0.00  0.00    +0.000 A 
ATOM     20  C   UNL     1      48.114   6.541  18.652  0.00  0.00    +0.000 A 
ATOM     21  H   UNL     1      47.538   3.618  19.758  0.00  0.00    +0.000 HD
ENDBRANCH   9  12
ENDBRANCH   7  10
ENDBRANCH   1   7
BRANCH   4  22
ATOM     22  C   UNL     1      43.890   4.540  10.282  0.00  0.00    +0.000 C 
BRANCH  22  23
ATOM     23  C   UNL     1      44.398   3.847   9.011  0.00  0.00    +0.000 C 
BRANCH  23  24
ATOM     24  N   UNL     1      45.070   2.595   9.324  0.00  0.00    +0.000 N 
ATOM     25  C   UNL     1      46.019   2.221   8.373  0.00  0.00    +0.000 A 
ATOM     26  N   UNL     1      46.683   3.151   7.688  0.00  0.00    +0.000 NA
ATOM     27  C   UNL     1      47.560   2.689   6.802  0.00  0.00    +0.000 A 
ATOM     28  N   UNL     1      47.817   1.412   6.553  0.00  0.00    +0.000 NA
ATOM     29  C   UNL     1      47.098   0.577   7.295  0.00  0.00    +0.000 A 
ATOM     30  N   UNL     1      46.185   0.915   8.205  0.00  0.00    +0.000 NA
ATOM     31  H   UNL     1      44.468   1.787   9.451  0.00  0.00    +0.000 HD
ENDBRANCH  23  24
ENDBRANCH  22  23
ENDBRANCH   4  22
TORSDOF 6
ENDMDL
MODEL 2
REMARK VINA RESULT:    -7.721      2.409      9.422
REMARK INTER + INTRA:         -11.122
REMARK INTER:                 -10.324
REMARK INTRA:                  -0.799
REMARK UNBOUND:                -0.694
REMARK  Name = 
REMARK  6 active torsions:
REMARK  status: ('A' for Active; 'I' for Inactive)
REMARK    1  A    between atoms: C_2  and  C_20
REMARK    2  A    between atoms: N_3  and  C_4
REMARK    3  A    between atoms: C_4  and  C_5
REMARK    4  A    between atoms: C_8  and  C_9
REMARK    5  A    between atoms: C_9  and  C_10
REMARK    6  A    between atoms: C_10  and  N_11
REMARK                            x       y       z     vdW  Elec       q    Type
REMARK                         _______ _______ _______ _____ _____    ______ ____
ROOT
ATOM      1  C   UNL     1      46.280   7.352  12.385  0.00  0.00    +0.000 A 
ATOM      2  C   UNL     1      46.223   8.510  13.166  0.00  0.00    +0.000 A 
ATOM      3  C   UNL     1      47.278   8.848  14.015  0.00  0.00    +0.000 A 
ATOM      4  C   UNL     1      48.422   8.045  14.100  0.00  0.00    +0.000 A 
ATOM      5  C   UNL     1      48.481   6.890  13.305  0.00  0.00    +0.000 A 
ATOM      6  C   UNL     1      47.425   6.550  12.453  0.00  0.00    +0.000 A 
ENDROOT
BRANCH   1   7
ATOM      7  C   UNL     1      45.132   6.992  11.487  0.00  0.00    +0.000 C 
BRANCH   7  10
ATOM      8  O   UNL     1      43.011   5.418  10.616  0.00  0.00    +0.000 OA
ATOM      9  C   UNL     1      44.153   4.968  10.531  0.00  0.00    +0.000 C 
ATOM     10  N   UNL     1      45.260   5.666  10.950  0.00  0.00    +0.000 N 
ATOM     11  H   UNL     1      46.163   5.215  10.843  0.00  0.00    +0.000 HD
BRANCH   9  12
ATOM     12  C   UNL     1      44.447   3.650   9.955  0.00  0.00    +0.000 A 
ATOM     13  N   UNL     1      43.868   2.516  10.415  0.00  0.00    +0.000 NA
ATOM     14  N   UNL     1      44.419   1.548   9.649  0.00  0.00    +0.000 N 
ATOM     15  C   UNL     1      45.324   2.005   8.738  0.00  0.00    +0.000 A 
ATOM     16  N   UNL     1      46.033   1.257   7.871  0.00  0.00    +0.000 NA
ATOM     17  C   UNL     1      46.864   2.001   7.103  0.00  0.00    +0.000 A 
ATOM     18  C   UNL     1      46.998   3.385   7.153  0.00  0.00    +0.000 A 
ATOM     19  C   UNL     1      46.230   4.106   8.067  0.00  0.00    +0.000 A 
ATOM     20  C   UNL     1      45.363   3.379   8.897  0.00  0.00    +0.000 A 
ATOM     21  H   UNL     1      44.146   0.584   9.793  0.00  0.00    +0.000 HD
ENDBRANCH   9  12
ENDBRANCH   7  10
ENDBRANCH   1   7
BRANCH   4  22
ATOM     22  C   UNL     1      49.594   8.364  15.010  0.00  0.00    +0.000 C 
BRANCH  22  23
ATOM     23  C   UNL     1      50.313   7.147  15.609  0.00  0.00    +0.000 C 
BRANCH  23  24
ATOM     24  N   UNL     1      49.955   6.957  17.007  0.00  0.00    +0.000 N 
ATOM     25  C   UNL     1      48.928   6.033  17.196  0.00  0.00    +0.000 A 
ATOM     26  N   UNL     1      48.781   5.013  16.352  0.00  0.00    +0.000 NA
ATOM     27  C   UNL     1      47.768   4.194  16.619  0.00  0.00    +0.000 A 
ATOM     28  N   UNL     1      46.916   4.311  17.629  0.00  0.00    +0.000 NA
ATOM     29  C   UNL     1      47.161   5.363  18.404  0.00  0.00    +0.000 A 
ATOM     30  N   UNL     1      48.134   6.257  18.236  0.00  0.00    +0.000 NA
ATOM     31  H   UNL     1      49.677   7.792  17.511  0.00  0.00    +0.000 HD
ENDBRANCH  23  24
ENDBRANCH  22  23
ENDBRANCH   4  22
TORSDOF 6
ENDMDL
MODEL 3
REMARK VINA RESULT:    -7.640      1.771      2.405
REMARK INTER + INTRA:         -11.014
REMARK INTER:                 -10.084
REMARK INTRA:                  -0.929
REMARK UNBOUND:                -0.694
REMARK  Name = 
REMARK  6 active torsions:
REMARK  status: ('A' for Active; 'I' for Inactive)
REMARK    1  A    between atoms: C_2  and  C_20
REMARK    2  A    between atoms: N_3  and  C_4
REMARK    3  A    between atoms: C_4  and  C_5
REMARK    4  A    between atoms: C_8  and  C_9
REMARK    5  A    between atoms: C_9  and  C_10
REMARK    6  A    between atoms: C_10  and  N_11
REMARK                            x       y       z     vdW  Elec       q    Type
REMARK                         _______ _______ _______ _____ _____    ______ ____
ROOT
ATOM      1  C   UNL     1      47.026   6.217  12.414  0.00  0.00    +0.000 A 
ATOM      2  C   UNL     1      46.496   6.473  11.146  0.00  0.00    +0.000 A 
ATOM      3  C   UNL     1      45.483   5.667  10.622  0.00  0.00    +0.000 A 
ATOM      4  C   UNL     1      44.964   4.592  11.355  0.00  0.00    +0.000 A 
ATOM      5  C   UNL     1      45.490   4.347  12.633  0.00  0.00    +0.000 A 
ATOM      6  C   UNL     1      46.505   5.153  13.159  0.00  0.00    +0.000 A 
ENDROOT
BRANCH   1   7
ATOM      7  C   UNL     1      48.126   7.081  12.958  0.00  0.00    +0.000 C 
BRANCH   7  10
ATOM      8  O   UNL     1      48.253   8.540  15.323  0.00  0.00    +0.000 OA
ATOM      9  C   UNL     1      48.649   7.376  15.327  0.00  0.00    +0.000 C 
ATOM     10  N   UNL     1      48.639   6.583  14.205  0.00  0.00    +0.000 N 
ATOM     11  H   UNL     1      48.988   5.635  14.300  0.00  0.00    +0.000 HD
BRANCH   9  12
ATOM     12  C   UNL     1      49.153   6.711  16.536  0.00  0.00    +0.000 A 
ATOM     13  N   UNL     1      50.170   7.221  17.269  0.00  0.00    +0.000 NA
ATOM     14  N   UNL     1      50.334   6.311  18.255  0.00  0.00    +0.000 N 
ATOM     15  C   UNL     1      49.486   5.247  18.180  0.00  0.00    +0.000 A 
ATOM     16  N   UNL     1      49.451   4.191  19.015  0.00  0.00    +0.000 NA
ATOM     17  C   UNL     1      48.503   3.287  18.669  0.00  0.00    +0.000 A 
ATOM     18  C   UNL     1      47.630   3.394  17.591  0.00  0.00    +0.000 A 
ATOM     19  C   UNL     1      47.710   4.516  16.766  0.00  0.00    +0.000 A 
ATOM     20  C   UNL     1      48.686   5.476  17.073  0.00  0.00    +0.000 A 
ATOM     21  H   UNL     1      51.049   6.460  18.956  0.00  0.00    +0.000 HD
ENDBRANCH   9  12
ENDBRANCH   7  10
ENDBRANCH   1   7
BRANCH   4  22
ATOM     22  C   UNL     1      43.867   3.684  10.831  0.00  0.00    +0.000 C 
BRANCH  22  23
ATOM     23  C   UNL     1      44.124   3.074   9.446  0.00  0.00    +0.000 C 
BRANCH  23  24
ATOM     24  N   UNL     1      45.082   1.982   9.518  0.00  0.00    +0.000 N 
ATOM     25  C   UNL     1      45.969   1.950   8.442  0.00  0.00    +0.000 A 
ATOM     26  N   UNL     1      46.331   3.081   7.839  0.00  0.00    +0.000 NA
ATOM     27  C   UNL     1      47.175   2.939   6.822  0.00  0.00    +0.000 A 
ATOM     28  N   UNL     1      47.670   1.793   6.373  0.00  0.00    +0.000 NA
ATOM     29  C   UNL     1      47.242   0.734   7.052  0.00  0.00    +0.000 A 
ATOM     30  N   UNL     1      46.392   0.745   8.078  0.00  0.00    +0.000 NA
ATOM     31  H   UNL     1      44.688   1.049   9.584  0.00  0.00    +0.000 HD
ENDBRANCH  23  24
ENDBRANCH  22  23
ENDBRANCH   4  22
TORSDOF 6
ENDMDL
MODEL 4
REMARK VINA RESULT:    -7.106      5.261      9.488
REMARK INTER + INTRA:         -10.292
REMARK INTER:                  -9.651
REMARK INTRA:                  -0.642
REMARK UNBOUND:                -0.694
REMARK  Name = 
REMARK  6 active torsions:
REMARK  status: ('A' for Active; 'I' for Inactive)
REMARK    1  A    between atoms: C_2  and  C_20
REMARK    2  A    between atoms: N_3  and  C_4
REMARK    3  A    between atoms: C_4  and  C_5
REMARK    4  A    between atoms: C_8  and  C_9
REMARK    5  A    between atoms: C_9  and  C_10
REMARK    6  A    between atoms: C_10  and  N_11
REMARK                            x       y       z     vdW  Elec       q    Type
REMARK                         _______ _______ _______ _____ _____    ______ ____
ROOT
ATOM      1  C   UNL     1      48.720   3.475  17.205  0.00  0.00    +0.000 A 
ATOM      2  C   UNL     1      49.316   2.215  17.102  0.00  0.00    +0.000 A 
ATOM      3  C   UNL     1      50.684   2.054  17.329  0.00  0.00    +0.000 A 
ATOM      4  C   UNL     1      51.491   3.145  17.675  0.00  0.00    +0.000 A 
ATOM      5  C   UNL     1      50.886   4.407  17.789  0.00  0.00    +0.000 A 
ATOM      6  C   UNL     1      49.515   4.569  17.563  0.00  0.00    +0.000 A 
ENDROOT
BRANCH   1   7
ATOM      7  C   UNL     1      47.251   3.636  16.943  0.00  0.00    +0.000 C 
BRANCH   7  10
ATOM      8  O   UNL     1      47.299   3.026  14.230  0.00  0.00    +0.000 OA
ATOM      9  C   UNL     1      47.021   4.174  14.571  0.00  0.00    +0.000 C 
ATOM     10  N   UNL     1      46.988   4.572  15.885  0.00  0.00    +0.000 N 
ATOM     11  H   UNL     1      46.751   5.541  16.073  0.00  0.00    +0.000 HD
BRANCH   9  12
ATOM     12  C   UNL     1      46.678   5.229  13.608  0.00  0.00    +0.000 A 
ATOM     13  N   UNL     1      47.557   6.193  13.250  0.00  0.00    +0.000 NA
ATOM     14  N   UNL     1      46.852   6.958  12.386  0.00  0.00    +0.000 N 
ATOM     15  C   UNL     1      45.570   6.538  12.188  0.00  0.00    +0.000 A 
ATOM     16  N   UNL     1      44.649   7.127  11.402  0.00  0.00    +0.000 NA
ATOM     17  C   UNL     1      43.459   6.480  11.424  0.00  0.00    +0.000 A 
ATOM     18  C   UNL     1      43.172   5.327  12.147  0.00  0.00    +0.000 A 
ATOM     19  C   UNL     1      44.171   4.758  12.938  0.00  0.00    +0.000 A 
ATOM     20  C   UNL     1      45.419   5.400  12.961  0.00  0.00    +0.000 A 
ATOM     21  H   UNL     1      47.292   7.764  11.962  0.00  0.00    +0.000 HD
ENDBRANCH   9  12
ENDBRANCH   7  10
ENDBRANCH   1   7
BRANCH   4  22
ATOM     22  C   UNL     1      52.983   3.027  17.927  0.00  0.00    +0.000 C 
BRANCH  22  23
ATOM     23  C   UNL     1      53.612   1.683  17.534  0.00  0.00    +0.000 C 
BRANCH  23  24
ATOM     24  N   UNL     1      53.873   0.859  18.705  0.00  0.00    +0.000 N 
ATOM     25  C   UNL     1      54.164  -0.469  18.395  0.00  0.00    +0.000 A 
ATOM     26  N   UNL     1      54.772  -0.772  17.250  0.00  0.00    +0.000 NA
ATOM     27  C   UNL     1      54.998  -2.067  17.049  0.00  0.00    +0.000 A 
ATOM     28  N   UNL     1      54.672  -3.052  17.876  0.00  0.00    +0.000 NA
ATOM     29  C   UNL     1      54.073  -2.631  18.984  0.00  0.00    +0.000 A 
ATOM     30  N   UNL     1      53.784  -1.369  19.295  0.00  0.00    +0.000 NA
ATOM     31  H   UNL     1      53.135   0.829  19.400  0.00  0.00    +0.000 HD
ENDBRANCH  23  24
ENDBRANCH  22  23
ENDBRANCH   4  22
TORSDOF 6
ENDMDL
MODEL 5
REMARK VINA RESULT:    -7.069      2.506      8.806
REMARK INTER + INTRA:         -10.242
REMARK INTER:                  -9.182
REMARK INTRA:                  -1.060
REMARK UNBOUND:                -0.694
REMARK  Name = 
REMARK  6 active torsions:
REMARK  status: ('A' for Active; 'I' for Inactive)
REMARK    1  A    between atoms: C_2  and  C_20
REMARK    2  A    between atoms: N_3  and  C_4
REMARK    3  A    between atoms: C_4  and  C_5
REMARK    4  A    between atoms: C_8  and  C_9
REMARK    5  A    between atoms: C_9  and  C_10
REMARK    6  A    between atoms: C_10  and  N_11
REMARK                            x       y       z     vdW  Elec       q    Type
REMARK                         _______ _______ _______ _____ _____    ______ ____
ROOT
ATOM      1  C   UNL     1      48.339   7.914  13.850  0.00  0.00    +0.000 A 
ATOM      2  C   UNL     1      49.405   7.085  14.211  0.00  0.00    +0.000 A 
ATOM      3  C   UNL     1      49.976   7.172  15.483  0.00  0.00    +0.000 A 
ATOM      4  C   UNL     1      49.490   8.082  16.431  0.00  0.00    +0.000 A 
ATOM      5  C   UNL     1      48.411   8.903  16.068  0.00  0.00    +0.000 A 
ATOM      6  C   UNL     1      47.838   8.816  14.795  0.00  0.00    +0.000 A 
ENDROOT
BRANCH   1   7
ATOM      7  C   UNL     1      47.746   7.820  12.475  0.00  0.00    +0.000 C 
BRANCH   7  10
ATOM      8  O   UNL     1      45.074   7.211  12.954  0.00  0.00    +0.000 OA
ATOM      9  C   UNL     1      45.804   6.338  12.487  0.00  0.00    +0.000 C 
ATOM     10  N   UNL     1      47.138   6.541  12.232  0.00  0.00    +0.000 N 
ATOM     11  H   UNL     1      47.664   5.762  11.849  0.00  0.00    +0.000 HD
BRANCH   9  12
ATOM     12  C   UNL     1      45.316   4.997  12.138  0.00  0.00    +0.000 A 
ATOM     13  N   UNL     1      45.005   4.075  13.079  0.00  0.00    +0.000 NA
ATOM     14  N   UNL     1      44.631   2.997  12.352  0.00  0.00    +0.000 N 
ATOM     15  C   UNL     1      44.701   3.183  11.004  0.00  0.00    +0.000 A 
ATOM     16  N   UNL     1      44.411   2.272  10.056  0.00  0.00    +0.000 NA
ATOM     17  C   UNL     1      44.592   2.752   8.802  0.00  0.00    +0.000 A 
ATOM     18  C   UNL     1      45.014   4.037   8.475  0.00  0.00    +0.000 A 
ATOM     19  C   UNL     1      45.291   4.939   9.502  0.00  0.00    +0.000 A 
ATOM     20  C   UNL     1      45.133   4.485  10.821  0.00  0.00    +0.000 A 
ATOM     21  H   UNL     1      44.342   2.153  12.828  0.00  0.00    +0.000 HD
ENDBRANCH   9  12
ENDBRANCH   7  10
ENDBRANCH   1   7
BRANCH   4  22
ATOM     22  C   UNL     1      50.076   8.220  17.824  0.00  0.00    +0.000 C 
BRANCH  22  23
ATOM     23  C   UNL     1      50.098   6.933  18.660  0.00  0.00    +0.000 C 
BRANCH  23  24
ATOM     24  N   UNL     1      48.760   6.387  18.826  0.00  0.00    +0.000 N 
ATOM     25  C   UNL     1      48.584   5.150  18.208  0.00  0.00    +0.000 A 
ATOM     26  N   UNL     1      49.609   4.308  18.092  0.00  0.00    +0.000 NA
ATOM     27  C   UNL     1      49.337   3.159  17.482  0.00  0.00    +0.000 A 
ATOM     28  N   UNL     1      48.158   2.796  16.992  0.00  0.00    +0.000 NA
ATOM     29  C   UNL     1      47.212   3.713  17.167  0.00  0.00    +0.000 A 
ATOM     30  N   UNL     1      47.362   4.901  17.751  0.00  0.00    +0.000 NA
ATOM     31  H   UNL     1      47.998   6.974  18.501  0.00  0.00    +0.000 HD
ENDBRANCH  23  24
ENDBRANCH  22  23
ENDBRANCH   4  22
TORSDOF 6
ENDMDL
MODEL 6
REMARK VINA RESULT:    -6.863      1.963      2.841
REMARK INTER + INTRA:          -9.963
REMARK INTER:                  -9.661
REMARK INTRA:                  -0.303
REMARK UNBOUND:                -0.694
REMARK  Name = 
REMARK  6 active torsions:
REMARK  status: ('A' for Active; 'I' for Inactive)
REMARK    1  A    between atoms: C_2  and  C_20
REMARK    2  A    between atoms: N_3  and  C_4
REMARK    3  A    between atoms: C_4  and  C_5
REMARK    4  A    between atoms: C_8  and  C_9
REMARK    5  A    between atoms: C_9  and  C_10
REMARK    6  A    between atoms: C_10  and  N_11
REMARK                            x       y       z     vdW  Elec       q    Type
REMARK                         _______ _______ _______ _____ _____    ______ ____
ROOT
ATOM      1  C   UNL     1      47.138   7.688  13.465  0.00  0.00    +0.000 A 
ATOM      2  C   UNL     1      45.888   7.877  12.867  0.00  0.00    +0.000 A 
ATOM      3  C   UNL     1      45.191   6.799  12.319  0.00  0.00    +0.000 A 
ATOM      4  C   UNL     1      45.717   5.502  12.364  0.00  0.00    +0.000 A 
ATOM      5  C   UNL     1      46.965   5.314  12.977  0.00  0.00    +0.000 A 
ATOM      6  C   UNL     1      47.665   6.393  13.527  0.00  0.00    +0.000 A 
ENDROOT
BRANCH   1   7
ATOM      7  C   UNL     1      47.884   8.858  14.036  0.00  0.00    +0.000 C 
BRANCH   7  10
ATOM      8  O   UNL     1      49.534   8.203  16.177  0.00  0.00    +0.000 OA
ATOM      9  C   UNL     1      48.450   8.738  16.410  0.00  0.00    +0.000 C 
ATOM     10  N   UNL     1      47.564   9.083  15.418  0.00  0.00    +0.000 N 
ATOM     11  H   UNL     1      46.692   9.518  15.703  0.00  0.00    +0.000 HD
BRANCH   9  12
ATOM     12  C   UNL     1      48.007   9.079  17.767  0.00  0.00    +0.000 A 
ATOM     13  N   UNL     1      47.730  10.351  18.138  0.00  0.00    +0.000 NA
ATOM     14  N   UNL     1      47.391  10.232  19.442  0.00  0.00    +0.000 N 
ATOM     15  C   UNL     1      47.450   8.957  19.920  0.00  0.00    +0.000 A 
ATOM     16  N   UNL     1      47.188   8.563  21.180  0.00  0.00    +0.000 NA
ATOM     17  C   UNL     1      47.349   7.229  21.351  0.00  0.00    +0.000 A 
ATOM     18  C   UNL     1      47.726   6.322  20.366  0.00  0.00    +0.000 A 
ATOM     19  C   UNL     1      47.976   6.789  19.076  0.00  0.00    +0.000 A 
ATOM     20  C   UNL     1      47.838   8.168  18.851  0.00  0.00    +0.000 A 
ATOM     21  H   UNL     1      47.132  11.058  19.965  0.00  0.00    +0.000 HD
ENDBRANCH   9  12
ENDBRANCH   7  10
ENDBRANCH   1   7
BRANCH   4  22
ATOM     22  C   UNL     1      45.002   4.296  11.780  0.00  0.00    +0.000 C 
BRANCH  22  23
ATOM     23  C   UNL     1      43.719   4.607  10.998  0.00  0.00    +0.000 C 
BRANCH  23  24
ATOM     24  N   UNL     1      44.009   4.919   9.607  0.00  0.00    +0.000 N 
ATOM     25  C   UNL     1      44.797   3.957   8.975  0.00  0.00    +0.000 A 
ATOM     26  N   UNL     1      44.717   2.680   9.343  0.00  0.00    +0.000 NA
ATOM     27  C   UNL     1      45.514   1.846   8.682  0.00  0.00    +0.000 A 
ATOM     28  N   UNL     1      46.360   2.178   7.715  0.00  0.00    +0.000 NA
ATOM     29  C   UNL     1      46.353   3.476   7.433  0.00  0.00    +0.000 A 
ATOM     30  N   UNL     1      45.610   4.409   8.028  0.00  0.00    +0.000 NA
ATOM     31  H   UNL     1      44.464   5.810   9.437  0.00  0.00    +0.000 HD
ENDBRANCH  23  24
ENDBRANCH  22  23
ENDBRANCH   4  22
TORSDOF 6
ENDMDL
MODEL 7
REMARK VINA RESULT:    -6.759      3.338      8.318
REMARK INTER + INTRA:          -9.823
REMARK INTER:                  -8.666
REMARK INTRA:                  -1.158
REMARK UNBOUND:                -0.694
REMARK  Name = 
REMARK  6 active torsions:
REMARK  status: ('A' for Active; 'I' for Inactive)
REMARK    1  A    between atoms: C_2  and  C_20
REMARK    2  A    between atoms: N_3  and  C_4
REMARK    3  A    between atoms: C_4  and  C_5
REMARK    4  A    between atoms: C_8  and  C_9
REMARK    5  A    between atoms: C_9  and  C_10
REMARK    6  A    between atoms: C_10  and  N_11
REMARK                            x       y       z     vdW  Elec       q    Type
REMARK                         _______ _______ _______ _____ _____    ______ ____
ROOT
ATOM      1  C   UNL     1      48.658   8.694  16.531  0.00  0.00    +0.000 A 
ATOM      2  C   UNL     1      47.805   8.937  17.612  0.00  0.00    +0.000 A 
ATOM      3  C   UNL     1      47.969   8.251  18.817  0.00  0.00    +0.000 A 
ATOM      4  C   UNL     1      48.997   7.312  18.979  0.00  0.00    +0.000 A 
ATOM      5  C   UNL     1      49.859   7.081  17.896  0.00  0.00    +0.000 A 
ATOM      6  C   UNL     1      49.695   7.768  16.688  0.00  0.00    +0.000 A 
ENDROOT
BRANCH   1   7
ATOM      7  C   UNL     1      48.460   9.426  15.237  0.00  0.00    +0.000 C 
BRANCH   7  10
ATOM      8  O   UNL     1      48.579   7.469  13.264  0.00  0.00    +0.000 OA
ATOM      9  C   UNL     1      47.484   7.950  13.552  0.00  0.00    +0.000 C 
ATOM     10  N   UNL     1      47.330   8.932  14.501  0.00  0.00    +0.000 N 
ATOM     11  H   UNL     1      46.389   9.272  14.671  0.00  0.00    +0.000 HD
BRANCH   9  12
ATOM     12  C   UNL     1      46.232   7.510  12.924  0.00  0.00    +0.000 A 
ATOM     13  N   UNL     1      45.308   8.386  12.464  0.00  0.00    +0.000 NA
ATOM     14  N   UNL     1      44.321   7.588  11.998  0.00  0.00    +0.000 N 
ATOM     15  C   UNL     1      44.564   6.255  12.149  0.00  0.00    +0.000 A 
ATOM     16  N   UNL     1      43.743   5.248  11.796  0.00  0.00    +0.000 NA
ATOM     17  C   UNL     1      44.259   4.030  12.089  0.00  0.00    +0.000 A 
ATOM     18  C   UNL     1      45.498   3.791  12.675  0.00  0.00    +0.000 A 
ATOM     19  C   UNL     1      46.308   4.875  13.012  0.00  0.00    +0.000 A 
ATOM     20  C   UNL     1      45.812   6.160  12.742  0.00  0.00    +0.000 A 
ATOM     21  H   UNL     1      43.495   8.005  11.589  0.00  0.00    +0.000 HD
ENDBRANCH   9  12
ENDBRANCH   7  10
ENDBRANCH   1   7
BRANCH   4  22
ATOM     22  C   UNL     1      49.216   6.536  20.264  0.00  0.00    +0.000 C 
BRANCH  22  23
ATOM     23  C   UNL     1      49.110   5.010  20.138  0.00  0.00    +0.000 C 
BRANCH  23  24
ATOM     24  N   UNL     1      47.936   4.623  19.371  0.00  0.00    +0.000 N 
ATOM     25  C   UNL     1      48.238   3.878  18.232  0.00  0.00    +0.000 A 
ATOM     26  N   UNL     1      49.305   3.082  18.216  0.00  0.00    +0.000 NA
ATOM     27  C   UNL     1      49.507   2.421  17.080  0.00  0.00    +0.000 A 
ATOM     28  N   UNL     1      48.752   2.493  15.992  0.00  0.00    +0.000 NA
ATOM     29  C   UNL     1      47.717   3.316  16.124  0.00  0.00    +0.000 A 
ATOM     30  N   UNL     1      47.415   4.037  17.203  0.00  0.00    +0.000 NA
ATOM     31  H   UNL     1      47.339   5.382  19.060  0.00  0.00    +0.000 HD
ENDBRANCH  23  24
ENDBRANCH  22  23
ENDBRANCH   4  22
TORSDOF 6
ENDMDL
MODEL 8
REMARK VINA RESULT:    -6.744      2.019      2.366
REMARK INTER + INTRA:          -9.804
REMARK INTER:                  -9.119
REMARK INTRA:                  -0.685
REMARK UNBOUND:                -0.694
REMARK  Name = 
REMARK  6 active torsions:
REMARK  status: ('A' for Active; 'I' for Inactive)
REMARK    1  A    between atoms: C_2  and  C_20
REMARK    2  A    between atoms: N_3  and  C_4
REMARK    3  A    between atoms: C_4  and  C_5
REMARK    4  A    between atoms: C_8  and  C_9
REMARK    5  A    between atoms: C_9  and  C_10
REMARK    6  A    between atoms: C_10  and  N_11
REMARK                            x       y       z     vdW  Elec       q    Type
REMARK                         _______ _______ _______ _____ _____    ______ ____
ROOT
ATOM      1  C   UNL     1      45.906   7.000  12.610  0.00  0.00    +0.000 A 
ATOM      2  C   UNL     1      46.287   5.682  12.878  0.00  0.00    +0.000 A 
ATOM      3  C   UNL     1      45.506   4.612  12.438  0.00  0.00    +0.000 A 
ATOM      4  C   UNL     1      44.329   4.829  11.710  0.00  0.00    +0.000 A 
ATOM      5  C   UNL     1      43.957   6.154  11.432  0.00  0.00    +0.000 A 
ATOM      6  C   UNL     1      44.739   7.227  11.872  0.00  0.00    +0.000 A 
ENDROOT
BRANCH   1   7
ATOM      7  C   UNL     1      46.747   8.142  13.102  0.00  0.00    +0.000 C 
BRANCH   7  10
ATOM      8  O   UNL     1      48.730   9.700  14.275  0.00  0.00    +0.000 OA
ATOM      9  C   UNL     1      48.374   8.671  14.847  0.00  0.00    +0.000 C 
ATOM     10  N   UNL     1      47.415   7.831  14.336  0.00  0.00    +0.000 N 
ATOM     11  H   UNL     1      47.186   7.002  14.875  0.00  0.00    +0.000 HD
BRANCH   9  12
ATOM     12  C   UNL     1      48.926   8.248  16.140  0.00  0.00    +0.000 A 
ATOM     13  N   UNL     1      49.827   7.242  16.247  0.00  0.00    +0.000 NA
ATOM     14  N   UNL     1      50.050   7.159  17.578  0.00  0.00    +0.000 N 
ATOM     15  C   UNL     1      49.330   8.047  18.320  0.00  0.00    +0.000 A 
ATOM     16  N   UNL     1      49.343   8.162  19.662  0.00  0.00    +0.000 NA
ATOM     17  C   UNL     1      48.506   9.130  20.108  0.00  0.00    +0.000 A 
ATOM     18  C   UNL     1      47.713   9.950  19.312  0.00  0.00    +0.000 A 
ATOM     19  C   UNL     1      47.749   9.789  17.927  0.00  0.00    +0.000 A 
ATOM     20  C   UNL     1      48.590   8.788  17.415  0.00  0.00    +0.000 A 
ATOM     21  H   UNL     1      50.701   6.470  17.931  0.00  0.00    +0.000 HD
ENDBRANCH   9  12
ENDBRANCH   7  10
ENDBRANCH   1   7
BRANCH   4  22
ATOM     22  C   UNL     1      43.441   3.703  11.213  0.00  0.00    +0.000 C 
BRANCH  22  23
ATOM     23  C   UNL     1      44.085   2.763  10.185  0.00  0.00    +0.000 C 
BRANCH  23  24
ATOM     24  N   UNL     1      44.276   3.429   8.905  0.00  0.00    +0.000 N 
ATOM     25  C   UNL     1      45.404   2.990   8.214  0.00  0.00    +0.000 A 
ATOM     26  N   UNL     1      45.829   1.736   8.353  0.00  0.00    +0.000 NA
ATOM     27  C   UNL     1      46.916   1.421   7.655  0.00  0.00    +0.000 A 
ATOM     28  N   UNL     1      47.593   2.236   6.857  0.00  0.00    +0.000 NA
ATOM     29  C   UNL     1      47.077   3.459   6.796  0.00  0.00    +0.000 A 
ATOM     30  N   UNL     1      46.003   3.897   7.451  0.00  0.00    +0.000 NA
ATOM     31  H   UNL     1      44.343   4.441   8.938  0.00  0.00    +0.000 HD
ENDBRANCH  23  24
ENDBRANCH  22  23
ENDBRANCH   4  22
TORSDOF 6
ENDMDL
MODEL 9
REMARK VINA RESULT:    -6.548      2.732      3.654
REMARK INTER + INTRA:          -9.538
REMARK INTER:                  -8.703
REMARK INTRA:                  -0.835
REMARK UNBOUND:                -0.694
REMARK  Name = 
REMARK  6 active torsions:
REMARK  status: ('A' for Active; 'I' for Inactive)
REMARK    1  A    between atoms: C_2  and  C_20
REMARK    2  A    between atoms: N_3  and  C_4
REMARK    3  A    between atoms: C_4  and  C_5
REMARK    4  A    between atoms: C_8  and  C_9
REMARK    5  A    between atoms: C_9  and  C_10
REMARK    6  A    between atoms: C_10  and  N_11
REMARK                            x       y       z     vdW  Elec       q    Type
REMARK                         _______ _______ _______ _____ _____    ______ ____
ROOT
ATOM      1  C   UNL     1      47.978   7.686  13.693  0.00  0.00    +0.000 A 
ATOM      2  C   UNL     1      47.002   8.553  13.194  0.00  0.00    +0.000 A 
ATOM      3  C   UNL     1      45.793   8.057  12.702  0.00  0.00    +0.000 A 
ATOM      4  C   UNL     1      45.523   6.682  12.704  0.00  0.00    +0.000 A 
ATOM      5  C   UNL     1      46.501   5.816  13.217  0.00  0.00    +0.000 A 
ATOM      6  C   UNL     1      47.712   6.312  13.711  0.00  0.00    +0.000 A 
ENDROOT
BRANCH   1   7
ATOM      7  C   UNL     1      49.279   8.232  14.205  0.00  0.00    +0.000 C 
BRANCH   7  10
ATOM      8  O   UNL     1      49.863   8.209  16.924  0.00  0.00    +0.000 OA
ATOM      9  C   UNL     1      50.289   7.293  16.222  0.00  0.00    +0.000 C 
ATOM     10  N   UNL     1      50.064   7.228  14.868  0.00  0.00    +0.000 N 
ATOM     11  H   UNL     1      50.456   6.436  14.368  0.00  0.00    +0.000 HD
BRANCH   9  12
ATOM     12  C   UNL     1      51.062   6.168  16.765  0.00  0.00    +0.000 A 
ATOM     13  N   UNL     1      52.389   6.259  17.014  0.00  0.00    +0.000 NA
ATOM     14  N   UNL     1      52.709   5.026  17.469  0.00  0.00    +0.000 N 
ATOM     15  C   UNL     1      51.659   4.157  17.509  0.00  0.00    +0.000 A 
ATOM     16  N   UNL     1      51.704   2.868  17.896  0.00  0.00    +0.000 NA
ATOM     17  C   UNL     1      50.496   2.259  17.812  0.00  0.00    +0.000 A 
ATOM     18  C   UNL     1      49.311   2.856  17.393  0.00  0.00    +0.000 A 
ATOM     19  C   UNL     1      49.327   4.197  17.011  0.00  0.00    +0.000 A 
ATOM     20  C   UNL     1      50.558   4.870  17.067  0.00  0.00    +0.000 A 
ATOM     21  H   UNL     1      53.664   4.826  17.734  0.00  0.00    +0.000 HD
ENDBRANCH   9  12
ENDBRANCH   7  10
ENDBRANCH   1   7
BRANCH   4  22
ATOM     22  C   UNL     1      44.229   6.090  12.176  0.00  0.00    +0.000 C 
BRANCH  22  23
ATOM     23  C   UNL     1      44.383   4.815  11.336  0.00  0.00    +0.000 C 
BRANCH  23  24
ATOM     24  N   UNL     1      44.486   5.125   9.919  0.00  0.00    +0.000 N 
ATOM     25  C   UNL     1      45.107   4.122   9.175  0.00  0.00    +0.000 A 
ATOM     26  N   UNL     1      44.997   2.848   9.546  0.00  0.00    +0.000 NA
ATOM     27  C   UNL     1      45.631   1.972   8.773  0.00  0.00    +0.000 A 
ATOM     28  N   UNL     1      46.347   2.260   7.693  0.00  0.00    +0.000 NA
ATOM     29  C   UNL     1      46.385   3.560   7.419  0.00  0.00    +0.000 A 
ATOM     30  N   UNL     1      45.801   4.531   8.120  0.00  0.00    +0.000 NA
ATOM     31  H   UNL     1      44.970   5.986   9.687  0.00  0.00    +0.000 HD
ENDBRANCH  23  24
ENDBRANCH  22  23
ENDBRANCH   4  22
TORSDOF 6
ENDMDL
