MODEL 1
REMARK VINA RESULT:    -8.259      0.000      0.000
REMARK INTER + INTRA:         -12.157
REMARK INTER:                 -11.156
REMARK INTRA:                  -1.001
REMARK UNBOUND:                -1.001
REMARK  Name = 
REMARK  8 active torsions:
REMARK  status: ('A' for Active; 'I' for Inactive)
REMARK    1  A    between atoms: C_1  and  C_2
REMARK    2  A    between atoms: C_2  and  N_3
REMARK    3  A    between atoms: C_2  and  C_25
REMARK    4  A    between atoms: N_3  and  C_4
REMARK    5  A    between atoms: C_7  and  C_8
REMARK    6  A    between atoms: C_8  and  C_9
REMARK    7  A    between atoms: C_8  and  N_10
REMARK    8  A    between atoms: C_11  and  C_13
REMARK                            x       y       z     vdW  Elec       q    Type
REMARK                         _______ _______ _______ _____ _____    ______ ____
ROOT
ATOM      1  C   UNL     1      46.751   7.972  12.879  0.00  0.00    +0.000 C 
ATOM      2  C   UNL     1      45.834   9.156  13.227  0.00  0.00    +0.000 C 
ENDROOT
BRANCH   1   6
ATOM      3  C   UNL     1      44.715   5.255  10.197  0.00  0.00    +0.000 A 
ATOM      4  C   UNL     1      44.111   5.622  11.400  0.00  0.00    +0.000 A 
ATOM      5  C   UNL     1      44.737   6.541  12.264  0.00  0.00    +0.000 A 
ATOM      6  C   UNL     1      46.010   6.999  11.956  0.00  0.00    +0.000 A 
ATOM      7  N   UNL     1      46.660   6.577  10.844  0.00  0.00    +0.000 NA
ATOM      8  C   UNL     1      46.012   5.723  10.019  0.00  0.00    +0.000 A 
BRANCH   3   9
ATOM      9  N   UNL     1      44.054   4.397   9.307  0.00  0.00    +0.000 N 
ATOM     10  H   UNL     1      43.047   4.557   9.379  0.00  0.00    +0.000 HD
BRANCH   9  12
ATOM     11  C   UNL     1      44.868   2.521  10.759  0.00  0.00    +0.000 C 
ATOM     12  C   UNL     1      44.329   2.939   9.385  0.00  0.00    +0.000 C 
BRANCH  12  13
ATOM     13  C   UNL     1      45.369   2.594   8.328  0.00  0.00    +0.000 A 
ATOM     14  C   UNL     1      45.732   3.516   7.334  0.00  0.00    +0.000 A 
ATOM     15  C   UNL     1      46.771   3.219   6.447  0.00  0.00    +0.000 A 
ATOM     16  C   UNL     1      47.451   2.006   6.543  0.00  0.00    +0.000 A 
ATOM     17  C   UNL     1      47.058   1.062   7.488  0.00  0.00    +0.000 A 
ATOM     18  C   UNL     1      46.011   1.344   8.358  0.00  0.00    +0.000 A 
ENDBRANCH  12  13
ENDBRANCH   9  12
ENDBRANCH   3   9
ENDBRANCH   1   6
BRANCH   1  19
ATOM     19  N   UNL     1      47.223   7.331  14.100  0.00  0.00    +0.000 N 
ATOM     20  C   UNL     1      48.494   6.858  14.275  0.00  0.00    +0.000 C 
ATOM     21  O   UNL     1      49.363   6.928  13.407  0.00  0.00    +0.000 OA
ATOM     22  H   UNL     1      46.491   6.933  14.682  0.00  0.00    +0.000 HD
BRANCH  20  23
ATOM     23  C   UNL     1      48.788   6.309  15.614  0.00  0.00    +0.000 A 
ATOM     24  C   UNL     1      49.731   6.919  16.432  0.00  0.00    +0.000 A 
ATOM     25  S   UNL     1      49.932   6.139  17.937  0.00  0.00    +0.000 S 
ATOM     26  C   UNL     1      48.791   4.942  17.533  0.00  0.00    +0.000 A 
ATOM     27  N   UNL     1      48.515   3.914  18.381  0.00  0.00    +0.000 NA
ATOM     28  C   UNL     1      47.653   3.066  17.924  0.00  0.00    +0.000 A 
ATOM     29  N   UNL     1      47.030   3.158  16.714  0.00  0.00    +0.000 N 
ATOM     30  C   UNL     1      47.219   4.213  15.853  0.00  0.00    +0.000 A 
ATOM     31  O   UNL     1      46.556   4.324  14.837  0.00  0.00    +0.000 OA
ATOM     32  C   UNL     1      48.228   5.160  16.289  0.00  0.00    +0.000 A 
ATOM     33  H   UNL     1      46.336   2.480  16.427  0.00  0.00    +0.000 HD
ENDBRANCH  20  23
ENDBRANCH   1  19
TORSDOF 6
ENDMDL
MODEL 2
REMARK VINA RESULT:    -7.733      3.089      8.072
REMARK INTER + INTRA:         -11.446
REMARK INTER:                 -10.177
REMARK INTRA:                  -1.269
REMARK UNBOUND:                -1.001
REMARK  Name = 
REMARK  8 active torsions:
REMARK  status: ('A' for Active; 'I' for Inactive)
REMARK    1  A    between atoms: C_1  and  C_2
REMARK    2  A    between atoms: C_2  and  N_3
REMARK    3  A    between atoms: C_2  and  C_25
REMARK    4  A    between atoms: N_3  and  C_4
REMARK    5  A    between atoms: C_7  and  C_8
REMARK    6  A    between atoms: C_8  and  C_9
REMARK    7  A    between atoms: C_8  and  N_10
REMARK    8  A    between atoms: C_11  and  C_13
REMARK                            x       y       z     vdW  Elec       q    Type
REMARK                         _______ _______ _______ _____ _____    ______ ____
ROOT
ATOM      1  C   UNL     1      48.493   7.544  12.590  0.00  0.00    +0.000 C 
ATOM      2  C   UNL     1      49.743   7.822  11.739  0.00  0.00    +0.000 C 
ENDROOT
BRANCH   1   6
ATOM      3  C   UNL     1      49.588   6.342  16.600  0.00  0.00    +0.000 A 
ATOM      4  C   UNL     1      50.417   7.206  15.887  0.00  0.00    +0.000 A 
ATOM      5  C   UNL     1      50.055   7.646  14.599  0.00  0.00    +0.000 A 
ATOM      6  C   UNL     1      48.913   7.127  14.004  0.00  0.00    +0.000 A 
ATOM      7  N   UNL     1      48.147   6.206  14.637  0.00  0.00    +0.000 NA
ATOM      8  C   UNL     1      48.505   5.837  15.888  0.00  0.00    +0.000 A 
BRANCH   3   9
ATOM      9  N   UNL     1      49.916   5.967  17.911  0.00  0.00    +0.000 N 
ATOM     10  H   UNL     1      50.925   6.062  18.039  0.00  0.00    +0.000 HD
BRANCH   9  12
ATOM     11  C   UNL     1      49.208   4.627  19.910  0.00  0.00    +0.000 C 
ATOM     12  C   UNL     1      49.480   4.633  18.401  0.00  0.00    +0.000 C 
BRANCH  12  13
ATOM     13  C   UNL     1      50.586   3.631  18.102  0.00  0.00    +0.000 A 
ATOM     14  C   UNL     1      51.906   3.855  18.522  0.00  0.00    +0.000 A 
ATOM     15  C   UNL     1      52.879   2.869  18.337  0.00  0.00    +0.000 A 
ATOM     16  C   UNL     1      52.545   1.657  17.734  0.00  0.00    +0.000 A 
ATOM     17  C   UNL     1      51.252   1.449  17.262  0.00  0.00    +0.000 A 
ATOM     18  C   UNL     1      50.286   2.437  17.424  0.00  0.00    +0.000 A 
ENDBRANCH  12  13
ENDBRANCH   9  12
ENDBRANCH   3   9
ENDBRANCH   1   6
BRANCH   1  19
ATOM     19  N   UNL     1      47.660   6.540  11.940  0.00  0.00    +0.000 N 
ATOM     20  C   UNL     1      46.353   6.741  11.589  0.00  0.00    +0.000 C 
ATOM     21  O   UNL     1      45.755   7.795  11.797  0.00  0.00    +0.000 OA
ATOM     22  H   UNL     1      47.967   5.582  12.071  0.00  0.00    +0.000 HD
BRANCH  20  23
ATOM     23  C   UNL     1      45.709   5.621  10.873  0.00  0.00    +0.000 A 
ATOM     24  C   UNL     1      45.783   5.538   9.488  0.00  0.00    +0.000 A 
ATOM     25  S   UNL     1      44.979   4.177   8.845  0.00  0.00    +0.000 S 
ATOM     26  C   UNL     1      44.478   3.671  10.390  0.00  0.00    +0.000 A 
ATOM     27  N   UNL     1      43.694   2.571  10.554  0.00  0.00    +0.000 NA
ATOM     28  C   UNL     1      43.368   2.330  11.782  0.00  0.00    +0.000 A 
ATOM     29  N   UNL     1      43.764   3.070  12.857  0.00  0.00    +0.000 N 
ATOM     30  C   UNL     1      44.614   4.146  12.753  0.00  0.00    +0.000 A 
ATOM     31  O   UNL     1      45.044   4.708  13.745  0.00  0.00    +0.000 OA
ATOM     32  C   UNL     1      44.958   4.500  11.388  0.00  0.00    +0.000 A 
ATOM     33  H   UNL     1      43.504   2.809  13.799  0.00  0.00    +0.000 HD
ENDBRANCH  20  23
ENDBRANCH   1  19
TORSDOF 6
ENDMDL
MODEL 3
REMARK VINA RESULT:    -7.680      2.155      2.883
REMARK INTER + INTRA:         -11.375
REMARK INTER:                 -11.095
REMARK INTRA:                  -0.280
REMARK UNBOUND:                -1.001
REMARK  Name = 
REMARK  8 active torsions:
REMARK  status: ('A' for Active; 'I' for Inactive)
REMARK    1  A    between atoms: C_1  and  C_2
REMARK    2  A    between atoms: C_2  and  N_3
REMARK    3  A    between atoms: C_2  and  C_25
REMARK    4  A    between atoms: N_3  and  C_4
REMARK    5  A    between atoms: C_7  and  C_8
REMARK    6  A    between atoms: C_8  and  C_9
REMARK    7  A    between atoms: C_8  and  N_10
REMARK    8  A    between atoms: C_11  and  C_13
REMARK                            x       y       z     vdW  Elec       q    Type
REMARK                         _______ _______ _______ _____ _____    ______ ____
ROOT
ATOM      1  C   UNL     1      48.510   6.292  14.035  0.00  0.00    +0.000 C 
ATOM      2  C   UNL     1      49.305   7.469  13.448  0.00  0.00    +0.000 C 
ENDROOT
BRANCH   1   6
ATOM      3  C   UNL     1      44.943   5.518  11.711  0.00  0.00    +0.000 A 
ATOM      4  C   UNL     1      45.926   6.368  11.207  0.00  0.00    +0.000 A 
ATOM      5  C   UNL     1      47.114   6.596  11.927  0.00  0.00    +0.000 A 
ATOM      6  C   UNL     1      47.252   6.047  13.194  0.00  0.00    +0.000 A 
ATOM      7  N   UNL     1      46.266   5.300  13.748  0.00  0.00    +0.000 NA
ATOM      8  C   UNL     1      45.156   5.072  13.011  0.00  0.00    +0.000 A 
BRANCH   3   9
ATOM      9  N   UNL     1      43.795   5.236  10.957  0.00  0.00    +0.000 N 
ATOM     10  H   UNL     1      42.980   5.619  11.438  0.00  0.00    +0.000 HD
BRANCH   9  12
ATOM     11  C   UNL     1      43.589   2.872  11.769  0.00  0.00    +0.000 C 
ATOM     12  C   UNL     1      43.525   3.827  10.571  0.00  0.00    +0.000 C 
BRANCH  12  13
ATOM     13  C   UNL     1      44.573   3.403   9.552  0.00  0.00    +0.000 A 
ATOM     14  C   UNL     1      45.018   2.074   9.475  0.00  0.00    +0.000 A 
ATOM     15  C   UNL     1      45.894   1.685   8.458  0.00  0.00    +0.000 A 
ATOM     16  C   UNL     1      46.332   2.613   7.515  0.00  0.00    +0.000 A 
ATOM     17  C   UNL     1      45.942   3.946   7.618  0.00  0.00    +0.000 A 
ATOM     18  C   UNL     1      45.087   4.342   8.642  0.00  0.00    +0.000 A 
ENDBRANCH  12  13
ENDBRANCH   9  12
ENDBRANCH   3   9
ENDBRANCH   1   6
BRANCH   1  19
ATOM     19  N   UNL     1      48.200   6.549  15.436  0.00  0.00    +0.000 N 
ATOM     20  C   UNL     1      49.061   6.297  16.470  0.00  0.00    +0.000 C 
ATOM     21  O   UNL     1      50.183   5.822  16.309  0.00  0.00    +0.000 OA
ATOM     22  H   UNL     1      47.209   6.591  15.652  0.00  0.00    +0.000 HD
BRANCH  20  23
ATOM     23  C   UNL     1      48.580   6.698  17.807  0.00  0.00    +0.000 A 
ATOM     24  C   UNL     1      48.213   8.015  18.056  0.00  0.00    +0.000 A 
ATOM     25  S   UNL     1      47.686   8.283  19.657  0.00  0.00    +0.000 S 
ATOM     26  C   UNL     1      47.962   6.658  20.081  0.00  0.00    +0.000 A 
ATOM     27  N   UNL     1      47.756   6.214  21.350  0.00  0.00    +0.000 NA
ATOM     28  C   UNL     1      48.039   4.965  21.528  0.00  0.00    +0.000 A 
ATOM     29  N   UNL     1      48.489   4.118  20.557  0.00  0.00    +0.000 N 
ATOM     30  C   UNL     1      48.644   4.499  19.245  0.00  0.00    +0.000 A 
ATOM     31  O   UNL     1      48.929   3.687  18.383  0.00  0.00    +0.000 OA
ATOM     32  C   UNL     1      48.402   5.909  19.004  0.00  0.00    +0.000 A 
ATOM     33  H   UNL     1      48.659   3.141  20.751  0.00  0.00    +0.000 HD
ENDBRANCH  20  23
ENDBRANCH   1  19
TORSDOF 6
ENDMDL
MODEL 4
REMARK VINA RESULT:    -7.636      3.248      4.800
REMARK INTER + INTRA:         -11.316
REMARK INTER:                  -9.982
REMARK INTRA:                  -1.334
REMARK UNBOUND:                -1.001
REMARK  Name = 
REMARK  8 active torsions:
REMARK  status: ('A' for Active; 'I' for Inactive)
REMARK    1  A    between atoms: C_1  and  C_2
REMARK    2  A    between atoms: C_2  and  N_3
REMARK    3  A    between atoms: C_2  and  C_25
REMARK    4  A    between atoms: N_3  and  C_4
REMARK    5  A    between atoms: C_7  and  C_8
REMARK    6  A    between atoms: C_8  and  C_9
REMARK    7  A    between atoms: C_8  and  N_10
REMARK    8  A    between atoms: C_11  and  C_13
REMARK                            x       y       z     vdW  Elec       q    Type
REMARK                         _______ _______ _______ _____ _____    ______ ____
ROOT
ATOM      1  C   UNL     1      49.396   6.354  17.165  0.00  0.00    +0.000 C 
ATOM      2  C   UNL     1      48.583   6.878  18.361  0.00  0.00    +0.000 C 
ENDROOT
BRANCH   1   6
ATOM      3  C   UNL     1      46.731   4.578  14.255  0.00  0.00    +0.000 A 
ATOM      4  C   UNL     1      47.371   5.782  13.963  0.00  0.00    +0.000 A 
ATOM      5  C   UNL     1      48.277   6.352  14.877  0.00  0.00    +0.000 A 
ATOM      6  C   UNL     1      48.449   5.756  16.119  0.00  0.00    +0.000 A 
ATOM      7  N   UNL     1      47.759   4.642  16.466  0.00  0.00    +0.000 NA
ATOM      8  C   UNL     1      46.927   4.102  15.547  0.00  0.00    +0.000 A 
BRANCH   3   9
ATOM      9  N   UNL     1      45.887   3.978  13.310  0.00  0.00    +0.000 N 
ATOM     10  H   UNL     1      46.444   3.371  12.707  0.00  0.00    +0.000 HD
BRANCH   9  12
ATOM     11  C   UNL     1      43.567   4.866  12.956  0.00  0.00    +0.000 C 
ATOM     12  C   UNL     1      45.023   4.849  12.472  0.00  0.00    +0.000 C 
BRANCH  12  13
ATOM     13  C   UNL     1      45.056   4.320  11.045  0.00  0.00    +0.000 A 
ATOM     14  C   UNL     1      44.528   3.060  10.722  0.00  0.00    +0.000 A 
ATOM     15  C   UNL     1      44.465   2.646   9.389  0.00  0.00    +0.000 A 
ATOM     16  C   UNL     1      44.926   3.480   8.372  0.00  0.00    +0.000 A 
ATOM     17  C   UNL     1      45.505   4.707   8.688  0.00  0.00    +0.000 A 
ATOM     18  C   UNL     1      45.590   5.113  10.015  0.00  0.00    +0.000 A 
ENDBRANCH  12  13
ENDBRANCH   9  12
ENDBRANCH   3   9
ENDBRANCH   1   6
BRANCH   1  19
ATOM     19  N   UNL     1      50.396   5.396  17.622  0.00  0.00    +0.000 N 
ATOM     20  C   UNL     1      51.694   5.380  17.191  0.00  0.00    +0.000 C 
ATOM     21  O   UNL     1      52.139   6.176  16.368  0.00  0.00    +0.000 OA
ATOM     22  H   UNL     1      50.017   4.533  18.000  0.00  0.00    +0.000 HD
BRANCH  20  23
ATOM     23  C   UNL     1      52.562   4.373  17.835  0.00  0.00    +0.000 A 
ATOM     24  C   UNL     1      53.699   4.768  18.529  0.00  0.00    +0.000 A 
ATOM     25  S   UNL     1      54.573   3.464  19.199  0.00  0.00    +0.000 S 
ATOM     26  C   UNL     1      53.481   2.327  18.557  0.00  0.00    +0.000 A 
ATOM     27  N   UNL     1      53.675   0.991  18.721  0.00  0.00    +0.000 NA
ATOM     28  C   UNL     1      52.781   0.251  18.150  0.00  0.00    +0.000 A 
ATOM     29  N   UNL     1      51.709   0.720  17.448  0.00  0.00    +0.000 N 
ATOM     30  C   UNL     1      51.430   2.059  17.314  0.00  0.00    +0.000 A 
ATOM     31  O   UNL     1      50.399   2.438  16.787  0.00  0.00    +0.000 OA
ATOM     32  C   UNL     1      52.437   2.934  17.882  0.00  0.00    +0.000 A 
ATOM     33  H   UNL     1      51.024   0.089  17.053  0.00  0.00    +0.000 HD
ENDBRANCH  20  23
ENDBRANCH   1  19
TORSDOF 6
ENDMDL
MODEL 5
REMARK VINA RESULT:    -7.590      2.564      3.451
REMARK INTER + INTRA:         -11.253
REMARK INTER:                 -10.621
REMARK INTRA:                  -0.632
REMARK UNBOUND:                -1.001
REMARK  Name = 
REMARK  8 active torsions:
REMARK  status: ('A' for Active; 'I' for Inactive)
REMARK    1  A    between atoms: C_1  and  C_2
REMARK    2  A    between atoms: C_2  and  N_3
REMARK    3  A    between atoms: C_2  and  C_25
REMARK    4  A    between atoms: N_3  and  C_4
REMARK    5  A    between atoms: C_7  and  C_8
REMARK    6  A    between atoms: C_8  and  C_9
REMARK    7  A    between atoms: C_8  and  N_10
REMARK    8  A    between atoms: C_11  and  C_13
REMARK                            x       y       z     vdW  Elec       q    Type
REMARK                         _______ _______ _______ _____ _____    ______ ____
ROOT
ATOM      1  C   UNL     1      48.509   6.461  13.990  0.00  0.00    +0.000 C 
ATOM      2  C   UNL     1      49.318   7.646  13.436  0.00  0.00    +0.000 C 
ENDROOT
BRANCH   1   6
ATOM      3  C   UNL     1      45.014   5.699  11.554  0.00  0.00    +0.000 A 
ATOM      4  C   UNL     1      46.069   6.448  11.035  0.00  0.00    +0.000 A 
ATOM      5  C   UNL     1      47.234   6.668  11.795  0.00  0.00    +0.000 A 
ATOM      6  C   UNL     1      47.280   6.218  13.107  0.00  0.00    +0.000 A 
ATOM      7  N   UNL     1      46.226   5.577  13.667  0.00  0.00    +0.000 NA
ATOM      8  C   UNL     1      45.139   5.350  12.895  0.00  0.00    +0.000 A 
BRANCH   3   9
ATOM      9  N   UNL     1      43.889   5.421  10.766  0.00  0.00    +0.000 N 
ATOM     10  H   UNL     1      43.079   5.898  11.165  0.00  0.00    +0.000 HD
BRANCH   9  12
ATOM     11  C   UNL     1      43.675   3.121  11.745  0.00  0.00    +0.000 C 
ATOM     12  C   UNL     1      43.541   4.002  10.496  0.00  0.00    +0.000 C 
BRANCH  12  13
ATOM     13  C   UNL     1      44.486   3.475   9.425  0.00  0.00    +0.000 A 
ATOM     14  C   UNL     1      45.037   4.328   8.456  0.00  0.00    +0.000 A 
ATOM     15  C   UNL     1      45.991   3.845   7.556  0.00  0.00    +0.000 A 
ATOM     16  C   UNL     1      46.400   2.513   7.614  0.00  0.00    +0.000 A 
ATOM     17  C   UNL     1      45.816   1.647   8.534  0.00  0.00    +0.000 A 
ATOM     18  C   UNL     1      44.851   2.118   9.417  0.00  0.00    +0.000 A 
ENDBRANCH  12  13
ENDBRANCH   9  12
ENDBRANCH   3   9
ENDBRANCH   1   6
BRANCH   1  19
ATOM     19  N   UNL     1      48.154   6.707  15.382  0.00  0.00    +0.000 N 
ATOM     20  C   UNL     1      48.917   6.314  16.447  0.00  0.00    +0.000 C 
ATOM     21  O   UNL     1      49.980   5.708  16.326  0.00  0.00    +0.000 OA
ATOM     22  H   UNL     1      47.164   6.864  15.547  0.00  0.00    +0.000 HD
BRANCH  20  23
ATOM     23  C   UNL     1      48.413   6.725  17.774  0.00  0.00    +0.000 A 
ATOM     24  C   UNL     1      48.200   5.779  18.768  0.00  0.00    +0.000 A 
ATOM     25  S   UNL     1      47.617   6.446  20.227  0.00  0.00    +0.000 S 
ATOM     26  C   UNL     1      47.598   8.016  19.569  0.00  0.00    +0.000 A 
ATOM     27  N   UNL     1      47.149   9.078  20.289  0.00  0.00    +0.000 NA
ATOM     28  C   UNL     1      47.165  10.200  19.646  0.00  0.00    +0.000 A 
ATOM     29  N   UNL     1      47.602  10.361  18.363  0.00  0.00    +0.000 N 
ATOM     30  C   UNL     1      48.132   9.334  17.619  0.00  0.00    +0.000 A 
ATOM     31  O   UNL     1      48.624   9.539  16.524  0.00  0.00    +0.000 OA
ATOM     32  C   UNL     1      48.077   8.040  18.271  0.00  0.00    +0.000 A 
ATOM     33  H   UNL     1      47.622  11.273  17.927  0.00  0.00    +0.000 HD
ENDBRANCH  20  23
ENDBRANCH   1  19
TORSDOF 6
ENDMDL
MODEL 6
REMARK VINA RESULT:    -7.578      3.035      8.394
REMARK INTER + INTRA:         -11.237
REMARK INTER:                  -9.973
REMARK INTRA:                  -1.264
REMARK UNBOUND:                -1.001
REMARK  Name = 
REMARK  8 active torsions:
REMARK  status: ('A' for Active; 'I' for Inactive)
REMARK    1  A    between atoms: C_1  and  C_2
REMARK    2  A    between atoms: C_2  and  N_3
REMARK    3  A    between atoms: C_2  and  C_25
REMARK    4  A    between atoms: N_3  and  C_4
REMARK    5  A    between atoms: C_7  and  C_8
REMARK    6  A    between atoms: C_8  and  C_9
REMARK    7  A    between atoms: C_8  and  N_10
REMARK    8  A    between atoms: C_11  and  C_13
REMARK                            x       y       z     vdW  Elec       q    Type
REMARK                         _______ _______ _______ _____ _____    ______ ____
ROOT
ATOM      1  C   UNL     1      47.938   7.297  12.671  0.00  0.00    +0.000 C 
ATOM      2  C   UNL     1      48.920   7.604  11.528  0.00  0.00    +0.000 C 
ENDROOT
BRANCH   1   6
ATOM      3  C   UNL     1      50.055   6.511  16.363  0.00  0.00    +0.000 A 
ATOM      4  C   UNL     1      50.652   7.295  15.376  0.00  0.00    +0.000 A 
ATOM      5  C   UNL     1      49.961   7.600  14.188  0.00  0.00    +0.000 A 
ATOM      6  C   UNL     1      48.718   7.027  13.963  0.00  0.00    +0.000 A 
ATOM      7  N   UNL     1      48.161   6.179  14.862  0.00  0.00    +0.000 NA
ATOM      8  C   UNL     1      48.837   5.939  16.008  0.00  0.00    +0.000 A 
BRANCH   3   9
ATOM      9  N   UNL     1      50.718   6.272  17.575  0.00  0.00    +0.000 N 
ATOM     10  H   UNL     1      51.712   6.133  17.386  0.00  0.00    +0.000 HD
BRANCH   9  12
ATOM     11  C   UNL     1      50.483   5.464  19.938  0.00  0.00    +0.000 C 
ATOM     12  C   UNL     1      50.224   5.180  18.453  0.00  0.00    +0.000 C 
BRANCH  12  13
ATOM     13  C   UNL     1      50.947   3.896  18.070  0.00  0.00    +0.000 A 
ATOM     14  C   UNL     1      52.316   3.725  18.331  0.00  0.00    +0.000 A 
ATOM     15  C   UNL     1      52.931   2.496  18.075  0.00  0.00    +0.000 A 
ATOM     16  C   UNL     1      52.190   1.434  17.559  0.00  0.00    +0.000 A 
ATOM     17  C   UNL     1      50.846   1.613  17.243  0.00  0.00    +0.000 A 
ATOM     18  C   UNL     1      50.235   2.841  17.475  0.00  0.00    +0.000 A 
ENDBRANCH  12  13
ENDBRANCH   9  12
ENDBRANCH   3   9
ENDBRANCH   1   6
BRANCH   1  19
ATOM     19  N   UNL     1      47.073   6.184  12.300  0.00  0.00    +0.000 N 
ATOM     20  C   UNL     1      45.707   6.222  12.361  0.00  0.00    +0.000 C 
ATOM     21  O   UNL     1      45.079   7.207  12.743  0.00  0.00    +0.000 OA
ATOM     22  H   UNL     1      47.518   5.271  12.330  0.00  0.00    +0.000 HD
BRANCH  20  23
ATOM     23  C   UNL     1      45.017   5.012  11.871  0.00  0.00    +0.000 A 
ATOM     24  C   UNL     1      44.230   4.255  12.730  0.00  0.00    +0.000 A 
ATOM     25  S   UNL     1      43.517   2.898  11.981  0.00  0.00    +0.000 S 
ATOM     26  C   UNL     1      44.261   3.257  10.493  0.00  0.00    +0.000 A 
ATOM     27  N   UNL     1      44.105   2.446   9.411  0.00  0.00    +0.000 NA
ATOM     28  C   UNL     1      44.756   2.830   8.362  0.00  0.00    +0.000 A 
ATOM     29  N   UNL     1      45.530   3.951   8.288  0.00  0.00    +0.000 N 
ATOM     30  C   UNL     1      45.662   4.840   9.329  0.00  0.00    +0.000 A 
ATOM     31  O   UNL     1      46.261   5.891   9.187  0.00  0.00    +0.000 OA
ATOM     32  C   UNL     1      45.004   4.422  10.552  0.00  0.00    +0.000 A 
ATOM     33  H   UNL     1      45.987   4.217   7.426  0.00  0.00    +0.000 HD
ENDBRANCH  20  23
ENDBRANCH   1  19
TORSDOF 6
ENDMDL
MODEL 7
REMARK VINA RESULT:    -7.269      2.821      8.180
REMARK INTER + INTRA:         -10.819
REMARK INTER:                  -9.406
REMARK INTRA:                  -1.413
REMARK UNBOUND:                -1.001
REMARK  Name = 
REMARK  8 active torsions:
REMARK  status: ('A' for Active; 'I' for Inactive)
REMARK    1  A    between atoms: C_1  and  C_2
REMARK    2  A    between atoms: C_2  and  N_3
REMARK    3  A    between atoms: C_2  and  C_25
REMARK    4  A    between atoms: N_3  and  C_4
REMARK    5  A    between atoms: C_7  and  C_8
REMARK    6  A    between atoms: C_8  and  C_9
REMARK    7  A    between atoms: C_8  and  N_10
REMARK    8  A    between atoms: C_11  and  C_13
REMARK                            x       y       z     vdW  Elec       q    Type
REMARK                         _______ _______ _______ _____ _____    ______ ____
ROOT
ATOM      1  C   UNL     1      47.895   7.677  12.429  0.00  0.00    +0.000 C 
ATOM      2  C   UNL     1      49.073   7.680  11.441  0.00  0.00    +0.000 C 
ENDROOT
BRANCH   1   6
ATOM      3  C   UNL     1      49.427   7.709  16.476  0.00  0.00    +0.000 A 
ATOM      4  C   UNL     1      48.440   8.620  16.103  0.00  0.00    +0.000 A 
ATOM      5  C   UNL     1      47.896   8.596  14.805  0.00  0.00    +0.000 A 
ATOM      6  C   UNL     1      48.426   7.721  13.866  0.00  0.00    +0.000 A 
ATOM      7  N   UNL     1      49.456   6.897  14.176  0.00  0.00    +0.000 NA
ATOM      8  C   UNL     1      49.927   6.922  15.444  0.00  0.00    +0.000 A 
BRANCH   3   9
ATOM      9  N   UNL     1      49.912   7.690  17.791  0.00  0.00    +0.000 N 
ATOM     10  H   UNL     1      50.839   7.260  17.796  0.00  0.00    +0.000 HD
BRANCH   9  12
ATOM     11  C   UNL     1      49.766   7.077  20.220  0.00  0.00    +0.000 C 
ATOM     12  C   UNL     1      49.075   7.069  18.850  0.00  0.00    +0.000 C 
BRANCH  12  13
ATOM     13  C   UNL     1      48.797   5.626  18.454  0.00  0.00    +0.000 A 
ATOM     14  C   UNL     1      47.514   5.211  18.066  0.00  0.00    +0.000 A 
ATOM     15  C   UNL     1      47.309   3.910  17.596  0.00  0.00    +0.000 A 
ATOM     16  C   UNL     1      48.377   3.018  17.510  0.00  0.00    +0.000 A 
ATOM     17  C   UNL     1      49.641   3.403  17.948  0.00  0.00    +0.000 A 
ATOM     18  C   UNL     1      49.845   4.690  18.437  0.00  0.00    +0.000 A 
ENDBRANCH  12  13
ENDBRANCH   9  12
ENDBRANCH   3   9
ENDBRANCH   1   6
BRANCH   1  19
ATOM     19  N   UNL     1      47.042   6.520  12.186  0.00  0.00    +0.000 N 
ATOM     20  C   UNL     1      45.675   6.561  12.197  0.00  0.00    +0.000 C 
ATOM     21  O   UNL     1      45.035   7.586  12.418  0.00  0.00    +0.000 OA
ATOM     22  H   UNL     1      47.485   5.622  12.355  0.00  0.00    +0.000 HD
BRANCH  20  23
ATOM     23  C   UNL     1      45.001   5.292  11.854  0.00  0.00    +0.000 A 
ATOM     24  C   UNL     1      44.236   4.625  12.802  0.00  0.00    +0.000 A 
ATOM     25  S   UNL     1      43.539   3.180  12.220  0.00  0.00    +0.000 S 
ATOM     26  C   UNL     1      44.262   3.380  10.692  0.00  0.00    +0.000 A 
ATOM     27  N   UNL     1      44.110   2.450   9.712  0.00  0.00    +0.000 NA
ATOM     28  C   UNL     1      44.743   2.723   8.618  0.00  0.00    +0.000 A 
ATOM     29  N   UNL     1      45.497   3.840   8.408  0.00  0.00    +0.000 N 
ATOM     30  C   UNL     1      45.624   4.843   9.340  0.00  0.00    +0.000 A 
ATOM     31  O   UNL     1      46.203   5.882   9.073  0.00  0.00    +0.000 OA
ATOM     32  C   UNL     1      44.985   4.556  10.610  0.00  0.00    +0.000 A 
ATOM     33  H   UNL     1      45.941   4.015   7.516  0.00  0.00    +0.000 HD
ENDBRANCH  20  23
ENDBRANCH   1  19
TORSDOF 6
ENDMDL
MODEL 8
REMARK VINA RESULT:    -7.200      3.343      5.515
REMARK INTER + INTRA:         -10.726
REMARK INTER:                  -9.559
REMARK INTRA:                  -1.168
REMARK UNBOUND:                -1.001
REMARK  Name = 
REMARK  8 active torsions:
REMARK  status: ('A' for Active; 'I' for Inactive)
REMARK    1  A    between atoms: C_1  and  C_2
REMARK    2  A    between atoms: C_2  and  N_3
REMARK    3  A    between atoms: C_2  and  C_25
REMARK    4  A    between atoms: N_3  and  C_4
REMARK    5  A    between atoms: C_7  and  C_8
REMARK    6  A    between atoms: C_8  and  C_9
REMARK    7  A    between atoms: C_8  and  N_10
REMARK    8  A    between atoms: C_11  and  C_13
REMARK                            x       y       z     vdW  Elec       q    Type
REMARK                         _______ _______ _______ _____ _____    ______ ____
ROOT
ATOM      1  C   UNL     1      48.224   4.422  17.157  0.00  0.00    +0.000 C 
ATOM      2  C   UNL     1      47.354   3.180  17.409  0.00  0.00    +0.000 C 
ENDROOT
BRANCH   1   6
ATOM      3  C   UNL     1      47.483   6.049  13.217  0.00  0.00    +0.000 A 
ATOM      4  C   UNL     1      46.871   4.855  13.599  0.00  0.00    +0.000 A 
ATOM      5  C   UNL     1      47.063   4.334  14.892  0.00  0.00    +0.000 A 
ATOM      6  C   UNL     1      47.951   4.967  15.751  0.00  0.00    +0.000 A 
ATOM      7  N   UNL     1      48.636   6.071  15.366  0.00  0.00    +0.000 NA
ATOM      8  C   UNL     1      48.396   6.565  14.130  0.00  0.00    +0.000 A 
BRANCH   3   9
ATOM      9  N   UNL     1      47.229   6.602  11.954  0.00  0.00    +0.000 N 
ATOM     10  H   UNL     1      47.985   7.246  11.716  0.00  0.00    +0.000 HD
BRANCH   9  12
ATOM     11  C   UNL     1      45.511   8.177  12.881  0.00  0.00    +0.000 C 
ATOM     12  C   UNL     1      45.921   7.267  11.717  0.00  0.00    +0.000 C 
BRANCH  12  13
ATOM     13  C   UNL     1      44.862   6.187  11.546  0.00  0.00    +0.000 A 
ATOM     14  C   UNL     1      44.955   5.230  10.523  0.00  0.00    +0.000 A 
ATOM     15  C   UNL     1      44.034   4.181  10.458  0.00  0.00    +0.000 A 
ATOM     16  C   UNL     1      43.017   4.079  11.406  0.00  0.00    +0.000 A 
ATOM     17  C   UNL     1      42.883   5.056  12.389  0.00  0.00    +0.000 A 
ATOM     18  C   UNL     1      43.784   6.114  12.444  0.00  0.00    +0.000 A 
ENDBRANCH  12  13
ENDBRANCH   9  12
ENDBRANCH   3   9
ENDBRANCH   1   6
BRANCH   1  19
ATOM     19  N   UNL     1      49.630   4.096  17.364  0.00  0.00    +0.000 N 
ATOM     20  C   UNL     1      50.284   4.249  18.556  0.00  0.00    +0.000 C 
ATOM     21  O   UNL     1      49.741   4.683  19.570  0.00  0.00    +0.000 OA
ATOM     22  H   UNL     1      50.193   4.085  16.519  0.00  0.00    +0.000 HD
BRANCH  20  23
ATOM     23  C   UNL     1      51.688   3.791  18.572  0.00  0.00    +0.000 A 
ATOM     24  C   UNL     1      52.679   4.586  19.134  0.00  0.00    +0.000 A 
ATOM     25  S   UNL     1      54.235   3.888  19.056  0.00  0.00    +0.000 S 
ATOM     26  C   UNL     1      53.642   2.517  18.241  0.00  0.00    +0.000 A 
ATOM     27  N   UNL     1      54.476   1.526  17.827  0.00  0.00    +0.000 NA
ATOM     28  C   UNL     1      53.886   0.566  17.193  0.00  0.00    +0.000 A 
ATOM     29  N   UNL     1      52.545   0.495  16.952  0.00  0.00    +0.000 N 
ATOM     30  C   UNL     1      51.652   1.433  17.412  0.00  0.00    +0.000 A 
ATOM     31  O   UNL     1      50.450   1.274  17.284  0.00  0.00    +0.000 OA
ATOM     32  C   UNL     1      52.270   2.566  18.073  0.00  0.00    +0.000 A 
ATOM     33  H   UNL     1      52.138  -0.302  16.480  0.00  0.00    +0.000 HD
ENDBRANCH  20  23
ENDBRANCH   1  19
TORSDOF 6
ENDMDL
MODEL 9
REMARK VINA RESULT:    -7.195      3.220      9.118
REMARK INTER + INTRA:         -10.719
REMARK INTER:                  -9.286
REMARK INTRA:                  -1.434
REMARK UNBOUND:                -1.001
REMARK  Name = 
REMARK  8 active torsions:
REMARK  status: ('A' for Active; 'I' for Inactive)
REMARK    1  A    between atoms: C_1  and  C_2
REMARK    2  A    between atoms: C_2  and  N_3
REMARK    3  A    between atoms: C_2  and  C_25
REMARK    4  A    between atoms: N_3  and  C_4
REMARK    5  A    between atoms: C_7  and  C_8
REMARK    6  A    between atoms: C_8  and  C_9
REMARK    7  A    between atoms: C_8  and  N_10
REMARK    8  A    between atoms: C_11  and  C_13
REMARK                            x       y       z     vdW  Elec       q    Type
REMARK                         _______ _______ _______ _____ _____    ______ ____
ROOT
ATOM      1  C   UNL     1      48.311   7.198  13.379  0.00  0.00    +0.000 C 
ATOM      2  C   UNL     1      49.562   7.604  12.582  0.00  0.00    +0.000 C 
ENDROOT
BRANCH   1   6
ATOM      3  C   UNL     1      49.403   5.424  17.172  0.00  0.00    +0.000 A 
ATOM      4  C   UNL     1      50.185   6.446  16.636  0.00  0.00    +0.000 A 
ATOM      5  C   UNL     1      49.821   7.067  15.426  0.00  0.00    +0.000 A 
ATOM      6  C   UNL     1      48.730   6.582  14.718  0.00  0.00    +0.000 A 
ATOM      7  N   UNL     1      48.016   5.522  15.168  0.00  0.00    +0.000 NA
ATOM      8  C   UNL     1      48.373   4.976  16.353  0.00  0.00    +0.000 A 
BRANCH   3   9
ATOM      9  N   UNL     1      49.730   4.860  18.413  0.00  0.00    +0.000 N 
ATOM     10  H   UNL     1      48.884   4.467  18.831  0.00  0.00    +0.000 HD
BRANCH   9  12
ATOM     11  C   UNL     1      51.398   4.888  20.287  0.00  0.00    +0.000 C 
ATOM     12  C   UNL     1      50.431   5.702  19.416  0.00  0.00    +0.000 C 
BRANCH  12  13
ATOM     13  C   UNL     1      49.384   6.342  20.317  0.00  0.00    +0.000 A 
ATOM     14  C   UNL     1      49.171   7.729  20.315  0.00  0.00    +0.000 A 
ATOM     15  C   UNL     1      48.127   8.279  21.064  0.00  0.00    +0.000 A 
ATOM     16  C   UNL     1      47.293   7.455  21.818  0.00  0.00    +0.000 A 
ATOM     17  C   UNL     1      47.534   6.085  21.871  0.00  0.00    +0.000 A 
ATOM     18  C   UNL     1      48.585   5.535  21.145  0.00  0.00    +0.000 A 
ENDBRANCH  12  13
ENDBRANCH   9  12
ENDBRANCH   3   9
ENDBRANCH   1   6
BRANCH   1  19
ATOM     19  N   UNL     1      47.485   6.297  12.586  0.00  0.00    +0.000 N 
ATOM     20  C   UNL     1      46.420   6.701  11.829  0.00  0.00    +0.000 C 
ATOM     21  O   UNL     1      46.057   7.873  11.751  0.00  0.00    +0.000 OA
ATOM     22  H   UNL     1      47.505   5.327  12.886  0.00  0.00    +0.000 HD
BRANCH  20  23
ATOM     23  C   UNL     1      45.761   5.638  11.043  0.00  0.00    +0.000 A 
ATOM     24  C   UNL     1      45.848   5.633   9.656  0.00  0.00    +0.000 A 
ATOM     25  S   UNL     1      45.023   4.329   8.928  0.00  0.00    +0.000 S 
ATOM     26  C   UNL     1      44.494   3.746  10.437  0.00  0.00    +0.000 A 
ATOM     27  N   UNL     1      43.685   2.657  10.529  0.00  0.00    +0.000 NA
ATOM     28  C   UNL     1      43.341   2.352  11.738  0.00  0.00    +0.000 A 
ATOM     29  N   UNL     1      43.740   3.021  12.858  0.00  0.00    +0.000 N 
ATOM     30  C   UNL     1      44.614   4.082  12.824  0.00  0.00    +0.000 A 
ATOM     31  O   UNL     1      45.045   4.577  13.851  0.00  0.00    +0.000 OA
ATOM     32  C   UNL     1      44.980   4.506  11.486  0.00  0.00    +0.000 A 
ATOM     33  H   UNL     1      43.464   2.712  13.780  0.00  0.00    +0.000 HD
ENDBRANCH  20  23
ENDBRANCH   1  19
TORSDOF 6
ENDMDL
