MODEL 1
REMARK VINA RESULT:    -8.173      0.000      0.000
REMARK INTER + INTRA:         -12.856
REMARK INTER:                 -11.996
REMARK INTRA:                  -0.861
REMARK UNBOUND:                -0.861
REMARK  Name = 
REMARK  10 active torsions:
REMARK  status: ('A' for Active; 'I' for Inactive)
REMARK    1  A    between atoms: C_1  and  C_2
REMARK    2  A    between atoms: C_2  and  C_3
REMARK    3  A    between atoms: C_2  and  C_4
REMARK    4  A    between atoms: C_4  and  C_5
REMARK    5  A    between atoms: C_5  and  N_6
REMARK    6  A    between atoms: C_7  and  C_9
REMARK    7  A    between atoms: C_13  and  O_14
REMARK    8  A    between atoms: O_14  and  C_15
REMARK    9  A    between atoms: C_15  and  C_16
REMARK   10  A    between atoms: C_20  and  C_21
REMARK                            x       y       z     vdW  Elec       q    Type
REMARK                         _______ _______ _______ _____ _____    ______ ____
ROOT
ATOM      1  C   UNL     1      47.285   5.495  13.990  0.00  0.00    +0.000 A 
ATOM      2  C   UNL     1      48.140   6.561  14.275  0.00  0.00    +0.000 A 
ATOM      3  C   UNL     1      48.153   7.633  13.405  0.00  0.00    +0.000 A 
ATOM      4  N   UNL     1      47.393   7.697  12.293  0.00  0.00    +0.000 NA
ATOM      5  C   UNL     1      46.562   6.660  12.055  0.00  0.00    +0.000 A 
ATOM      6  C   UNL     1      46.450   5.555  12.876  0.00  0.00    +0.000 A 
ENDROOT
BRANCH   1   8
ATOM      7  N   UNL     1      47.202   4.597  16.249  0.00  0.00    +0.000 N 
ATOM      8  C   UNL     1      47.300   4.324  14.901  0.00  0.00    +0.000 C 
ATOM      9  O   UNL     1      47.354   3.192  14.435  0.00  0.00    +0.000 OA
ATOM     10  H   UNL     1      47.066   5.544  16.572  0.00  0.00    +0.000 HD
BRANCH   7  11
ATOM     11  C   UNL     1      47.171   3.539  17.239  0.00  0.00    +0.000 C 
BRANCH  11  12
ATOM     12  C   UNL     1      48.370   3.591  18.189  0.00  0.00    +0.000 C 
BRANCH  12  14
ATOM     13  C   UNL     1      50.839   4.212  18.352  0.00  0.00    +0.000 C 
ATOM     14  C   UNL     1      49.745   3.580  17.491  0.00  0.00    +0.000 C 
ATOM     15  C   UNL     1      50.141   2.144  17.136  0.00  0.00    +0.000 C 
ENDBRANCH  12  14
ENDBRANCH  11  12
ENDBRANCH   7  11
ENDBRANCH   1   8
BRANCH   5  16
ATOM     16  O   UNL     1      45.747   6.690  10.942  0.00  0.00    +0.000 OA
BRANCH  16  17
ATOM     17  C   UNL     1      44.460   6.125  11.209  0.00  0.00    +0.000 C 
BRANCH  17  18
ATOM     18  C   UNL     1      44.374   4.739  10.632  0.00  0.00    +0.000 A 
ATOM     19  C   UNL     1      43.573   3.777  11.229  0.00  0.00    +0.000 A 
ATOM     20  N   UNL     1      43.499   2.494  10.816  0.00  0.00    +0.000 NA
ATOM     21  C   UNL     1      44.282   2.149   9.762  0.00  0.00    +0.000 A 
ATOM     22  C   UNL     1      45.136   3.012   9.073  0.00  0.00    +0.000 A 
ATOM     23  C   UNL     1      45.162   4.335   9.545  0.00  0.00    +0.000 A 
BRANCH  22  24
ATOM     24  C   UNL     1      45.962   2.578   7.931  0.00  0.00    +0.000 A 
ATOM     25  C   UNL     1      46.551   1.305   7.878  0.00  0.00    +0.000 A 
ATOM     26  C   UNL     1      47.351   0.930   6.798  0.00  0.00    +0.000 A 
ATOM     27  C   UNL     1      47.536   1.840   5.774  0.00  0.00    +0.000 A 
ATOM     28  N   UNL     1      46.988   3.071   5.766  0.00  0.00    +0.000 NA
ATOM     29  C   UNL     1      46.224   3.406   6.837  0.00  0.00    +0.000 A 
ENDBRANCH  22  24
ENDBRANCH  17  18
ENDBRANCH  16  17
ENDBRANCH   5  16
TORSDOF 8
ENDMDL
MODEL 2
REMARK VINA RESULT:    -7.552      1.876      8.436
REMARK INTER + INTRA:         -11.945
REMARK INTER:                 -10.910
REMARK INTRA:                  -1.035
REMARK UNBOUND:                -0.861
REMARK  Name = 
REMARK  10 active torsions:
REMARK  status: ('A' for Active; 'I' for Inactive)
REMARK    1  A    between atoms: C_1  and  C_2
REMARK    2  A    between atoms: C_2  and  C_3
REMARK    3  A    between atoms: C_2  and  C_4
REMARK    4  A    between atoms: C_4  and  C_5
REMARK    5  A    between atoms: C_5  and  N_6
REMARK    6  A    between atoms: C_7  and  C_9
REMARK    7  A    between atoms: C_13  and  O_14
REMARK    8  A    between atoms: O_14  and  C_15
REMARK    9  A    between atoms: C_15  and  C_16
REMARK   10  A    between atoms: C_20  and  C_21
REMARK                            x       y       z     vdW  Elec       q    Type
REMARK                         _______ _______ _______ _____ _____    ______ ____
ROOT
ATOM      1  C   UNL     1      44.224   4.374  10.853  0.00  0.00    +0.000 A 
ATOM      2  C   UNL     1      43.259   3.935  11.762  0.00  0.00    +0.000 A 
ATOM      3  C   UNL     1      43.078   4.664  12.919  0.00  0.00    +0.000 A 
ATOM      4  N   UNL     1      43.790   5.768  13.222  0.00  0.00    +0.000 NA
ATOM      5  C   UNL     1      44.702   6.179  12.315  0.00  0.00    +0.000 A 
ATOM      6  C   UNL     1      44.940   5.540  11.114  0.00  0.00    +0.000 A 
ENDROOT
BRANCH   1   8
ATOM      7  N   UNL     1      45.160   4.179   8.616  0.00  0.00    +0.000 N 
ATOM      8  C   UNL     1      44.449   3.568   9.628  0.00  0.00    +0.000 C 
ATOM      9  O   UNL     1      44.046   2.413   9.578  0.00  0.00    +0.000 OA
ATOM     10  H   UNL     1      45.550   5.102   8.749  0.00  0.00    +0.000 HD
BRANCH   7  11
ATOM     11  C   UNL     1      45.476   3.487   7.384  0.00  0.00    +0.000 C 
BRANCH  11  12
ATOM     12  C   UNL     1      46.969   3.537   7.050  0.00  0.00    +0.000 C 
BRANCH  12  14
ATOM     13  C   UNL     1      47.099   1.004   7.333  0.00  0.00    +0.000 C 
ATOM     14  C   UNL     1      47.554   2.214   6.516  0.00  0.00    +0.000 C 
ATOM     15  C   UNL     1      47.154   2.019   5.050  0.00  0.00    +0.000 C 
ENDBRANCH  12  14
ENDBRANCH  11  12
ENDBRANCH   7  11
ENDBRANCH   1   8
BRANCH   5  16
ATOM     16  O   UNL     1      45.440   7.317  12.569  0.00  0.00    +0.000 OA
BRANCH  16  17
ATOM     17  C   UNL     1      46.805   7.167  12.167  0.00  0.00    +0.000 C 
BRANCH  17  18
ATOM     18  C   UNL     1      47.701   7.155  13.375  0.00  0.00    +0.000 A 
ATOM     19  C   UNL     1      48.703   8.104  13.518  0.00  0.00    +0.000 A 
ATOM     20  N   UNL     1      49.592   8.116  14.533  0.00  0.00    +0.000 NA
ATOM     21  C   UNL     1      49.487   7.115  15.445  0.00  0.00    +0.000 A 
ATOM     22  C   UNL     1      48.534   6.096  15.419  0.00  0.00    +0.000 A 
ATOM     23  C   UNL     1      47.632   6.143  14.343  0.00  0.00    +0.000 A 
BRANCH  22  24
ATOM     24  C   UNL     1      48.470   5.035  16.441  0.00  0.00    +0.000 A 
ATOM     25  C   UNL     1      47.402   4.127  16.508  0.00  0.00    +0.000 A 
ATOM     26  C   UNL     1      47.353   3.150  17.502  0.00  0.00    +0.000 A 
ATOM     27  C   UNL     1      48.392   3.089  18.412  0.00  0.00    +0.000 A 
ATOM     28  N   UNL     1      49.447   3.926  18.390  0.00  0.00    +0.000 NA
ATOM     29  C   UNL     1      49.458   4.871  17.416  0.00  0.00    +0.000 A 
ENDBRANCH  22  24
ENDBRANCH  17  18
ENDBRANCH  16  17
ENDBRANCH   5  16
TORSDOF 8
ENDMDL
MODEL 3
REMARK VINA RESULT:    -7.495      1.285      1.648
REMARK INTER + INTRA:         -11.861
REMARK INTER:                 -10.790
REMARK INTRA:                  -1.071
REMARK UNBOUND:                -0.861
REMARK  Name = 
REMARK  10 active torsions:
REMARK  status: ('A' for Active; 'I' for Inactive)
REMARK    1  A    between atoms: C_1  and  C_2
REMARK    2  A    between atoms: C_2  and  C_3
REMARK    3  A    between atoms: C_2  and  C_4
REMARK    4  A    between atoms: C_4  and  C_5
REMARK    5  A    between atoms: C_5  and  N_6
REMARK    6  A    between atoms: C_7  and  C_9
REMARK    7  A    between atoms: C_13  and  O_14
REMARK    8  A    between atoms: O_14  and  C_15
REMARK    9  A    between atoms: C_15  and  C_16
REMARK   10  A    between atoms: C_20  and  C_21
REMARK                            x       y       z     vdW  Elec       q    Type
REMARK                         _______ _______ _______ _____ _____    ______ ____
ROOT
ATOM      1  C   UNL     1      48.323   6.778  14.126  0.00  0.00    +0.000 A 
ATOM      2  C   UNL     1      49.101   7.282  13.083  0.00  0.00    +0.000 A 
ATOM      3  C   UNL     1      48.507   7.439  11.847  0.00  0.00    +0.000 A 
ATOM      4  N   UNL     1      47.221   7.121  11.595  0.00  0.00    +0.000 NA
ATOM      5  C   UNL     1      46.489   6.654  12.628  0.00  0.00    +0.000 A 
ATOM      6  C   UNL     1      46.977   6.488  13.909  0.00  0.00    +0.000 A 
ENDROOT
BRANCH   1   8
ATOM      7  N   UNL     1      48.126   6.394  16.521  0.00  0.00    +0.000 N 
ATOM      8  C   UNL     1      48.971   6.570  15.445  0.00  0.00    +0.000 C 
ATOM      9  O   UNL     1      50.193   6.520  15.520  0.00  0.00    +0.000 OA
ATOM     10  H   UNL     1      47.126   6.350  16.385  0.00  0.00    +0.000 HD
BRANCH   7  11
ATOM     11  C   UNL     1      48.635   6.147  17.855  0.00  0.00    +0.000 C 
BRANCH  11  12
ATOM     12  C   UNL     1      47.993   4.921  18.508  0.00  0.00    +0.000 C 
BRANCH  12  14
ATOM     13  C   UNL     1      47.921   2.940  16.902  0.00  0.00    +0.000 C 
ATOM     14  C   UNL     1      48.623   3.573  18.104  0.00  0.00    +0.000 C 
ATOM     15  C   UNL     1      50.109   3.763  17.786  0.00  0.00    +0.000 C 
ENDBRANCH  12  14
ENDBRANCH  11  12
ENDBRANCH   7  11
ENDBRANCH   1   8
BRANCH   5  16
ATOM     16  O   UNL     1      45.161   6.337  12.426  0.00  0.00    +0.000 OA
BRANCH  16  17
ATOM     17  C   UNL     1      44.807   6.387  11.040  0.00  0.00    +0.000 C 
BRANCH  17  18
ATOM     18  C   UNL     1      44.610   4.996  10.506  0.00  0.00    +0.000 A 
ATOM     19  C   UNL     1      43.741   4.116  11.135  0.00  0.00    +0.000 A 
ATOM     20  N   UNL     1      43.566   2.831  10.761  0.00  0.00    +0.000 NA
ATOM     21  C   UNL     1      44.313   2.396   9.714  0.00  0.00    +0.000 A 
ATOM     22  C   UNL     1      45.226   3.170   8.997  0.00  0.00    +0.000 A 
ATOM     23  C   UNL     1      45.357   4.500   9.428  0.00  0.00    +0.000 A 
BRANCH  22  24
ATOM     24  C   UNL     1      46.009   2.639   7.865  0.00  0.00    +0.000 A 
ATOM     25  C   UNL     1      46.563   1.350   7.880  0.00  0.00    +0.000 A 
ATOM     26  C   UNL     1      47.323   0.884   6.807  0.00  0.00    +0.000 A 
ATOM     27  C   UNL     1      47.504   1.720   5.721  0.00  0.00    +0.000 A 
ATOM     28  N   UNL     1      46.987   2.961   5.646  0.00  0.00    +0.000 NA
ATOM     29  C   UNL     1      46.263   3.387   6.712  0.00  0.00    +0.000 A 
ENDBRANCH  22  24
ENDBRANCH  17  18
ENDBRANCH  16  17
ENDBRANCH   5  16
TORSDOF 8
ENDMDL
MODEL 4
REMARK VINA RESULT:    -7.152      2.314      4.243
REMARK INTER + INTRA:         -11.357
REMARK INTER:                 -10.170
REMARK INTRA:                  -1.187
REMARK UNBOUND:                -0.861
REMARK  Name = 
REMARK  10 active torsions:
REMARK  status: ('A' for Active; 'I' for Inactive)
REMARK    1  A    between atoms: C_1  and  C_2
REMARK    2  A    between atoms: C_2  and  C_3
REMARK    3  A    between atoms: C_2  and  C_4
REMARK    4  A    between atoms: C_4  and  C_5
REMARK    5  A    between atoms: C_5  and  N_6
REMARK    6  A    between atoms: C_7  and  C_9
REMARK    7  A    between atoms: C_13  and  O_14
REMARK    8  A    between atoms: O_14  and  C_15
REMARK    9  A    between atoms: C_15  and  C_16
REMARK   10  A    between atoms: C_20  and  C_21
REMARK                            x       y       z     vdW  Elec       q    Type
REMARK                         _______ _______ _______ _____ _____    ______ ____
ROOT
ATOM      1  C   UNL     1      47.437   6.546  13.482  0.00  0.00    +0.000 A 
ATOM      2  C   UNL     1      47.666   5.414  14.267  0.00  0.00    +0.000 A 
ATOM      3  C   UNL     1      46.638   4.504  14.408  0.00  0.00    +0.000 A 
ATOM      4  N   UNL     1      45.426   4.656  13.837  0.00  0.00    +0.000 NA
ATOM      5  C   UNL     1      45.241   5.750  13.069  0.00  0.00    +0.000 A 
ATOM      6  C   UNL     1      46.211   6.706  12.839  0.00  0.00    +0.000 A 
ENDROOT
BRANCH   1   8
ATOM      7  N   UNL     1      48.171   8.780  12.859  0.00  0.00    +0.000 N 
ATOM      8  C   UNL     1      48.526   7.547  13.363  0.00  0.00    +0.000 C 
ATOM      9  O   UNL     1      49.655   7.264  13.745  0.00  0.00    +0.000 OA
ATOM     10  H   UNL     1      47.205   8.988  12.648  0.00  0.00    +0.000 HD
BRANCH   7  11
ATOM     11  C   UNL     1      49.134   9.854  12.726  0.00  0.00    +0.000 C 
BRANCH  11  12
ATOM     12  C   UNL     1      49.778   9.894  11.339  0.00  0.00    +0.000 C 
BRANCH  12  14
ATOM     13  C   UNL     1      51.940   9.816  12.692  0.00  0.00    +0.000 C 
ATOM     14  C   UNL     1      51.292   9.603  11.323  0.00  0.00    +0.000 C 
ATOM     15  C   UNL     1      51.546   8.167  10.857  0.00  0.00    +0.000 C 
ENDBRANCH  12  14
ENDBRANCH  11  12
ENDBRANCH   7  11
ENDBRANCH   1   8
BRANCH   5  16
ATOM     16  O   UNL     1      44.025   5.939  12.445  0.00  0.00    +0.000 OA
BRANCH  16  17
ATOM     17  C   UNL     1      44.160   6.004  11.022  0.00  0.00    +0.000 C 
BRANCH  17  18
ATOM     18  C   UNL     1      44.225   4.617  10.445  0.00  0.00    +0.000 A 
ATOM     19  C   UNL     1      43.508   3.579  11.024  0.00  0.00    +0.000 A 
ATOM     20  N   UNL     1      43.572   2.296  10.611  0.00  0.00    +0.000 NA
ATOM     21  C   UNL     1      44.410   2.031   9.577  0.00  0.00    +0.000 A 
ATOM     22  C   UNL     1      45.191   2.975   8.909  0.00  0.00    +0.000 A 
ATOM     23  C   UNL     1      45.075   4.293   9.379  0.00  0.00    +0.000 A 
BRANCH  22  24
ATOM     24  C   UNL     1      46.084   2.625   7.788  0.00  0.00    +0.000 A 
ATOM     25  C   UNL     1      46.265   3.474   6.685  0.00  0.00    +0.000 A 
ATOM     26  C   UNL     1      47.095   3.106   5.626  0.00  0.00    +0.000 A 
ATOM     27  C   UNL     1      47.746   1.888   5.697  0.00  0.00    +0.000 A 
ATOM     28  N   UNL     1      47.620   1.039   6.735  0.00  0.00    +0.000 NA
ATOM     29  C   UNL     1      46.797   1.424   7.743  0.00  0.00    +0.000 A 
ENDBRANCH  22  24
ENDBRANCH  17  18
ENDBRANCH  16  17
ENDBRANCH   5  16
TORSDOF 8
ENDMDL
MODEL 5
REMARK VINA RESULT:    -6.987      3.127      4.936
REMARK INTER + INTRA:         -11.115
REMARK INTER:                 -10.174
REMARK INTRA:                  -0.941
REMARK UNBOUND:                -0.861
REMARK  Name = 
REMARK  10 active torsions:
REMARK  status: ('A' for Active; 'I' for Inactive)
REMARK    1  A    between atoms: C_1  and  C_2
REMARK    2  A    between atoms: C_2  and  C_3
REMARK    3  A    between atoms: C_2  and  C_4
REMARK    4  A    between atoms: C_4  and  C_5
REMARK    5  A    between atoms: C_5  and  N_6
REMARK    6  A    between atoms: C_7  and  C_9
REMARK    7  A    between atoms: C_13  and  O_14
REMARK    8  A    between atoms: O_14  and  C_15
REMARK    9  A    between atoms: C_15  and  C_16
REMARK   10  A    between atoms: C_20  and  C_21
REMARK                            x       y       z     vdW  Elec       q    Type
REMARK                         _______ _______ _______ _____ _____    ______ ____
ROOT
ATOM      1  C   UNL     1      49.011   7.630  12.201  0.00  0.00    +0.000 A 
ATOM      2  C   UNL     1      49.010   7.001  13.448  0.00  0.00    +0.000 A 
ATOM      3  C   UNL     1      47.849   6.379  13.859  0.00  0.00    +0.000 A 
ATOM      4  N   UNL     1      46.717   6.357  13.126  0.00  0.00    +0.000 NA
ATOM      5  C   UNL     1      46.755   6.957  11.917  0.00  0.00    +0.000 A 
ATOM      6  C   UNL     1      47.873   7.581  11.399  0.00  0.00    +0.000 A 
ENDROOT
BRANCH   1   8
ATOM      7  N   UNL     1      51.356   7.548  11.557  0.00  0.00    +0.000 N 
ATOM      8  C   UNL     1      50.245   8.336  11.776  0.00  0.00    +0.000 C 
ATOM      9  O   UNL     1      50.222   9.548  11.599  0.00  0.00    +0.000 OA
ATOM     10  H   UNL     1      51.292   6.542  11.627  0.00  0.00    +0.000 HD
BRANCH   7  11
ATOM     11  C   UNL     1      52.612   8.112  11.105  0.00  0.00    +0.000 C 
BRANCH  11  12
ATOM     12  C   UNL     1      52.759   8.069   9.582  0.00  0.00    +0.000 C 
BRANCH  12  14
ATOM     13  C   UNL     1      52.318   6.643   7.512  0.00  0.00    +0.000 C 
ATOM     14  C   UNL     1      52.761   6.651   8.976  0.00  0.00    +0.000 C 
ATOM     15  C   UNL     1      54.159   6.035   9.090  0.00  0.00    +0.000 C 
ENDBRANCH  12  14
ENDBRANCH  11  12
ENDBRANCH   7  11
ENDBRANCH   1   8
BRANCH   5  16
ATOM     16  O   UNL     1      45.629   6.942  11.120  0.00  0.00    +0.000 OA
BRANCH  16  17
ATOM     17  C   UNL     1      44.542   6.254  11.747  0.00  0.00    +0.000 C 
BRANCH  17  18
ATOM     18  C   UNL     1      44.340   4.910  11.103  0.00  0.00    +0.000 A 
ATOM     19  C   UNL     1      43.456   3.992  11.652  0.00  0.00    +0.000 A 
ATOM     20  N   UNL     1      43.275   2.742  11.176  0.00  0.00    +0.000 NA
ATOM     21  C   UNL     1      44.030   2.383  10.107  0.00  0.00    +0.000 A 
ATOM     22  C   UNL     1      44.958   3.202   9.462  0.00  0.00    +0.000 A 
ATOM     23  C   UNL     1      45.095   4.493   9.998  0.00  0.00    +0.000 A 
BRANCH  22  24
ATOM     24  C   UNL     1      45.749   2.754   8.301  0.00  0.00    +0.000 A 
ATOM     25  C   UNL     1      46.285   1.460   8.217  0.00  0.00    +0.000 A 
ATOM     26  C   UNL     1      47.053   1.072   7.119  0.00  0.00    +0.000 A 
ATOM     27  C   UNL     1      47.261   1.992   6.108  0.00  0.00    +0.000 A 
ATOM     28  N   UNL     1      46.763   3.243   6.129  0.00  0.00    +0.000 NA
ATOM     29  C   UNL     1      46.030   3.591   7.217  0.00  0.00    +0.000 A 
ENDBRANCH  22  24
ENDBRANCH  17  18
ENDBRANCH  16  17
ENDBRANCH   5  16
TORSDOF 8
ENDMDL
MODEL 6
REMARK VINA RESULT:    -6.851      2.420      3.165
REMARK INTER + INTRA:         -10.916
REMARK INTER:                 -10.101
REMARK INTRA:                  -0.815
REMARK UNBOUND:                -0.861
REMARK  Name = 
REMARK  10 active torsions:
REMARK  status: ('A' for Active; 'I' for Inactive)
REMARK    1  A    between atoms: C_1  and  C_2
REMARK    2  A    between atoms: C_2  and  C_3
REMARK    3  A    between atoms: C_2  and  C_4
REMARK    4  A    between atoms: C_4  and  C_5
REMARK    5  A    between atoms: C_5  and  N_6
REMARK    6  A    between atoms: C_7  and  C_9
REMARK    7  A    between atoms: C_13  and  O_14
REMARK    8  A    between atoms: O_14  and  C_15
REMARK    9  A    between atoms: C_15  and  C_16
REMARK   10  A    between atoms: C_20  and  C_21
REMARK                            x       y       z     vdW  Elec       q    Type
REMARK                         _______ _______ _______ _____ _____    ______ ____
ROOT
ATOM      1  C   UNL     1      48.454   4.968  16.866  0.00  0.00    +0.000 A 
ATOM      2  C   UNL     1      48.999   6.120  16.296  0.00  0.00    +0.000 A 
ATOM      3  C   UNL     1      48.583   6.476  15.029  0.00  0.00    +0.000 A 
ATOM      4  N   UNL     1      47.689   5.763  14.312  0.00  0.00    +0.000 NA
ATOM      5  C   UNL     1      47.167   4.666  14.898  0.00  0.00    +0.000 A 
ATOM      6  C   UNL     1      47.491   4.239  16.171  0.00  0.00    +0.000 A 
ENDROOT
BRANCH   1   8
ATOM      7  N   UNL     1      48.074   4.806  19.264  0.00  0.00    +0.000 N 
ATOM      8  C   UNL     1      48.931   4.561  18.211  0.00  0.00    +0.000 C 
ATOM      9  O   UNL     1      50.015   4.002  18.328  0.00  0.00    +0.000 OA
ATOM     10  H   UNL     1      47.153   5.184  19.096  0.00  0.00    +0.000 HD
BRANCH   7  11
ATOM     11  C   UNL     1      48.408   4.424  20.621  0.00  0.00    +0.000 C 
BRANCH  11  12
ATOM     12  C   UNL     1      48.098   5.529  21.633  0.00  0.00    +0.000 C 
BRANCH  12  14
ATOM     13  C   UNL     1      47.320   7.944  21.904  0.00  0.00    +0.000 C 
ATOM     14  C   UNL     1      48.120   6.957  21.053  0.00  0.00    +0.000 C 
ATOM     15  C   UNL     1      49.565   7.449  20.926  0.00  0.00    +0.000 C 
ENDBRANCH  12  14
ENDBRANCH  11  12
ENDBRANCH   7  11
ENDBRANCH   1   8
BRANCH   5  16
ATOM     16  O   UNL     1      46.231   3.916  14.214  0.00  0.00    +0.000 OA
BRANCH  16  17
ATOM     17  C   UNL     1      45.375   4.736  13.412  0.00  0.00    +0.000 C 
BRANCH  17  18
ATOM     18  C   UNL     1      44.797   3.931  12.282  0.00  0.00    +0.000 A 
ATOM     19  C   UNL     1      43.631   3.201  12.461  0.00  0.00    +0.000 A 
ATOM     20  N   UNL     1      43.092   2.397  11.521  0.00  0.00    +0.000 NA
ATOM     21  C   UNL     1      43.763   2.302  10.344  0.00  0.00    +0.000 A 
ATOM     22  C   UNL     1      44.945   2.974  10.034  0.00  0.00    +0.000 A 
ATOM     23  C   UNL     1      45.453   3.801  11.049  0.00  0.00    +0.000 A 
BRANCH  22  24
ATOM     24  C   UNL     1      45.629   2.831   8.734  0.00  0.00    +0.000 A 
ATOM     25  C   UNL     1      46.149   1.604   8.295  0.00  0.00    +0.000 A 
ATOM     26  C   UNL     1      46.815   1.504   7.074  0.00  0.00    +0.000 A 
ATOM     27  C   UNL     1      46.937   2.642   6.299  0.00  0.00    +0.000 A 
ATOM     28  N   UNL     1      46.448   3.843   6.663  0.00  0.00    +0.000 NA
ATOM     29  C   UNL     1      45.815   3.908   7.862  0.00  0.00    +0.000 A 
ENDBRANCH  22  24
ENDBRANCH  17  18
ENDBRANCH  16  17
ENDBRANCH   5  16
TORSDOF 8
ENDMDL
MODEL 7
REMARK VINA RESULT:    -6.834      2.177      8.698
REMARK INTER + INTRA:         -10.891
REMARK INTER:                  -9.985
REMARK INTRA:                  -0.906
REMARK UNBOUND:                -0.861
REMARK  Name = 
REMARK  10 active torsions:
REMARK  status: ('A' for Active; 'I' for Inactive)
REMARK    1  A    between atoms: C_1  and  C_2
REMARK    2  A    between atoms: C_2  and  C_3
REMARK    3  A    between atoms: C_2  and  C_4
REMARK    4  A    between atoms: C_4  and  C_5
REMARK    5  A    between atoms: C_5  and  N_6
REMARK    6  A    between atoms: C_7  and  C_9
REMARK    7  A    between atoms: C_13  and  O_14
REMARK    8  A    between atoms: O_14  and  C_15
REMARK    9  A    between atoms: C_15  and  C_16
REMARK   10  A    between atoms: C_20  and  C_21
REMARK                            x       y       z     vdW  Elec       q    Type
REMARK                         _______ _______ _______ _____ _____    ______ ____
ROOT
ATOM      1  C   UNL     1      46.185   5.598  12.392  0.00  0.00    +0.000 A 
ATOM      2  C   UNL     1      45.621   6.854  12.163  0.00  0.00    +0.000 A 
ATOM      3  C   UNL     1      46.222   7.951  12.745  0.00  0.00    +0.000 A 
ATOM      4  N   UNL     1      47.316   7.870  13.530  0.00  0.00    +0.000 NA
ATOM      5  C   UNL     1      47.849   6.644  13.717  0.00  0.00    +0.000 A 
ATOM      6  C   UNL     1      47.344   5.488  13.156  0.00  0.00    +0.000 A 
ENDROOT
BRANCH   1   8
ATOM      7  N   UNL     1      45.007   4.569  10.528  0.00  0.00    +0.000 N 
ATOM      8  C   UNL     1      45.516   4.413  11.800  0.00  0.00    +0.000 C 
ATOM      9  O   UNL     1      45.479   3.360  12.426  0.00  0.00    +0.000 OA
ATOM     10  H   UNL     1      45.149   5.432  10.022  0.00  0.00    +0.000 HD
BRANCH   7  11
ATOM     11  C   UNL     1      44.361   3.477   9.828  0.00  0.00    +0.000 C 
BRANCH  11  12
ATOM     12  C   UNL     1      44.697   3.459   8.335  0.00  0.00    +0.000 C 
BRANCH  12  14
ATOM     13  C   UNL     1      46.265   1.459   8.109  0.00  0.00    +0.000 C 
ATOM     14  C   UNL     1      46.124   2.978   8.003  0.00  0.00    +0.000 C 
ATOM     15  C   UNL     1      46.515   3.430   6.593  0.00  0.00    +0.000 C 
ENDBRANCH  12  14
ENDBRANCH  11  12
ENDBRANCH   7  11
ENDBRANCH   1   8
BRANCH   5  16
ATOM     16  O   UNL     1      48.983   6.513  14.494  0.00  0.00    +0.000 OA
BRANCH  16  17
ATOM     17  C   UNL     1      48.823   7.125  15.777  0.00  0.00    +0.000 C 
BRANCH  17  18
ATOM     18  C   UNL     1      48.953   6.093  16.863  0.00  0.00    +0.000 A 
ATOM     19  C   UNL     1      48.169   6.170  18.005  0.00  0.00    +0.000 A 
ATOM     20  N   UNL     1      48.279   5.327  19.053  0.00  0.00    +0.000 NA
ATOM     21  C   UNL     1      49.235   4.367  18.964  0.00  0.00    +0.000 A 
ATOM     22  C   UNL     1      50.092   4.180  17.880  0.00  0.00    +0.000 A 
ATOM     23  C   UNL     1      49.925   5.083  16.817  0.00  0.00    +0.000 A 
BRANCH  22  24
ATOM     24  C   UNL     1      51.113   3.116  17.841  0.00  0.00    +0.000 A 
ATOM     25  C   UNL     1      52.422   3.319  18.302  0.00  0.00    +0.000 A 
ATOM     26  C   UNL     1      53.374   2.303  18.228  0.00  0.00    +0.000 A 
ATOM     27  C   UNL     1      52.991   1.083  17.702  0.00  0.00    +0.000 A 
ATOM     28  N   UNL     1      51.746   0.827  17.254  0.00  0.00    +0.000 NA
ATOM     29  C   UNL     1      50.848   1.841  17.331  0.00  0.00    +0.000 A 
ENDBRANCH  22  24
ENDBRANCH  17  18
ENDBRANCH  16  17
ENDBRANCH   5  16
TORSDOF 8
ENDMDL
MODEL 8
REMARK VINA RESULT:    -6.730      3.747      6.819
REMARK INTER + INTRA:         -10.739
REMARK INTER:                  -9.813
REMARK INTRA:                  -0.925
REMARK UNBOUND:                -0.861
REMARK  Name = 
REMARK  10 active torsions:
REMARK  status: ('A' for Active; 'I' for Inactive)
REMARK    1  A    between atoms: C_1  and  C_2
REMARK    2  A    between atoms: C_2  and  C_3
REMARK    3  A    between atoms: C_2  and  C_4
REMARK    4  A    between atoms: C_4  and  C_5
REMARK    5  A    between atoms: C_5  and  N_6
REMARK    6  A    between atoms: C_7  and  C_9
REMARK    7  A    between atoms: C_13  and  O_14
REMARK    8  A    between atoms: O_14  and  C_15
REMARK    9  A    between atoms: C_15  and  C_16
REMARK   10  A    between atoms: C_20  and  C_21
REMARK                            x       y       z     vdW  Elec       q    Type
REMARK                         _______ _______ _______ _____ _____    ______ ____
ROOT
ATOM      1  C   UNL     1      45.055   9.947  11.559  0.00  0.00    +0.000 A 
ATOM      2  C   UNL     1      46.173  10.623  12.050  0.00  0.00    +0.000 A 
ATOM      3  C   UNL     1      47.215   9.873  12.555  0.00  0.00    +0.000 A 
ATOM      4  N   UNL     1      47.204   8.525  12.608  0.00  0.00    +0.000 NA
ATOM      5  C   UNL     1      46.117   7.899  12.108  0.00  0.00    +0.000 A 
ATOM      6  C   UNL     1      45.035   8.554  11.554  0.00  0.00    +0.000 A 
ENDROOT
BRANCH   1   8
ATOM      7  N   UNL     1      43.011  11.192  11.998  0.00  0.00    +0.000 N 
ATOM      8  C   UNL     1      43.916  10.753  11.054  0.00  0.00    +0.000 C 
ATOM      9  O   UNL     1      43.846  11.027   9.862  0.00  0.00    +0.000 OA
ATOM     10  H   UNL     1      43.170  11.015  12.980  0.00  0.00    +0.000 HD
BRANCH   7  11
ATOM     11  C   UNL     1      41.875  12.016  11.638  0.00  0.00    +0.000 C 
BRANCH  11  12
ATOM     12  C   UNL     1      40.704  11.855  12.610  0.00  0.00    +0.000 C 
BRANCH  12  14
ATOM     13  C   UNL     1      39.445  10.028  11.349  0.00  0.00    +0.000 C 
ATOM     14  C   UNL     1      39.375  11.432  11.951  0.00  0.00    +0.000 C 
ATOM     15  C   UNL     1      38.239  11.492  12.977  0.00  0.00    +0.000 C 
ENDBRANCH  12  14
ENDBRANCH  11  12
ENDBRANCH   7  11
ENDBRANCH   1   8
BRANCH   5  16
ATOM     16  O   UNL     1      46.068   6.520  12.119  0.00  0.00    +0.000 OA
BRANCH  16  17
ATOM     17  C   UNL     1      44.771   6.036  12.479  0.00  0.00    +0.000 C 
BRANCH  17  18
ATOM     18  C   UNL     1      44.416   4.838  11.642  0.00  0.00    +0.000 A 
ATOM     19  C   UNL     1      43.379   3.997  12.022  0.00  0.00    +0.000 A 
ATOM     20  N   UNL     1      43.049   2.865  11.366  0.00  0.00    +0.000 NA
ATOM     21  C   UNL     1      43.805   2.545  10.285  0.00  0.00    +0.000 A 
ATOM     22  C   UNL     1      44.876   3.296   9.799  0.00  0.00    +0.000 A 
ATOM     23  C   UNL     1      45.166   4.466  10.518  0.00  0.00    +0.000 A 
BRANCH  22  24
ATOM     24  C   UNL     1      45.661   2.896   8.615  0.00  0.00    +0.000 A 
ATOM     25  C   UNL     1      46.043   3.817   7.627  0.00  0.00    +0.000 A 
ATOM     26  C   UNL     1      46.761   3.407   6.505  0.00  0.00    +0.000 A 
ATOM     27  C   UNL     1      47.101   2.071   6.397  0.00  0.00    +0.000 A 
ATOM     28  N   UNL     1      46.772   1.145   7.318  0.00  0.00    +0.000 NA
ATOM     29  C   UNL     1      46.064   1.577   8.392  0.00  0.00    +0.000 A 
ENDBRANCH  22  24
ENDBRANCH  17  18
ENDBRANCH  16  17
ENDBRANCH   5  16
TORSDOF 8
ENDMDL
MODEL 9
REMARK VINA RESULT:    -6.548      2.468      3.060
REMARK INTER + INTRA:         -10.471
REMARK INTER:                  -9.539
REMARK INTRA:                  -0.932
REMARK UNBOUND:                -0.861
REMARK  Name = 
REMARK  10 active torsions:
REMARK  status: ('A' for Active; 'I' for Inactive)
REMARK    1  A    between atoms: C_1  and  C_2
REMARK    2  A    between atoms: C_2  and  C_3
REMARK    3  A    between atoms: C_2  and  C_4
REMARK    4  A    between atoms: C_4  and  C_5
REMARK    5  A    between atoms: C_5  and  N_6
REMARK    6  A    between atoms: C_7  and  C_9
REMARK    7  A    between atoms: C_13  and  O_14
REMARK    8  A    between atoms: O_14  and  C_15
REMARK    9  A    between atoms: C_15  and  C_16
REMARK   10  A    between atoms: C_20  and  C_21
REMARK                            x       y       z     vdW  Elec       q    Type
REMARK                         _______ _______ _______ _____ _____    ______ ____
ROOT
ATOM      1  C   UNL     1      49.043   7.359  14.428  0.00  0.00    +0.000 A 
ATOM      2  C   UNL     1      50.118   7.926  13.740  0.00  0.00    +0.000 A 
ATOM      3  C   UNL     1      49.886   8.430  12.477  0.00  0.00    +0.000 A 
ATOM      4  N   UNL     1      48.682   8.393  11.871  0.00  0.00    +0.000 NA
ATOM      5  C   UNL     1      47.659   7.856  12.569  0.00  0.00    +0.000 A 
ATOM      6  C   UNL     1      47.776   7.352  13.849  0.00  0.00    +0.000 A 
ENDROOT
BRANCH   1   8
ATOM      7  N   UNL     1      48.278   6.888  16.689  0.00  0.00    +0.000 N 
ATOM      8  C   UNL     1      49.300   6.779  15.770  0.00  0.00    +0.000 C 
ATOM      9  O   UNL     1      50.359   6.205  15.991  0.00  0.00    +0.000 OA
ATOM     10  H   UNL     1      47.389   7.289  16.422  0.00  0.00    +0.000 HD
BRANCH   7  11
ATOM     11  C   UNL     1      48.390   6.332  18.022  0.00  0.00    +0.000 C 
BRANCH  11  12
ATOM     12  C   UNL     1      47.314   6.863  18.971  0.00  0.00    +0.000 C 
BRANCH  12  14
ATOM     13  C   UNL     1      47.322   9.203  19.990  0.00  0.00    +0.000 C 
ATOM     14  C   UNL     1      47.842   7.769  20.101  0.00  0.00    +0.000 C 
ATOM     15  C   UNL     1      47.451   7.189  21.464  0.00  0.00    +0.000 C 
ENDBRANCH  12  14
ENDBRANCH  11  12
ENDBRANCH   7  11
ENDBRANCH   1   8
BRANCH   5  16
ATOM     16  O   UNL     1      46.402   7.816  12.000  0.00  0.00    +0.000 OA
BRANCH  16  17
ATOM     17  C   UNL     1      45.444   7.201  12.867  0.00  0.00    +0.000 C 
BRANCH  17  18
ATOM     18  C   UNL     1      44.785   6.042  12.171  0.00  0.00    +0.000 A 
ATOM     19  C   UNL     1      43.630   5.474  12.689  0.00  0.00    +0.000 A 
ATOM     20  N   UNL     1      43.022   4.390  12.165  0.00  0.00    +0.000 NA
ATOM     21  C   UNL     1      43.610   3.830  11.076  0.00  0.00    +0.000 A 
ATOM     22  C   UNL     1      44.772   4.294  10.458  0.00  0.00    +0.000 A 
ATOM     23  C   UNL     1      45.353   5.430  11.044  0.00  0.00    +0.000 A 
BRANCH  22  24
ATOM     24  C   UNL     1      45.363   3.643   9.274  0.00  0.00    +0.000 A 
ATOM     25  C   UNL     1      45.461   2.247   9.161  0.00  0.00    +0.000 A 
ATOM     26  C   UNL     1      46.050   1.659   8.041  0.00  0.00    +0.000 A 
ATOM     27  C   UNL     1      46.521   2.486   7.038  0.00  0.00    +0.000 A 
ATOM     28  N   UNL     1      46.443   3.830   7.087  0.00  0.00    +0.000 NA
ATOM     29  C   UNL     1      45.874   4.369   8.195  0.00  0.00    +0.000 A 
ENDBRANCH  22  24
ENDBRANCH  17  18
ENDBRANCH  16  17
ENDBRANCH   5  16
TORSDOF 8
ENDMDL
