MODEL 1
REMARK VINA RESULT:    -7.792      0.000      0.000
REMARK INTER + INTRA:         -12.595
REMARK INTER:                 -11.436
REMARK INTRA:                  -1.159
REMARK UNBOUND:                -1.159
REMARK  Name = 
REMARK  10 active torsions:
REMARK  status: ('A' for Active; 'I' for Inactive)
REMARK    1  A    between atoms: C_1  and  C_2
REMARK    2  A    between atoms: C_2  and  C_3
REMARK    3  A    between atoms: C_2  and  C_4
REMARK    4  A    between atoms: C_4  and  O_5
REMARK    5  A    between atoms: O_5  and  C_6
REMARK    6  A    between atoms: C_8  and  C_9
REMARK    7  A    between atoms: C_13  and  C_14
REMARK    8  A    between atoms: C_14  and  O_15
REMARK    9  A    between atoms: O_15  and  C_16
REMARK   10  A    between atoms: C_19  and  C_20
REMARK                            x       y       z     vdW  Elec       q    Type
REMARK                         _______ _______ _______ _____ _____    ______ ____
ROOT
ATOM      1  C   UNL     1      46.223   6.179  12.574  0.00  0.00    +0.000 A 
ATOM      2  C   UNL     1      47.029   5.487  13.498  0.00  0.00    +0.000 A 
ATOM      3  C   UNL     1      46.930   4.103  13.664  0.00  0.00    +0.000 A 
ATOM      4  C   UNL     1      45.997   3.378  12.930  0.00  0.00    +0.000 A 
ATOM      5  C   UNL     1      45.155   4.031  12.025  0.00  0.00    +0.000 A 
ATOM      6  C   UNL     1      45.298   5.417  11.834  0.00  0.00    +0.000 A 
ENDROOT
BRANCH   1   9
ATOM      7  C   UNL     1      45.370   9.840  12.162  0.00  0.00    +0.000 A 
ATOM      8  C   UNL     1      45.207   8.479  12.375  0.00  0.00    +0.000 A 
ATOM      9  C   UNL     1      46.336   7.645  12.395  0.00  0.00    +0.000 A 
ATOM     10  C   UNL     1      47.584   8.267  12.237  0.00  0.00    +0.000 A 
ATOM     11  C   UNL     1      47.648   9.642  12.067  0.00  0.00    +0.000 A 
ATOM     12  N   UNL     1      46.568  10.438  12.018  0.00  0.00    +0.000 NA
BRANCH   7  13
ATOM     13  O   UNL     1      44.224  10.612  12.119  0.00  0.00    +0.000 OA
BRANCH  13  14
ATOM     14  C   UNL     1      44.105  11.295  10.868  0.00  0.00    +0.000 C 
BRANCH  14  16
ATOM     15  C   UNL     1      42.013   9.949  10.605  0.00  0.00    +0.000 C 
ATOM     16  C   UNL     1      43.258  10.473   9.888  0.00  0.00    +0.000 C 
ATOM     17  C   UNL     1      42.864  11.278   8.651  0.00  0.00    +0.000 C 
ENDBRANCH  14  16
ENDBRANCH  13  14
ENDBRANCH   7  13
ENDBRANCH   1   9
BRANCH   5  18
ATOM     18  C   UNL     1      44.076   3.268  11.294  0.00  0.00    +0.000 C 
BRANCH  18  19
ATOM     19  O   UNL     1      43.885   3.814   9.988  0.00  0.00    +0.000 OA
BRANCH  19  20
ATOM     20  C   UNL     1      44.795   3.305   9.085  0.00  0.00    +0.000 A 
ATOM     21  C   UNL     1      45.329   4.162   8.126  0.00  0.00    +0.000 A 
ATOM     22  N   UNL     1      46.255   3.767   7.210  0.00  0.00    +0.000 NA
ATOM     23  C   UNL     1      46.620   2.456   7.305  0.00  0.00    +0.000 A 
ATOM     24  C   UNL     1      46.081   1.597   8.252  0.00  0.00    +0.000 A 
ATOM     25  N   UNL     1      45.159   2.003   9.160  0.00  0.00    +0.000 NA
BRANCH  23  26
ATOM     26  C   UNL     1      47.649   1.938   6.364  0.00  0.00    +0.000 C 
ATOM     27  N   UNL     1      48.864   2.565   6.392  0.00  0.00    +0.000 N 
ATOM     28  O   UNL     1      47.427   1.000   5.609  0.00  0.00    +0.000 OA
ATOM     29  H   UNL     1      49.028   3.333   7.035  0.00  0.00    +0.000 HD
ATOM     30  H   UNL     1      49.602   2.236   5.787  0.00  0.00    +0.000 HD
ENDBRANCH  23  26
ENDBRANCH  19  20
ENDBRANCH  18  19
ENDBRANCH   5  18
TORSDOF 8
ENDMDL
MODEL 2
REMARK VINA RESULT:    -7.471      4.301      8.615
REMARK INTER + INTRA:         -12.124
REMARK INTER:                 -11.202
REMARK INTRA:                  -0.923
REMARK UNBOUND:                -1.159
REMARK  Name = 
REMARK  10 active torsions:
REMARK  status: ('A' for Active; 'I' for Inactive)
REMARK    1  A    between atoms: C_1  and  C_2
REMARK    2  A    between atoms: C_2  and  C_3
REMARK    3  A    between atoms: C_2  and  C_4
REMARK    4  A    between atoms: C_4  and  O_5
REMARK    5  A    between atoms: O_5  and  C_6
REMARK    6  A    between atoms: C_8  and  C_9
REMARK    7  A    between atoms: C_13  and  C_14
REMARK    8  A    between atoms: C_14  and  O_15
REMARK    9  A    between atoms: O_15  and  C_16
REMARK   10  A    between atoms: C_19  and  C_20
REMARK                            x       y       z     vdW  Elec       q    Type
REMARK                         _______ _______ _______ _____ _____    ______ ____
ROOT
ATOM      1  C   UNL     1      45.503   6.309  11.479  0.00  0.00    +0.000 A 
ATOM      2  C   UNL     1      44.750   7.495  11.392  0.00  0.00    +0.000 A 
ATOM      3  C   UNL     1      45.103   8.640  12.111  0.00  0.00    +0.000 A 
ATOM      4  C   UNL     1      46.202   8.618  12.963  0.00  0.00    +0.000 A 
ATOM      5  C   UNL     1      46.958   7.450  13.102  0.00  0.00    +0.000 A 
ATOM      6  C   UNL     1      46.621   6.320  12.336  0.00  0.00    +0.000 A 
ENDROOT
BRANCH   1   9
ATOM      7  C   UNL     1      45.112   3.787   8.688  0.00  0.00    +0.000 A 
ATOM      8  C   UNL     1      45.524   4.921   9.373  0.00  0.00    +0.000 A 
ATOM      9  C   UNL     1      45.131   5.099  10.708  0.00  0.00    +0.000 A 
ATOM     10  C   UNL     1      44.365   4.074  11.284  0.00  0.00    +0.000 A 
ATOM     11  C   UNL     1      44.034   2.959  10.529  0.00  0.00    +0.000 A 
ATOM     12  N   UNL     1      44.383   2.799   9.243  0.00  0.00    +0.000 NA
BRANCH   7  13
ATOM     13  O   UNL     1      45.499   3.675   7.365  0.00  0.00    +0.000 OA
BRANCH  13  14
ATOM     14  C   UNL     1      46.919   3.778   7.231  0.00  0.00    +0.000 C 
BRANCH  14  16
ATOM     15  C   UNL     1      47.219   1.296   7.305  0.00  0.00    +0.000 C 
ATOM     16  C   UNL     1      47.475   2.560   6.482  0.00  0.00    +0.000 C 
ATOM     17  C   UNL     1      46.876   2.420   5.084  0.00  0.00    +0.000 C 
ENDBRANCH  14  16
ENDBRANCH  13  14
ENDBRANCH   7  13
ENDBRANCH   1   9
BRANCH   5  18
ATOM     18  C   UNL     1      48.095   7.387  14.094  0.00  0.00    +0.000 C 
BRANCH  18  19
ATOM     19  O   UNL     1      48.482   6.029  14.313  0.00  0.00    +0.000 OA
BRANCH  19  20
ATOM     20  C   UNL     1      48.504   5.717  15.656  0.00  0.00    +0.000 A 
ATOM     21  C   UNL     1      48.957   6.679  16.555  0.00  0.00    +0.000 A 
ATOM     22  N   UNL     1      48.990   6.482  17.901  0.00  0.00    +0.000 NA
ATOM     23  C   UNL     1      48.543   5.257  18.303  0.00  0.00    +0.000 A 
ATOM     24  C   UNL     1      48.102   4.293  17.409  0.00  0.00    +0.000 A 
ATOM     25  N   UNL     1      48.074   4.501  16.070  0.00  0.00    +0.000 NA
BRANCH  23  26
ATOM     26  C   UNL     1      48.515   4.958  19.760  0.00  0.00    +0.000 C 
ATOM     27  N   UNL     1      48.437   3.637  20.105  0.00  0.00    +0.000 N 
ATOM     28  O   UNL     1      48.565   5.842  20.607  0.00  0.00    +0.000 OA
ATOM     29  H   UNL     1      48.408   2.922  19.385  0.00  0.00    +0.000 HD
ATOM     30  H   UNL     1      48.436   3.382  21.082  0.00  0.00    +0.000 HD
ENDBRANCH  23  26
ENDBRANCH  19  20
ENDBRANCH  18  19
ENDBRANCH   5  18
TORSDOF 8
ENDMDL
MODEL 3
REMARK VINA RESULT:    -7.420      2.640      4.350
REMARK INTER + INTRA:         -12.049
REMARK INTER:                 -11.109
REMARK INTRA:                  -0.940
REMARK UNBOUND:                -1.159
REMARK  Name = 
REMARK  10 active torsions:
REMARK  status: ('A' for Active; 'I' for Inactive)
REMARK    1  A    between atoms: C_1  and  C_2
REMARK    2  A    between atoms: C_2  and  C_3
REMARK    3  A    between atoms: C_2  and  C_4
REMARK    4  A    between atoms: C_4  and  O_5
REMARK    5  A    between atoms: O_5  and  C_6
REMARK    6  A    between atoms: C_8  and  C_9
REMARK    7  A    between atoms: C_13  and  C_14
REMARK    8  A    between atoms: C_14  and  O_15
REMARK    9  A    between atoms: O_15  and  C_16
REMARK   10  A    between atoms: C_19  and  C_20
REMARK                            x       y       z     vdW  Elec       q    Type
REMARK                         _______ _______ _______ _____ _____    ______ ____
ROOT
ATOM      1  C   UNL     1      46.662   6.406  12.195  0.00  0.00    +0.000 A 
ATOM      2  C   UNL     1      46.838   5.468  13.230  0.00  0.00    +0.000 A 
ATOM      3  C   UNL     1      46.087   4.292  13.287  0.00  0.00    +0.000 A 
ATOM      4  C   UNL     1      45.115   4.037  12.325  0.00  0.00    +0.000 A 
ATOM      5  C   UNL     1      44.886   4.958  11.298  0.00  0.00    +0.000 A 
ATOM      6  C   UNL     1      45.683   6.115  11.226  0.00  0.00    +0.000 A 
ENDROOT
BRANCH   1   9
ATOM      7  C   UNL     1      49.514   8.837  11.689  0.00  0.00    +0.000 A 
ATOM      8  C   UNL     1      48.797   7.650  11.686  0.00  0.00    +0.000 A 
ATOM      9  C   UNL     1      47.467   7.649  12.133  0.00  0.00    +0.000 A 
ATOM     10  C   UNL     1      46.930   8.886  12.523  0.00  0.00    +0.000 A 
ATOM     11  C   UNL     1      47.716  10.026  12.455  0.00  0.00    +0.000 A 
ATOM     12  N   UNL     1      48.998  10.026  12.055  0.00  0.00    +0.000 NA
BRANCH   7  13
ATOM     13  O   UNL     1      50.831   8.777  11.268  0.00  0.00    +0.000 OA
BRANCH  13  14
ATOM     14  C   UNL     1      51.188   7.451  10.871  0.00  0.00    +0.000 C 
BRANCH  14  16
ATOM     15  C   UNL     1      52.885   8.876   9.709  0.00  0.00    +0.000 C 
ATOM     16  C   UNL     1      52.234   7.492   9.749  0.00  0.00    +0.000 C 
ATOM     17  C   UNL     1      53.296   6.406   9.910  0.00  0.00    +0.000 C 
ENDBRANCH  14  16
ENDBRANCH  13  14
ENDBRANCH   7  13
ENDBRANCH   1   9
BRANCH   5  18
ATOM     18  C   UNL     1      43.771   4.738  10.305  0.00  0.00    +0.000 C 
BRANCH  18  19
ATOM     19  O   UNL     1      43.711   3.360   9.929  0.00  0.00    +0.000 OA
BRANCH  19  20
ATOM     20  C   UNL     1      44.708   3.033   9.034  0.00  0.00    +0.000 A 
ATOM     21  C   UNL     1      45.240   1.746   9.074  0.00  0.00    +0.000 A 
ATOM     22  N   UNL     1      46.204   1.314   8.217  0.00  0.00    +0.000 NA
ATOM     23  C   UNL     1      46.613   2.248   7.310  0.00  0.00    +0.000 A 
ATOM     24  C   UNL     1      46.093   3.533   7.275  0.00  0.00    +0.000 A 
ATOM     25  N   UNL     1      45.132   3.952   8.135  0.00  0.00    +0.000 NA
BRANCH  23  26
ATOM     26  C   UNL     1      47.645   1.859   6.311  0.00  0.00    +0.000 C 
ATOM     27  N   UNL     1      48.776   2.628   6.279  0.00  0.00    +0.000 N 
ATOM     28  O   UNL     1      47.499   0.901   5.563  0.00  0.00    +0.000 OA
ATOM     29  H   UNL     1      48.879   3.410   6.918  0.00  0.00    +0.000 HD
ATOM     30  H   UNL     1      49.514   2.392   5.634  0.00  0.00    +0.000 HD
ENDBRANCH  23  26
ENDBRANCH  19  20
ENDBRANCH  18  19
ENDBRANCH   5  18
TORSDOF 8
ENDMDL
MODEL 4
REMARK VINA RESULT:    -7.281      2.850      5.453
REMARK INTER + INTRA:         -11.845
REMARK INTER:                 -10.810
REMARK INTRA:                  -1.035
REMARK UNBOUND:                -1.159
REMARK  Name = 
REMARK  10 active torsions:
REMARK  status: ('A' for Active; 'I' for Inactive)
REMARK    1  A    between atoms: C_1  and  C_2
REMARK    2  A    between atoms: C_2  and  C_3
REMARK    3  A    between atoms: C_2  and  C_4
REMARK    4  A    between atoms: C_4  and  O_5
REMARK    5  A    between atoms: O_5  and  C_6
REMARK    6  A    between atoms: C_8  and  C_9
REMARK    7  A    between atoms: C_13  and  C_14
REMARK    8  A    between atoms: C_14  and  O_15
REMARK    9  A    between atoms: O_15  and  C_16
REMARK   10  A    between atoms: C_19  and  C_20
REMARK                            x       y       z     vdW  Elec       q    Type
REMARK                         _______ _______ _______ _____ _____    ______ ____
ROOT
ATOM      1  C   UNL     1      46.591   6.827  12.736  0.00  0.00    +0.000 A 
ATOM      2  C   UNL     1      45.843   7.939  12.305  0.00  0.00    +0.000 A 
ATOM      3  C   UNL     1      44.621   7.788  11.644  0.00  0.00    +0.000 A 
ATOM      4  C   UNL     1      44.130   6.516  11.368  0.00  0.00    +0.000 A 
ATOM      5  C   UNL     1      44.857   5.385  11.750  0.00  0.00    +0.000 A 
ATOM      6  C   UNL     1      46.062   5.552  12.457  0.00  0.00    +0.000 A 
ENDROOT
BRANCH   1   9
ATOM      7  C   UNL     1      49.403   6.476  15.239  0.00  0.00    +0.000 A 
ATOM      8  C   UNL     1      48.196   6.250  14.594  0.00  0.00    +0.000 A 
ATOM      9  C   UNL     1      47.882   6.991  13.444  0.00  0.00    +0.000 A 
ATOM     10  C   UNL     1      48.851   7.900  12.993  0.00  0.00    +0.000 A 
ATOM     11  C   UNL     1      50.046   8.028  13.685  0.00  0.00    +0.000 A 
ATOM     12  N   UNL     1      50.337   7.342  14.802  0.00  0.00    +0.000 NA
BRANCH   7  13
ATOM     13  O   UNL     1      49.650   5.742  16.385  0.00  0.00    +0.000 OA
BRANCH  13  14
ATOM     14  C   UNL     1      48.518   4.946  16.746  0.00  0.00    +0.000 C 
BRANCH  14  16
ATOM     15  C   UNL     1      50.484   3.606  17.517  0.00  0.00    +0.000 C 
ATOM     16  C   UNL     1      48.973   3.583  17.283  0.00  0.00    +0.000 C 
ATOM     17  C   UNL     1      48.239   3.195  18.566  0.00  0.00    +0.000 C 
ENDBRANCH  14  16
ENDBRANCH  13  14
ENDBRANCH   7  13
ENDBRANCH   1   9
BRANCH   5  18
ATOM     18  C   UNL     1      44.381   4.003  11.373  0.00  0.00    +0.000 C 
BRANCH  18  19
ATOM     19  O   UNL     1      43.911   3.995  10.023  0.00  0.00    +0.000 OA
BRANCH  19  20
ATOM     20  C   UNL     1      44.859   3.494   9.156  0.00  0.00    +0.000 A 
ATOM     21  C   UNL     1      45.063   2.117   9.119  0.00  0.00    +0.000 A 
ATOM     22  N   UNL     1      45.952   1.520   8.280  0.00  0.00    +0.000 NA
ATOM     23  C   UNL     1      46.634   2.384   7.473  0.00  0.00    +0.000 A 
ATOM     24  C   UNL     1      46.441   3.757   7.516  0.00  0.00    +0.000 A 
ATOM     25  N   UNL     1      45.552   4.340   8.357  0.00  0.00    +0.000 NA
BRANCH  23  26
ATOM     26  C   UNL     1      47.609   1.822   6.500  0.00  0.00    +0.000 C 
ATOM     27  N   UNL     1      48.737   2.564   6.277  0.00  0.00    +0.000 N 
ATOM     28  O   UNL     1      47.421   0.753   5.933  0.00  0.00    +0.000 OA
ATOM     29  H   UNL     1      48.876   3.441   6.767  0.00  0.00    +0.000 HD
ATOM     30  H   UNL     1      49.438   2.214   5.641  0.00  0.00    +0.000 HD
ENDBRANCH  23  26
ENDBRANCH  19  20
ENDBRANCH  18  19
ENDBRANCH   5  18
TORSDOF 8
ENDMDL
MODEL 5
REMARK VINA RESULT:    -6.987      2.803      4.128
REMARK INTER + INTRA:         -11.414
REMARK INTER:                 -10.492
REMARK INTRA:                  -0.922
REMARK UNBOUND:                -1.159
REMARK  Name = 
REMARK  10 active torsions:
REMARK  status: ('A' for Active; 'I' for Inactive)
REMARK    1  A    between atoms: C_1  and  C_2
REMARK    2  A    between atoms: C_2  and  C_3
REMARK    3  A    between atoms: C_2  and  C_4
REMARK    4  A    between atoms: C_4  and  O_5
REMARK    5  A    between atoms: O_5  and  C_6
REMARK    6  A    between atoms: C_8  and  C_9
REMARK    7  A    between atoms: C_13  and  C_14
REMARK    8  A    between atoms: C_14  and  O_15
REMARK    9  A    between atoms: O_15  and  C_16
REMARK   10  A    between atoms: C_19  and  C_20
REMARK                            x       y       z     vdW  Elec       q    Type
REMARK                         _______ _______ _______ _____ _____    ______ ____
ROOT
ATOM      1  C   UNL     1      46.965   6.185  12.659  0.00  0.00    +0.000 A 
ATOM      2  C   UNL     1      46.955   5.135  13.597  0.00  0.00    +0.000 A 
ATOM      3  C   UNL     1      46.083   4.050  13.472  0.00  0.00    +0.000 A 
ATOM      4  C   UNL     1      45.174   4.004  12.420  0.00  0.00    +0.000 A 
ATOM      5  C   UNL     1      45.130   5.042  11.485  0.00  0.00    +0.000 A 
ATOM      6  C   UNL     1      46.046   6.103  11.596  0.00  0.00    +0.000 A 
ENDROOT
BRANCH   1   9
ATOM      7  C   UNL     1      48.963   9.067  14.073  0.00  0.00    +0.000 A 
ATOM      8  C   UNL     1      48.111   7.974  14.019  0.00  0.00    +0.000 A 
ATOM      9  C   UNL     1      47.897   7.330  12.790  0.00  0.00    +0.000 A 
ATOM     10  C   UNL     1      48.609   7.822  11.685  0.00  0.00    +0.000 A 
ATOM     11  C   UNL     1      49.468   8.897  11.848  0.00  0.00    +0.000 A 
ATOM     12  N   UNL     1      49.653   9.535  13.015  0.00  0.00    +0.000 NA
BRANCH   7  13
ATOM     13  O   UNL     1      49.115   9.686  15.301  0.00  0.00    +0.000 OA
BRANCH  13  14
ATOM     14  C   UNL     1      48.039   9.356  16.185  0.00  0.00    +0.000 C 
BRANCH  14  16
ATOM     15  C   UNL     1      48.122  10.936  18.122  0.00  0.00    +0.000 C 
ATOM     16  C   UNL     1      48.476   9.526  17.645  0.00  0.00    +0.000 C 
ATOM     17  C   UNL     1      47.846   8.478  18.561  0.00  0.00    +0.000 C 
ENDBRANCH  14  16
ENDBRANCH  13  14
ENDBRANCH   7  13
ENDBRANCH   1   9
BRANCH   5  18
ATOM     18  C   UNL     1      44.085   5.048  10.395  0.00  0.00    +0.000 C 
BRANCH  18  19
ATOM     19  O   UNL     1      43.826   3.714   9.953  0.00  0.00    +0.000 OA
BRANCH  19  20
ATOM     20  C   UNL     1      44.790   3.273   9.071  0.00  0.00    +0.000 A 
ATOM     21  C   UNL     1      45.212   1.949   9.155  0.00  0.00    +0.000 A 
ATOM     22  N   UNL     1      46.134   1.408   8.313  0.00  0.00    +0.000 NA
ATOM     23  C   UNL     1      46.619   2.273   7.376  0.00  0.00    +0.000 A 
ATOM     24  C   UNL     1      46.209   3.596   7.297  0.00  0.00    +0.000 A 
ATOM     25  N   UNL     1      45.289   4.123   8.142  0.00  0.00    +0.000 NA
BRANCH  23  26
ATOM     26  C   UNL     1      47.613   1.765   6.392  0.00  0.00    +0.000 C 
ATOM     27  N   UNL     1      48.751   2.510   6.243  0.00  0.00    +0.000 N 
ATOM     28  O   UNL     1      47.430   0.736   5.754  0.00  0.00    +0.000 OA
ATOM     29  H   UNL     1      48.885   3.353   6.792  0.00  0.00    +0.000 HD
ATOM     30  H   UNL     1      49.465   2.195   5.603  0.00  0.00    +0.000 HD
ENDBRANCH  23  26
ENDBRANCH  19  20
ENDBRANCH  18  19
ENDBRANCH   5  18
TORSDOF 8
ENDMDL
MODEL 6
REMARK VINA RESULT:    -6.879      4.726      8.722
REMARK INTER + INTRA:         -11.255
REMARK INTER:                 -10.275
REMARK INTRA:                  -0.981
REMARK UNBOUND:                -1.159
REMARK  Name = 
REMARK  10 active torsions:
REMARK  status: ('A' for Active; 'I' for Inactive)
REMARK    1  A    between atoms: C_1  and  C_2
REMARK    2  A    between atoms: C_2  and  C_3
REMARK    3  A    between atoms: C_2  and  C_4
REMARK    4  A    between atoms: C_4  and  O_5
REMARK    5  A    between atoms: O_5  and  C_6
REMARK    6  A    between atoms: C_8  and  C_9
REMARK    7  A    between atoms: C_13  and  C_14
REMARK    8  A    between atoms: C_14  and  O_15
REMARK    9  A    between atoms: O_15  and  C_16
REMARK   10  A    between atoms: C_19  and  C_20
REMARK                            x       y       z     vdW  Elec       q    Type
REMARK                         _______ _______ _______ _____ _____    ______ ____
ROOT
ATOM      1  C   UNL     1      45.922   6.968  12.544  0.00  0.00    +0.000 A 
ATOM      2  C   UNL     1      45.768   8.332  12.232  0.00  0.00    +0.000 A 
ATOM      3  C   UNL     1      46.669   9.295  12.694  0.00  0.00    +0.000 A 
ATOM      4  C   UNL     1      47.732   8.921  13.509  0.00  0.00    +0.000 A 
ATOM      5  C   UNL     1      47.903   7.581  13.868  0.00  0.00    +0.000 A 
ATOM      6  C   UNL     1      47.017   6.616  13.357  0.00  0.00    +0.000 A 
ENDROOT
BRANCH   1   9
ATOM      7  C   UNL     1      44.087   4.532  10.308  0.00  0.00    +0.000 A 
ATOM      8  C   UNL     1      45.031   5.456  10.732  0.00  0.00    +0.000 A 
ATOM      9  C   UNL     1      44.969   5.948  12.045  0.00  0.00    +0.000 A 
ATOM     10  C   UNL     1      43.959   5.429  12.869  0.00  0.00    +0.000 A 
ATOM     11  C   UNL     1      43.084   4.479  12.364  0.00  0.00    +0.000 A 
ATOM     12  N   UNL     1      43.121   4.028  11.100  0.00  0.00    +0.000 NA
BRANCH   7  13
ATOM     13  O   UNL     1      44.172   4.103   8.996  0.00  0.00    +0.000 OA
BRANCH  13  14
ATOM     14  C   UNL     1      45.512   4.200   8.505  0.00  0.00    +0.000 C 
BRANCH  14  16
ATOM     15  C   UNL     1      47.223   3.177   6.993  0.00  0.00    +0.000 C 
ATOM     16  C   UNL     1      45.864   2.967   7.663  0.00  0.00    +0.000 C 
ATOM     17  C   UNL     1      45.871   1.685   8.495  0.00  0.00    +0.000 C 
ENDBRANCH  14  16
ENDBRANCH  13  14
ENDBRANCH   7  13
ENDBRANCH   1   9
BRANCH   5  18
ATOM     18  C   UNL     1      48.998   7.178  14.828  0.00  0.00    +0.000 C 
BRANCH  18  19
ATOM     19  O   UNL     1      48.885   5.791  15.149  0.00  0.00    +0.000 OA
BRANCH  19  20
ATOM     20  C   UNL     1      48.797   5.589  16.511  0.00  0.00    +0.000 A 
ATOM     21  C   UNL     1      48.482   6.674  17.324  0.00  0.00    +0.000 A 
ATOM     22  N   UNL     1      48.343   6.575  18.674  0.00  0.00    +0.000 NA
ATOM     23  C   UNL     1      48.540   5.320  19.172  0.00  0.00    +0.000 A 
ATOM     24  C   UNL     1      48.866   4.240  18.365  0.00  0.00    +0.000 A 
ATOM     25  N   UNL     1      49.002   4.351  17.021  0.00  0.00    +0.000 NA
BRANCH  23  26
ATOM     26  C   UNL     1      48.381   5.107  20.635  0.00  0.00    +0.000 C 
ATOM     27  N   UNL     1      47.225   5.578  21.193  0.00  0.00    +0.000 N 
ATOM     28  O   UNL     1      49.232   4.536  21.306  0.00  0.00    +0.000 OA
ATOM     29  H   UNL     1      46.529   6.037  20.615  0.00  0.00    +0.000 HD
ATOM     30  H   UNL     1      47.061   5.438  22.179  0.00  0.00    +0.000 HD
ENDBRANCH  23  26
ENDBRANCH  19  20
ENDBRANCH  18  19
ENDBRANCH   5  18
TORSDOF 8
ENDMDL
MODEL 7
REMARK VINA RESULT:    -6.838      3.274      8.656
REMARK INTER + INTRA:         -11.195
REMARK INTER:                 -10.150
REMARK INTRA:                  -1.046
REMARK UNBOUND:                -1.159
REMARK  Name = 
REMARK  10 active torsions:
REMARK  status: ('A' for Active; 'I' for Inactive)
REMARK    1  A    between atoms: C_1  and  C_2
REMARK    2  A    between atoms: C_2  and  C_3
REMARK    3  A    between atoms: C_2  and  C_4
REMARK    4  A    between atoms: C_4  and  O_5
REMARK    5  A    between atoms: O_5  and  C_6
REMARK    6  A    between atoms: C_8  and  C_9
REMARK    7  A    between atoms: C_13  and  C_14
REMARK    8  A    between atoms: C_14  and  O_15
REMARK    9  A    between atoms: O_15  and  C_16
REMARK   10  A    between atoms: C_19  and  C_20
REMARK                            x       y       z     vdW  Elec       q    Type
REMARK                         _______ _______ _______ _____ _____    ______ ____
ROOT
ATOM      1  C   UNL     1      45.781   7.866  11.957  0.00  0.00    +0.000 A 
ATOM      2  C   UNL     1      47.003   8.502  12.245  0.00  0.00    +0.000 A 
ATOM      3  C   UNL     1      47.154   9.886  12.124  0.00  0.00    +0.000 A 
ATOM      4  C   UNL     1      46.092  10.667  11.680  0.00  0.00    +0.000 A 
ATOM      5  C   UNL     1      44.871  10.071  11.353  0.00  0.00    +0.000 A 
ATOM      6  C   UNL     1      44.718   8.683  11.526  0.00  0.00    +0.000 A 
ENDROOT
BRANCH   1   9
ATOM      7  C   UNL     1      44.960   4.243  11.247  0.00  0.00    +0.000 A 
ATOM      8  C   UNL     1      45.126   5.606  11.047  0.00  0.00    +0.000 A 
ATOM      9  C   UNL     1      45.622   6.399  12.094  0.00  0.00    +0.000 A 
ATOM     10  C   UNL     1      45.960   5.736  13.284  0.00  0.00    +0.000 A 
ATOM     11  C   UNL     1      45.793   4.363  13.375  0.00  0.00    +0.000 A 
ATOM     12  N   UNL     1      45.292   3.605  12.386  0.00  0.00    +0.000 NA
BRANCH   7  13
ATOM     13  O   UNL     1      44.439   3.513  10.194  0.00  0.00    +0.000 OA
BRANCH  13  14
ATOM     14  C   UNL     1      44.694   4.154   8.941  0.00  0.00    +0.000 C 
BRANCH  14  16
ATOM     15  C   UNL     1      46.587   3.785   7.348  0.00  0.00    +0.000 C 
ATOM     16  C   UNL     1      45.327   3.165   7.954  0.00  0.00    +0.000 C 
ATOM     17  C   UNL     1      45.654   1.824   8.611  0.00  0.00    +0.000 C 
ENDBRANCH  14  16
ENDBRANCH  13  14
ENDBRANCH   7  13
ENDBRANCH   1   9
BRANCH   5  18
ATOM     18  C   UNL     1      43.743  10.896  10.781  0.00  0.00    +0.000 C 
BRANCH  18  19
ATOM     19  O   UNL     1      43.100  11.637  11.820  0.00  0.00    +0.000 OA
BRANCH  19  20
ATOM     20  C   UNL     1      41.744  11.385  11.860  0.00  0.00    +0.000 A 
ATOM     21  C   UNL     1      41.185  10.597  10.857  0.00  0.00    +0.000 A 
ATOM     22  N   UNL     1      39.866  10.265  10.822  0.00  0.00    +0.000 NA
ATOM     23  C   UNL     1      39.129  10.771  11.852  0.00  0.00    +0.000 A 
ATOM     24  C   UNL     1      39.681  11.566  12.846  0.00  0.00    +0.000 A 
ATOM     25  N   UNL     1      40.997  11.890  12.870  0.00  0.00    +0.000 NA
BRANCH  23  26
ATOM     26  C   UNL     1      37.680  10.439  11.915  0.00  0.00    +0.000 C 
ATOM     27  N   UNL     1      37.340   9.152  11.600  0.00  0.00    +0.000 N 
ATOM     28  O   UNL     1      36.836  11.265  12.236  0.00  0.00    +0.000 OA
ATOM     29  H   UNL     1      38.059   8.481  11.348  0.00  0.00    +0.000 HD
ATOM     30  H   UNL     1      36.372   8.871  11.648  0.00  0.00    +0.000 HD
ENDBRANCH  23  26
ENDBRANCH  19  20
ENDBRANCH  18  19
ENDBRANCH   5  18
TORSDOF 8
ENDMDL
MODEL 8
REMARK VINA RESULT:    -6.731      3.004      5.309
REMARK INTER + INTRA:         -11.038
REMARK INTER:                 -10.094
REMARK INTRA:                  -0.944
REMARK UNBOUND:                -1.159
REMARK  Name = 
REMARK  10 active torsions:
REMARK  status: ('A' for Active; 'I' for Inactive)
REMARK    1  A    between atoms: C_1  and  C_2
REMARK    2  A    between atoms: C_2  and  C_3
REMARK    3  A    between atoms: C_2  and  C_4
REMARK    4  A    between atoms: C_4  and  O_5
REMARK    5  A    between atoms: O_5  and  C_6
REMARK    6  A    between atoms: C_8  and  C_9
REMARK    7  A    between atoms: C_13  and  C_14
REMARK    8  A    between atoms: C_14  and  O_15
REMARK    9  A    between atoms: O_15  and  C_16
REMARK   10  A    between atoms: C_19  and  C_20
REMARK                            x       y       z     vdW  Elec       q    Type
REMARK                         _______ _______ _______ _____ _____    ______ ____
ROOT
ATOM      1  C   UNL     1      47.104   7.033  12.533  0.00  0.00    +0.000 A 
ATOM      2  C   UNL     1      46.162   8.015  12.173  0.00  0.00    +0.000 A 
ATOM      3  C   UNL     1      44.890   7.673  11.710  0.00  0.00    +0.000 A 
ATOM      4  C   UNL     1      44.536   6.336  11.564  0.00  0.00    +0.000 A 
ATOM      5  C   UNL     1      45.454   5.330  11.881  0.00  0.00    +0.000 A 
ATOM      6  C   UNL     1      46.714   5.688  12.391  0.00  0.00    +0.000 A 
ENDROOT
BRANCH   1   9
ATOM      7  C   UNL     1      50.059   7.678  14.803  0.00  0.00    +0.000 A 
ATOM      8  C   UNL     1      48.797   7.281  14.387  0.00  0.00    +0.000 A 
ATOM      9  C   UNL     1      48.451   7.400  13.032  0.00  0.00    +0.000 A 
ATOM     10  C   UNL     1      49.443   7.885  12.165  0.00  0.00    +0.000 A 
ATOM     11  C   UNL     1      50.689   8.222  12.671  0.00  0.00    +0.000 A 
ATOM     12  N   UNL     1      51.015   8.137  13.971  0.00  0.00    +0.000 NA
BRANCH   7  13
ATOM     13  O   UNL     1      50.339   7.570  16.153  0.00  0.00    +0.000 OA
BRANCH  13  14
ATOM     14  C   UNL     1      51.116   6.401  16.430  0.00  0.00    +0.000 C 
BRANCH  14  16
ATOM     15  C   UNL     1      51.143   4.154  17.530  0.00  0.00    +0.000 C 
ATOM     16  C   UNL     1      50.295   5.395  17.248  0.00  0.00    +0.000 C 
ATOM     17  C   UNL     1      49.779   5.999  18.553  0.00  0.00    +0.000 C 
ENDBRANCH  14  16
ENDBRANCH  13  14
ENDBRANCH   7  13
ENDBRANCH   1   9
BRANCH   5  18
ATOM     18  C   UNL     1      45.114   3.878  11.637  0.00  0.00    +0.000 C 
BRANCH  18  19
ATOM     19  O   UNL     1      44.313   3.750  10.461  0.00  0.00    +0.000 OA
BRANCH  19  20
ATOM     20  C   UNL     1      45.069   3.384   9.367  0.00  0.00    +0.000 A 
ATOM     21  C   UNL     1      45.482   4.377   8.483  0.00  0.00    +0.000 A 
ATOM     22  N   UNL     1      46.255   4.126   7.392  0.00  0.00    +0.000 NA
ATOM     23  C   UNL     1      46.594   2.814   7.230  0.00  0.00    +0.000 A 
ATOM     24  C   UNL     1      46.174   1.821   8.103  0.00  0.00    +0.000 A 
ATOM     25  N   UNL     1      45.404   2.084   9.187  0.00  0.00    +0.000 NA
BRANCH  23  26
ATOM     26  C   UNL     1      47.461   2.444   6.079  0.00  0.00    +0.000 C 
ATOM     27  N   UNL     1      48.808   2.441   6.314  0.00  0.00    +0.000 N 
ATOM     28  O   UNL     1      46.999   2.152   4.983  0.00  0.00    +0.000 OA
ATOM     29  H   UNL     1      49.167   2.675   7.234  0.00  0.00    +0.000 HD
ATOM     30  H   UNL     1      49.438   2.176   5.570  0.00  0.00    +0.000 HD
ENDBRANCH  23  26
ENDBRANCH  19  20
ENDBRANCH  18  19
ENDBRANCH   5  18
TORSDOF 8
ENDMDL
MODEL 9
REMARK VINA RESULT:    -6.536      2.441      2.930
REMARK INTER + INTRA:         -10.752
REMARK INTER:                  -9.902
REMARK INTRA:                  -0.850
REMARK UNBOUND:                -1.159
REMARK  Name = 
REMARK  10 active torsions:
REMARK  status: ('A' for Active; 'I' for Inactive)
REMARK    1  A    between atoms: C_1  and  C_2
REMARK    2  A    between atoms: C_2  and  C_3
REMARK    3  A    between atoms: C_2  and  C_4
REMARK    4  A    between atoms: C_4  and  O_5
REMARK    5  A    between atoms: O_5  and  C_6
REMARK    6  A    between atoms: C_8  and  C_9
REMARK    7  A    between atoms: C_13  and  C_14
REMARK    8  A    between atoms: C_14  and  O_15
REMARK    9  A    between atoms: O_15  and  C_16
REMARK   10  A    between atoms: C_19  and  C_20
REMARK                            x       y       z     vdW  Elec       q    Type
REMARK                         _______ _______ _______ _____ _____    ______ ____
ROOT
ATOM      1  C   UNL     1      46.909   6.056  12.690  0.00  0.00    +0.000 A 
ATOM      2  C   UNL     1      46.955   4.931  13.534  0.00  0.00    +0.000 A 
ATOM      3  C   UNL     1      46.097   3.843  13.352  0.00  0.00    +0.000 A 
ATOM      4  C   UNL     1      45.146   3.867  12.337  0.00  0.00    +0.000 A 
ATOM      5  C   UNL     1      45.046   4.980  11.497  0.00  0.00    +0.000 A 
ATOM      6  C   UNL     1      45.947   6.046  11.661  0.00  0.00    +0.000 A 
ENDROOT
BRANCH   1   9
ATOM      7  C   UNL     1      48.862   9.246  12.131  0.00  0.00    +0.000 A 
ATOM      8  C   UNL     1      47.957   8.216  11.917  0.00  0.00    +0.000 A 
ATOM      9  C   UNL     1      47.826   7.205  12.881  0.00  0.00    +0.000 A 
ATOM     10  C   UNL     1      48.607   7.330  14.040  0.00  0.00    +0.000 A 
ATOM     11  C   UNL     1      49.456   8.416  14.180  0.00  0.00    +0.000 A 
ATOM     12  N   UNL     1      49.606   9.371  13.247  0.00  0.00    +0.000 NA
BRANCH   7  13
ATOM     13  O   UNL     1      48.976  10.200  11.137  0.00  0.00    +0.000 OA
BRANCH  13  14
ATOM     14  C   UNL     1      49.163  11.506  11.690  0.00  0.00    +0.000 C 
BRANCH  14  16
ATOM     15  C   UNL     1      47.805  12.000   9.649  0.00  0.00    +0.000 C 
ATOM     16  C   UNL     1      48.201  12.506  11.037  0.00  0.00    +0.000 C 
ATOM     17  C   UNL     1      46.958  12.752  11.891  0.00  0.00    +0.000 C 
ENDBRANCH  14  16
ENDBRANCH  13  14
ENDBRANCH   7  13
ENDBRANCH   1   9
BRANCH   5  18
ATOM     18  C   UNL     1      43.956   5.056  10.453  0.00  0.00    +0.000 C 
BRANCH  18  19
ATOM     19  O   UNL     1      43.673   3.753   9.941  0.00  0.00    +0.000 OA
BRANCH  19  20
ATOM     20  C   UNL     1      44.679   3.302   9.112  0.00  0.00    +0.000 A 
ATOM     21  C   UNL     1      45.049   1.962   9.187  0.00  0.00    +0.000 A 
ATOM     22  N   UNL     1      46.008   1.411   8.394  0.00  0.00    +0.000 NA
ATOM     23  C   UNL     1      46.583   2.281   7.515  0.00  0.00    +0.000 A 
ATOM     24  C   UNL     1      46.223   3.620   7.446  0.00  0.00    +0.000 A 
ATOM     25  N   UNL     1      45.266   4.157   8.242  0.00  0.00    +0.000 NA
BRANCH  23  26
ATOM     26  C   UNL     1      47.623   1.764   6.585  0.00  0.00    +0.000 C 
ATOM     27  N   UNL     1      47.293   0.646   5.870  0.00  0.00    +0.000 N 
ATOM     28  O   UNL     1      48.712   2.310   6.459  0.00  0.00    +0.000 OA
ATOM     29  H   UNL     1      46.379   0.219   5.983  0.00  0.00    +0.000 HD
ATOM     30  H   UNL     1      47.957   0.269   5.210  0.00  0.00    +0.000 HD
ENDBRANCH  23  26
ENDBRANCH  19  20
ENDBRANCH  18  19
ENDBRANCH   5  18
TORSDOF 8
ENDMDL
