MODEL 1
REMARK VINA RESULT:    -8.846      0.000      0.000
REMARK INTER + INTRA:         -13.060
REMARK INTER:                 -11.948
REMARK INTRA:                  -1.112
REMARK UNBOUND:                -1.112
REMARK  Name = 
REMARK  7 active torsions:
REMARK  status: ('A' for Active; 'I' for Inactive)
REMARK    1  A    between atoms: C_1  and  C_2
REMARK    2  A    between atoms: C_2  and  N_3
REMARK    3  A    between atoms: C_2  and  C_16
REMARK    4  A    between atoms: C_4  and  C_6
REMARK    5  A    between atoms: C_19  and  O_20
REMARK    6  A    between atoms: O_20  and  C_21
REMARK    7  A    between atoms: C_21  and  C_22
REMARK                            x       y       z     vdW  Elec       q    Type
REMARK                         _______ _______ _______ _____ _____    ______ ____
ROOT
ATOM      1  C   UNL     1      42.964   4.779  13.251  0.00  0.00    +0.000 C 
ATOM      2  C   UNL     1      44.337   4.183  12.912  0.00  0.00    +0.000 C 
ENDROOT
BRANCH   2   3
ATOM      3  C   UNL     1      44.679   4.216  11.432  0.00  0.00    +0.000 A 
ATOM      4  C   UNL     1      45.288   5.359  10.888  0.00  0.00    +0.000 A 
ATOM      5  C   UNL     1      45.651   5.405   9.538  0.00  0.00    +0.000 A 
ATOM      6  C   UNL     1      45.409   4.312   8.710  0.00  0.00    +0.000 A 
ATOM      7  C   UNL     1      44.717   3.211   9.217  0.00  0.00    +0.000 A 
ATOM      8  C   UNL     1      44.361   3.162  10.565  0.00  0.00    +0.000 A 
BRANCH   6   9
ATOM      9  O   UNL     1      45.893   4.401   7.430  0.00  0.00    +0.000 OA
BRANCH   9  10
ATOM     10  C   UNL     1      47.203   3.847   7.263  0.00  0.00    +0.000 C 
BRANCH  10  11
ATOM     11  C   UNL     1      47.188   2.584   6.439  0.00  0.00    +0.000 A 
ATOM     12  C   UNL     1      47.267   1.344   7.097  0.00  0.00    +0.000 A 
ATOM     13  C   UNL     1      47.217   0.152   6.379  0.00  0.00    +0.000 A 
ATOM     14  C   UNL     1      47.079   0.183   4.994  0.00  0.00    +0.000 A 
ATOM     15  C   UNL     1      46.985   1.406   4.330  0.00  0.00    +0.000 A 
ATOM     16  C   UNL     1      47.035   2.603   5.049  0.00  0.00    +0.000 A 
ENDBRANCH  10  11
ENDBRANCH   9  10
ENDBRANCH   6   9
ENDBRANCH   2   3
BRANCH   2  17
ATOM     17  N   UNL     1      45.380   4.866  13.645  0.00  0.00    +0.000 N 
ATOM     18  C   UNL     1      46.514   4.230  14.078  0.00  0.00    +0.000 C 
ATOM     19  O   UNL     1      46.779   3.071  13.779  0.00  0.00    +0.000 OA
ATOM     20  H   UNL     1      45.129   5.761  14.047  0.00  0.00    +0.000 HD
BRANCH  18  21
ATOM     21  C   UNL     1      47.428   5.046  14.883  0.00  0.00    +0.000 A 
ATOM     22  C   UNL     1      48.142   6.078  14.293  0.00  0.00    +0.000 A 
ATOM     23  S   UNL     1      49.135   6.929  15.388  0.00  0.00    +0.000 S 
ATOM     24  C   UNL     1      48.686   5.907  16.674  0.00  0.00    +0.000 A 
ATOM     25  N   UNL     1      49.218   6.070  17.915  0.00  0.00    +0.000 NA
ATOM     26  C   UNL     1      48.818   5.201  18.783  0.00  0.00    +0.000 A 
ATOM     27  N   UNL     1      47.928   4.189  18.524  0.00  0.00    +0.000 N 
ATOM     28  C   UNL     1      47.324   4.017  17.298  0.00  0.00    +0.000 A 
ATOM     29  O   UNL     1      46.465   3.157  17.130  0.00  0.00    +0.000 OA
ATOM     30  C   UNL     1      47.768   4.950  16.281  0.00  0.00    +0.000 A 
ATOM     31  H   UNL     1      47.641   3.555  19.257  0.00  0.00    +0.000 HD
ENDBRANCH  18  21
ENDBRANCH   2  17
TORSDOF 6
ENDMDL
MODEL 2
REMARK VINA RESULT:    -8.334      1.951      3.114
REMARK INTER + INTRA:         -12.369
REMARK INTER:                 -11.694
REMARK INTRA:                  -0.675
REMARK UNBOUND:                -1.112
REMARK  Name = 
REMARK  7 active torsions:
REMARK  status: ('A' for Active; 'I' for Inactive)
REMARK    1  A    between atoms: C_1  and  C_2
REMARK    2  A    between atoms: C_2  and  N_3
REMARK    3  A    between atoms: C_2  and  C_16
REMARK    4  A    between atoms: C_4  and  C_6
REMARK    5  A    between atoms: C_19  and  O_20
REMARK    6  A    between atoms: O_20  and  C_21
REMARK    7  A    between atoms: C_21  and  C_22
REMARK                            x       y       z     vdW  Elec       q    Type
REMARK                         _______ _______ _______ _____ _____    ______ ____
ROOT
ATOM      1  C   UNL     1      47.934   8.930  12.393  0.00  0.00    +0.000 C 
ATOM      2  C   UNL     1      46.834   8.228  13.199  0.00  0.00    +0.000 C 
ENDROOT
BRANCH   2   3
ATOM      3  C   UNL     1      46.110   7.130  12.438  0.00  0.00    +0.000 A 
ATOM      4  C   UNL     1      46.525   6.802  11.136  0.00  0.00    +0.000 A 
ATOM      5  C   UNL     1      45.904   5.770  10.424  0.00  0.00    +0.000 A 
ATOM      6  C   UNL     1      44.859   5.052  10.999  0.00  0.00    +0.000 A 
ATOM      7  C   UNL     1      44.376   5.435  12.252  0.00  0.00    +0.000 A 
ATOM      8  C   UNL     1      44.999   6.460  12.965  0.00  0.00    +0.000 A 
BRANCH   6   9
ATOM      9  O   UNL     1      44.381   3.990  10.275  0.00  0.00    +0.000 OA
BRANCH   9  10
ATOM     10  C   UNL     1      44.452   4.174   8.857  0.00  0.00    +0.000 C 
BRANCH  10  11
ATOM     11  C   UNL     1      45.417   3.217   8.204  0.00  0.00    +0.000 A 
ATOM     12  C   UNL     1      46.293   3.703   7.219  0.00  0.00    +0.000 A 
ATOM     13  C   UNL     1      47.228   2.863   6.618  0.00  0.00    +0.000 A 
ATOM     14  C   UNL     1      47.306   1.527   7.002  0.00  0.00    +0.000 A 
ATOM     15  C   UNL     1      46.453   1.035   7.989  0.00  0.00    +0.000 A 
ATOM     16  C   UNL     1      45.515   1.876   8.593  0.00  0.00    +0.000 A 
ENDBRANCH  10  11
ENDBRANCH   9  10
ENDBRANCH   6   9
ENDBRANCH   2   3
BRANCH   2  17
ATOM     17  N   UNL     1      47.379   7.667  14.417  0.00  0.00    +0.000 N 
ATOM     18  C   UNL     1      48.438   6.799  14.419  0.00  0.00    +0.000 C 
ATOM     19  O   UNL     1      49.071   6.522  13.406  0.00  0.00    +0.000 OA
ATOM     20  H   UNL     1      46.792   7.738  15.240  0.00  0.00    +0.000 HD
BRANCH  18  21
ATOM     21  C   UNL     1      48.808   6.255  15.729  0.00  0.00    +0.000 A 
ATOM     22  C   UNL     1      49.810   6.859  16.475  0.00  0.00    +0.000 A 
ATOM     23  S   UNL     1      50.085   6.103  17.979  0.00  0.00    +0.000 S 
ATOM     24  C   UNL     1      48.914   4.909  17.656  0.00  0.00    +0.000 A 
ATOM     25  N   UNL     1      48.672   3.908  18.543  0.00  0.00    +0.000 NA
ATOM     26  C   UNL     1      47.787   3.053  18.152  0.00  0.00    +0.000 A 
ATOM     27  N   UNL     1      47.116   3.112  16.956  0.00  0.00    +0.000 N 
ATOM     28  C   UNL     1      47.289   4.135  16.050  0.00  0.00    +0.000 A 
ATOM     29  O   UNL     1      46.606   4.204  15.032  0.00  0.00    +0.000 OA
ATOM     30  C   UNL     1      48.299   5.103  16.432  0.00  0.00    +0.000 A 
ATOM     31  H   UNL     1      46.418   2.420  16.720  0.00  0.00    +0.000 HD
ENDBRANCH  18  21
ENDBRANCH   2  17
TORSDOF 6
ENDMDL
MODEL 3
REMARK VINA RESULT:    -7.756      2.591      3.682
REMARK INTER + INTRA:         -11.588
REMARK INTER:                 -10.453
REMARK INTRA:                  -1.135
REMARK UNBOUND:                -1.112
REMARK  Name = 
REMARK  7 active torsions:
REMARK  status: ('A' for Active; 'I' for Inactive)
REMARK    1  A    between atoms: C_1  and  C_2
REMARK    2  A    between atoms: C_2  and  N_3
REMARK    3  A    between atoms: C_2  and  C_16
REMARK    4  A    between atoms: C_4  and  C_6
REMARK    5  A    between atoms: C_19  and  O_20
REMARK    6  A    between atoms: O_20  and  C_21
REMARK    7  A    between atoms: C_21  and  C_22
REMARK                            x       y       z     vdW  Elec       q    Type
REMARK                         _______ _______ _______ _____ _____    ______ ____
ROOT
ATOM      1  C   UNL     1      48.946   7.442  12.723  0.00  0.00    +0.000 C 
ATOM      2  C   UNL     1      47.730   6.940  13.513  0.00  0.00    +0.000 C 
ENDROOT
BRANCH   2   3
ATOM      3  C   UNL     1      46.765   6.097  12.697  0.00  0.00    +0.000 A 
ATOM      4  C   UNL     1      46.279   6.589  11.474  0.00  0.00    +0.000 A 
ATOM      5  C   UNL     1      45.419   5.821  10.681  0.00  0.00    +0.000 A 
ATOM      6  C   UNL     1      45.029   4.551  11.099  0.00  0.00    +0.000 A 
ATOM      7  C   UNL     1      45.427   4.094  12.356  0.00  0.00    +0.000 A 
ATOM      8  C   UNL     1      46.290   4.857  13.144  0.00  0.00    +0.000 A 
BRANCH   6   9
ATOM      9  O   UNL     1      44.274   3.826  10.213  0.00  0.00    +0.000 OA
BRANCH   9  10
ATOM     10  C   UNL     1      44.536   4.132   8.839  0.00  0.00    +0.000 C 
BRANCH  10  11
ATOM     11  C   UNL     1      45.594   3.236   8.246  0.00  0.00    +0.000 A 
ATOM     12  C   UNL     1      45.558   1.861   8.533  0.00  0.00    +0.000 A 
ATOM     13  C   UNL     1      46.492   0.991   7.975  0.00  0.00    +0.000 A 
ATOM     14  C   UNL     1      47.469   1.484   7.114  0.00  0.00    +0.000 A 
ATOM     15  C   UNL     1      47.507   2.844   6.808  0.00  0.00    +0.000 A 
ATOM     16  C   UNL     1      46.571   3.718   7.367  0.00  0.00    +0.000 A 
ENDBRANCH  10  11
ENDBRANCH   9  10
ENDBRANCH   6   9
ENDBRANCH   2   3
BRANCH   2  17
ATOM     17  N   UNL     1      48.156   6.174  14.664  0.00  0.00    +0.000 N 
ATOM     18  C   UNL     1      48.566   6.764  15.831  0.00  0.00    +0.000 C 
ATOM     19  O   UNL     1      48.495   7.973  16.024  0.00  0.00    +0.000 OA
ATOM     20  H   UNL     1      48.382   5.202  14.493  0.00  0.00    +0.000 HD
BRANCH  18  21
ATOM     21  C   UNL     1      49.049   5.847  16.868  0.00  0.00    +0.000 A 
ATOM     22  C   UNL     1      48.145   5.144  17.651  0.00  0.00    +0.000 A 
ATOM     23  S   UNL     1      48.890   4.111  18.785  0.00  0.00    +0.000 S 
ATOM     24  C   UNL     1      50.445   4.613  18.304  0.00  0.00    +0.000 A 
ATOM     25  N   UNL     1      51.558   4.129  18.917  0.00  0.00    +0.000 NA
ATOM     26  C   UNL     1      52.665   4.625  18.478  0.00  0.00    +0.000 A 
ATOM     27  N   UNL     1      52.763   5.558  17.475  0.00  0.00    +0.000 N 
ATOM     28  C   UNL     1      51.668   6.038  16.790  0.00  0.00    +0.000 A 
ATOM     29  O   UNL     1      51.801   6.802  15.839  0.00  0.00    +0.000 OA
ATOM     30  C   UNL     1      50.397   5.533  17.272  0.00  0.00    +0.000 A 
ATOM     31  H   UNL     1      53.665   5.889  17.164  0.00  0.00    +0.000 HD
ENDBRANCH  18  21
ENDBRANCH   2  17
TORSDOF 6
ENDMDL
MODEL 4
REMARK VINA RESULT:    -7.577      3.315      4.664
REMARK INTER + INTRA:         -11.347
REMARK INTER:                  -9.960
REMARK INTRA:                  -1.386
REMARK UNBOUND:                -1.112
REMARK  Name = 
REMARK  7 active torsions:
REMARK  status: ('A' for Active; 'I' for Inactive)
REMARK    1  A    between atoms: C_1  and  C_2
REMARK    2  A    between atoms: C_2  and  N_3
REMARK    3  A    between atoms: C_2  and  C_16
REMARK    4  A    between atoms: C_4  and  C_6
REMARK    5  A    between atoms: C_19  and  O_20
REMARK    6  A    between atoms: O_20  and  C_21
REMARK    7  A    between atoms: C_21  and  C_22
REMARK                            x       y       z     vdW  Elec       q    Type
REMARK                         _______ _______ _______ _____ _____    ______ ____
ROOT
ATOM      1  C   UNL     1      47.104   4.690  15.763  0.00  0.00    +0.000 C 
ATOM      2  C   UNL     1      47.550   5.122  14.360  0.00  0.00    +0.000 C 
ENDROOT
BRANCH   2   3
ATOM      3  C   UNL     1      46.582   4.736  13.254  0.00  0.00    +0.000 A 
ATOM      4  C   UNL     1      46.186   5.701  12.313  0.00  0.00    +0.000 A 
ATOM      5  C   UNL     1      45.326   5.368  11.261  0.00  0.00    +0.000 A 
ATOM      6  C   UNL     1      44.847   4.066  11.134  0.00  0.00    +0.000 A 
ATOM      7  C   UNL     1      45.155   3.126  12.118  0.00  0.00    +0.000 A 
ATOM      8  C   UNL     1      46.018   3.457  13.164  0.00  0.00    +0.000 A 
BRANCH   6   9
ATOM      9  O   UNL     1      44.098   3.802  10.015  0.00  0.00    +0.000 OA
BRANCH   9  10
ATOM     10  C   UNL     1      44.683   4.276   8.798  0.00  0.00    +0.000 C 
BRANCH  10  11
ATOM     11  C   UNL     1      45.663   3.290   8.213  0.00  0.00    +0.000 A 
ATOM     12  C   UNL     1      45.552   1.934   8.563  0.00  0.00    +0.000 A 
ATOM     13  C   UNL     1      46.410   0.983   8.015  0.00  0.00    +0.000 A 
ATOM     14  C   UNL     1      47.385   1.375   7.102  0.00  0.00    +0.000 A 
ATOM     15  C   UNL     1      47.497   2.716   6.734  0.00  0.00    +0.000 A 
ATOM     16  C   UNL     1      46.637   3.670   7.282  0.00  0.00    +0.000 A 
ENDBRANCH  10  11
ENDBRANCH   9  10
ENDBRANCH   6   9
ENDBRANCH   2   3
BRANCH   2  17
ATOM     17  N   UNL     1      47.760   6.553  14.314  0.00  0.00    +0.000 N 
ATOM     18  C   UNL     1      48.917   7.142  14.749  0.00  0.00    +0.000 C 
ATOM     19  O   UNL     1      49.898   6.497  15.103  0.00  0.00    +0.000 OA
ATOM     20  H   UNL     1      46.930   7.120  14.188  0.00  0.00    +0.000 HD
BRANCH  18  21
ATOM     21  C   UNL     1      48.932   8.608  14.716  0.00  0.00    +0.000 A 
ATOM     22  C   UNL     1      49.069   9.329  15.894  0.00  0.00    +0.000 A 
ATOM     23  S   UNL     1      49.088  11.018  15.657  0.00  0.00    +0.000 S 
ATOM     24  C   UNL     1      48.855  10.840  13.979  0.00  0.00    +0.000 A 
ATOM     25  N   UNL     1      48.743  11.927  13.169  0.00  0.00    +0.000 NA
ATOM     26  C   UNL     1      48.531  11.645  11.927  0.00  0.00    +0.000 A 
ATOM     27  N   UNL     1      48.429  10.374  11.419  0.00  0.00    +0.000 N 
ATOM     28  C   UNL     1      48.589   9.244  12.190  0.00  0.00    +0.000 A 
ATOM     29  O   UNL     1      48.582   8.125  11.685  0.00  0.00    +0.000 OA
ATOM     30  C   UNL     1      48.796   9.511  13.600  0.00  0.00    +0.000 A 
ATOM     31  H   UNL     1      48.283  10.224  10.430  0.00  0.00    +0.000 HD
ENDBRANCH  18  21
ENDBRANCH   2  17
TORSDOF 6
ENDMDL
MODEL 5
REMARK VINA RESULT:    -7.562      2.691      3.797
REMARK INTER + INTRA:         -11.327
REMARK INTER:                  -9.953
REMARK INTRA:                  -1.374
REMARK UNBOUND:                -1.112
REMARK  Name = 
REMARK  7 active torsions:
REMARK  status: ('A' for Active; 'I' for Inactive)
REMARK    1  A    between atoms: C_1  and  C_2
REMARK    2  A    between atoms: C_2  and  N_3
REMARK    3  A    between atoms: C_2  and  C_16
REMARK    4  A    between atoms: C_4  and  C_6
REMARK    5  A    between atoms: C_19  and  O_20
REMARK    6  A    between atoms: O_20  and  C_21
REMARK    7  A    between atoms: C_21  and  C_22
REMARK                            x       y       z     vdW  Elec       q    Type
REMARK                         _______ _______ _______ _____ _____    ______ ____
ROOT
ATOM      1  C   UNL     1      47.356   3.950  15.979  0.00  0.00    +0.000 C 
ATOM      2  C   UNL     1      47.759   4.955  14.892  0.00  0.00    +0.000 C 
ENDROOT
BRANCH   2   3
ATOM      3  C   UNL     1      46.859   4.940  13.668  0.00  0.00    +0.000 A 
ATOM      4  C   UNL     1      46.812   6.068  12.831  0.00  0.00    +0.000 A 
ATOM      5  C   UNL     1      46.023   6.071  11.675  0.00  0.00    +0.000 A 
ATOM      6  C   UNL     1      45.267   4.950  11.340  0.00  0.00    +0.000 A 
ATOM      7  C   UNL     1      45.232   3.864  12.216  0.00  0.00    +0.000 A 
ATOM      8  C   UNL     1      46.023   3.858  13.365  0.00  0.00    +0.000 A 
BRANCH   6   9
ATOM      9  O   UNL     1      44.610   4.999  10.137  0.00  0.00    +0.000 OA
BRANCH   9  10
ATOM     10  C   UNL     1      44.194   3.720   9.649  0.00  0.00    +0.000 C 
BRANCH  10  11
ATOM     11  C   UNL     1      45.217   3.099   8.730  0.00  0.00    +0.000 A 
ATOM     12  C   UNL     1      45.915   3.926   7.834  0.00  0.00    +0.000 A 
ATOM     13  C   UNL     1      46.896   3.402   6.996  0.00  0.00    +0.000 A 
ATOM     14  C   UNL     1      47.199   2.044   7.049  0.00  0.00    +0.000 A 
ATOM     15  C   UNL     1      46.524   1.214   7.944  0.00  0.00    +0.000 A 
ATOM     16  C   UNL     1      45.540   1.738   8.785  0.00  0.00    +0.000 A 
ENDBRANCH  10  11
ENDBRANCH   9  10
ENDBRANCH   6   9
ENDBRANCH   2   3
BRANCH   2  17
ATOM     17  N   UNL     1      47.788   6.298  15.431  0.00  0.00    +0.000 N 
ATOM     18  C   UNL     1      48.956   6.946  15.732  0.00  0.00    +0.000 C 
ATOM     19  O   UNL     1      50.060   6.483  15.464  0.00  0.00    +0.000 OA
ATOM     20  H   UNL     1      46.915   6.642  15.814  0.00  0.00    +0.000 HD
BRANCH  18  21
ATOM     21  C   UNL     1      48.806   8.265  16.353  0.00  0.00    +0.000 A 
ATOM     22  C   UNL     1      49.227   9.403  15.680  0.00  0.00    +0.000 A 
ATOM     23  S   UNL     1      48.950  10.846  16.546  0.00  0.00    +0.000 S 
ATOM     24  C   UNL     1      48.311   9.991  17.873  0.00  0.00    +0.000 A 
ATOM     25  N   UNL     1      47.906  10.643  18.996  0.00  0.00    +0.000 NA
ATOM     26  C   UNL     1      47.480   9.868  19.936  0.00  0.00    +0.000 A 
ATOM     27  N   UNL     1      47.414   8.499  19.854  0.00  0.00    +0.000 N 
ATOM     28  C   UNL     1      47.762   7.800  18.719  0.00  0.00    +0.000 A 
ATOM     29  O   UNL     1      47.604   6.585  18.650  0.00  0.00    +0.000 OA
ATOM     30  C   UNL     1      48.280   8.627  17.646  0.00  0.00    +0.000 A 
ATOM     31  H   UNL     1      47.048   7.953  20.621  0.00  0.00    +0.000 HD
ENDBRANCH  18  21
ENDBRANCH   2  17
TORSDOF 6
ENDMDL
MODEL 6
REMARK VINA RESULT:    -7.173      2.935      5.380
REMARK INTER + INTRA:         -10.801
REMARK INTER:                  -9.637
REMARK INTRA:                  -1.164
REMARK UNBOUND:                -1.112
REMARK  Name = 
REMARK  7 active torsions:
REMARK  status: ('A' for Active; 'I' for Inactive)
REMARK    1  A    between atoms: C_1  and  C_2
REMARK    2  A    between atoms: C_2  and  N_3
REMARK    3  A    between atoms: C_2  and  C_16
REMARK    4  A    between atoms: C_4  and  C_6
REMARK    5  A    between atoms: C_19  and  O_20
REMARK    6  A    between atoms: O_20  and  C_21
REMARK    7  A    between atoms: C_21  and  C_22
REMARK                            x       y       z     vdW  Elec       q    Type
REMARK                         _______ _______ _______ _____ _____    ______ ____
ROOT
ATOM      1  C   UNL     1      49.801   8.077  15.069  0.00  0.00    +0.000 C 
ATOM      2  C   UNL     1      49.095   6.945  15.827  0.00  0.00    +0.000 C 
ENDROOT
BRANCH   2   3
ATOM      3  C   UNL     1      48.097   6.164  14.989  0.00  0.00    +0.000 A 
ATOM      4  C   UNL     1      47.580   4.952  15.479  0.00  0.00    +0.000 A 
ATOM      5  C   UNL     1      46.632   4.229  14.748  0.00  0.00    +0.000 A 
ATOM      6  C   UNL     1      46.187   4.702  13.516  0.00  0.00    +0.000 A 
ATOM      7  C   UNL     1      46.765   5.852  12.977  0.00  0.00    +0.000 A 
ATOM      8  C   UNL     1      47.707   6.577  13.708  0.00  0.00    +0.000 A 
BRANCH   6   9
ATOM      9  O   UNL     1      45.179   3.988  12.920  0.00  0.00    +0.000 OA
BRANCH   9  10
ATOM     10  C   UNL     1      44.479   4.709  11.900  0.00  0.00    +0.000 C 
BRANCH  10  11
ATOM     11  C   UNL     1      44.734   4.145  10.525  0.00  0.00    +0.000 A 
ATOM     12  C   UNL     1      45.410   4.938   9.581  0.00  0.00    +0.000 A 
ATOM     13  C   UNL     1      45.702   4.443   8.312  0.00  0.00    +0.000 A 
ATOM     14  C   UNL     1      45.329   3.145   7.972  0.00  0.00    +0.000 A 
ATOM     15  C   UNL     1      44.671   2.343   8.904  0.00  0.00    +0.000 A 
ATOM     16  C   UNL     1      44.378   2.837  10.177  0.00  0.00    +0.000 A 
ENDBRANCH  10  11
ENDBRANCH   9  10
ENDBRANCH   6   9
ENDBRANCH   2   3
BRANCH   2  17
ATOM     17  N   UNL     1      50.064   6.022  16.375  0.00  0.00    +0.000 N 
ATOM     18  C   UNL     1      50.242   5.854  17.723  0.00  0.00    +0.000 C 
ATOM     19  O   UNL     1      49.520   6.386  18.559  0.00  0.00    +0.000 OA
ATOM     20  H   UNL     1      50.778   5.694  15.735  0.00  0.00    +0.000 HD
BRANCH  18  21
ATOM     21  C   UNL     1      51.326   4.946  18.110  0.00  0.00    +0.000 A 
ATOM     22  C   UNL     1      52.453   5.441  18.748  0.00  0.00    +0.000 A 
ATOM     23  S   UNL     1      53.595   4.236  19.142  0.00  0.00    +0.000 S 
ATOM     24  C   UNL     1      52.644   3.022  18.419  0.00  0.00    +0.000 A 
ATOM     25  N   UNL     1      53.071   1.732  18.376  0.00  0.00    +0.000 NA
ATOM     26  C   UNL     1      52.268   0.926  17.765  0.00  0.00    +0.000 A 
ATOM     27  N   UNL     1      51.072   1.292  17.199  0.00  0.00    +0.000 N 
ATOM     28  C   UNL     1      50.574   2.574  17.264  0.00  0.00    +0.000 A 
ATOM     29  O   UNL     1      49.459   2.845  16.827  0.00  0.00    +0.000 OA
ATOM     30  C   UNL     1      51.458   3.523  17.913  0.00  0.00    +0.000 A 
ATOM     31  H   UNL     1      50.481   0.605  16.754  0.00  0.00    +0.000 HD
ENDBRANCH  18  21
ENDBRANCH   2  17
TORSDOF 6
ENDMDL
MODEL 7
REMARK VINA RESULT:    -7.163      3.105      4.910
REMARK INTER + INTRA:         -10.787
REMARK INTER:                  -9.507
REMARK INTRA:                  -1.280
REMARK UNBOUND:                -1.112
REMARK  Name = 
REMARK  7 active torsions:
REMARK  status: ('A' for Active; 'I' for Inactive)
REMARK    1  A    between atoms: C_1  and  C_2
REMARK    2  A    between atoms: C_2  and  N_3
REMARK    3  A    between atoms: C_2  and  C_16
REMARK    4  A    between atoms: C_4  and  C_6
REMARK    5  A    between atoms: C_19  and  O_20
REMARK    6  A    between atoms: O_20  and  C_21
REMARK    7  A    between atoms: C_21  and  C_22
REMARK                            x       y       z     vdW  Elec       q    Type
REMARK                         _______ _______ _______ _____ _____    ______ ____
ROOT
ATOM      1  C   UNL     1      47.448   3.470  16.895  0.00  0.00    +0.000 C 
ATOM      2  C   UNL     1      47.936   4.755  16.214  0.00  0.00    +0.000 C 
ENDROOT
BRANCH   2   3
ATOM      3  C   UNL     1      47.286   5.031  14.869  0.00  0.00    +0.000 A 
ATOM      4  C   UNL     1      47.586   6.222  14.187  0.00  0.00    +0.000 A 
ATOM      5  C   UNL     1      47.033   6.488  12.929  0.00  0.00    +0.000 A 
ATOM      6  C   UNL     1      46.171   5.569  12.335  0.00  0.00    +0.000 A 
ATOM      7  C   UNL     1      45.790   4.431  13.047  0.00  0.00    +0.000 A 
ATOM      8  C   UNL     1      46.346   4.162  14.298  0.00  0.00    +0.000 A 
BRANCH   6   9
ATOM      9  O   UNL     1      45.762   5.859  11.059  0.00  0.00    +0.000 OA
BRANCH   9  10
ATOM     10  C   UNL     1      44.706   5.019  10.581  0.00  0.00    +0.000 C 
BRANCH  10  11
ATOM     11  C   UNL     1      45.184   4.033   9.545  0.00  0.00    +0.000 A 
ATOM     12  C   UNL     1      45.821   4.518   8.389  0.00  0.00    +0.000 A 
ATOM     13  C   UNL     1      46.313   3.641   7.425  0.00  0.00    +0.000 A 
ATOM     14  C   UNL     1      46.184   2.267   7.608  0.00  0.00    +0.000 A 
ATOM     15  C   UNL     1      45.568   1.772   8.757  0.00  0.00    +0.000 A 
ATOM     16  C   UNL     1      45.074   2.650   9.725  0.00  0.00    +0.000 A 
ENDBRANCH  10  11
ENDBRANCH   9  10
ENDBRANCH   6   9
ENDBRANCH   2   3
BRANCH   2  17
ATOM     17  N   UNL     1      47.722   5.897  17.076  0.00  0.00    +0.000 N 
ATOM     18  C   UNL     1      48.609   6.257  18.056  0.00  0.00    +0.000 C 
ATOM     19  O   UNL     1      49.696   5.710  18.200  0.00  0.00    +0.000 OA
ATOM     20  H   UNL     1      46.778   6.266  17.099  0.00  0.00    +0.000 HD
BRANCH  18  21
ATOM     21  C   UNL     1      48.197   7.385  18.898  0.00  0.00    +0.000 A 
ATOM     22  C   UNL     1      47.946   7.189  20.248  0.00  0.00    +0.000 A 
ATOM     23  S   UNL     1      47.502   8.617  21.069  0.00  0.00    +0.000 S 
ATOM     24  C   UNL     1      47.576   9.531  19.634  0.00  0.00    +0.000 A 
ATOM     25  N   UNL     1      47.267  10.856  19.631  0.00  0.00    +0.000 NA
ATOM     26  C   UNL     1      47.329  11.413  18.468  0.00  0.00    +0.000 A 
ATOM     27  N   UNL     1      47.678  10.769  17.308  0.00  0.00    +0.000 N 
ATOM     28  C   UNL     1      48.050   9.443  17.270  0.00  0.00    +0.000 A 
ATOM     29  O   UNL     1      48.444   8.924  16.230  0.00  0.00    +0.000 OA
ATOM     30  C   UNL     1      47.964   8.765  18.549  0.00  0.00    +0.000 A 
ATOM     31  H   UNL     1      47.727  11.271  16.432  0.00  0.00    +0.000 HD
ENDBRANCH  18  21
ENDBRANCH   2  17
TORSDOF 6
ENDMDL
MODEL 8
REMARK VINA RESULT:    -6.599      2.675      4.653
REMARK INTER + INTRA:         -10.026
REMARK INTER:                  -8.754
REMARK INTRA:                  -1.272
REMARK UNBOUND:                -1.112
REMARK  Name = 
REMARK  7 active torsions:
REMARK  status: ('A' for Active; 'I' for Inactive)
REMARK    1  A    between atoms: C_1  and  C_2
REMARK    2  A    between atoms: C_2  and  N_3
REMARK    3  A    between atoms: C_2  and  C_16
REMARK    4  A    between atoms: C_4  and  C_6
REMARK    5  A    between atoms: C_19  and  O_20
REMARK    6  A    between atoms: O_20  and  C_21
REMARK    7  A    between atoms: C_21  and  C_22
REMARK                            x       y       z     vdW  Elec       q    Type
REMARK                         _______ _______ _______ _____ _____    ______ ____
ROOT
ATOM      1  C   UNL     1      50.000   9.356  13.286  0.00  0.00    +0.000 C 
ATOM      2  C   UNL     1      48.707   9.039  14.049  0.00  0.00    +0.000 C 
ENDROOT
BRANCH   2   3
ATOM      3  C   UNL     1      47.622   8.406  13.196  0.00  0.00    +0.000 A 
ATOM      4  C   UNL     1      47.895   7.216  12.500  0.00  0.00    +0.000 A 
ATOM      5  C   UNL     1      46.905   6.587  11.737  0.00  0.00    +0.000 A 
ATOM      6  C   UNL     1      45.629   7.138  11.654  0.00  0.00    +0.000 A 
ATOM      7  C   UNL     1      45.376   8.370  12.260  0.00  0.00    +0.000 A 
ATOM      8  C   UNL     1      46.361   8.994  13.027  0.00  0.00    +0.000 A 
BRANCH   6   9
ATOM      9  O   UNL     1      44.693   6.402  10.975  0.00  0.00    +0.000 OA
BRANCH   9  10
ATOM     10  C   UNL     1      44.705   5.007  11.296  0.00  0.00    +0.000 C 
BRANCH  10  11
ATOM     11  C   UNL     1      45.009   4.146  10.095  0.00  0.00    +0.000 A 
ATOM     12  C   UNL     1      45.580   4.744   8.958  0.00  0.00    +0.000 A 
ATOM     13  C   UNL     1      45.914   3.981   7.842  0.00  0.00    +0.000 A 
ATOM     14  C   UNL     1      45.690   2.607   7.852  0.00  0.00    +0.000 A 
ATOM     15  C   UNL     1      45.139   1.998   8.978  0.00  0.00    +0.000 A 
ATOM     16  C   UNL     1      44.803   2.762  10.099  0.00  0.00    +0.000 A 
ENDBRANCH  10  11
ENDBRANCH   9  10
ENDBRANCH   6   9
ENDBRANCH   2   3
BRANCH   2  17
ATOM     17  N   UNL     1      48.983   8.169  15.171  0.00  0.00    +0.000 N 
ATOM     18  C   UNL     1      48.530   8.433  16.437  0.00  0.00    +0.000 C 
ATOM     19  O   UNL     1      47.769   9.360  16.690  0.00  0.00    +0.000 OA
ATOM     20  H   UNL     1      49.730   7.497  15.040  0.00  0.00    +0.000 HD
BRANCH  18  21
ATOM     21  C   UNL     1      48.973   7.497  17.475  0.00  0.00    +0.000 A 
ATOM     22  C   UNL     1      49.559   7.975  18.638  0.00  0.00    +0.000 A 
ATOM     23  S   UNL     1      49.988   6.743  19.738  0.00  0.00    +0.000 S 
ATOM     24  C   UNL     1      49.457   5.528  18.668  0.00  0.00    +0.000 A 
ATOM     25  N   UNL     1      49.577   4.212  18.990  0.00  0.00    +0.000 NA
ATOM     26  C   UNL     1      49.170   3.402  18.071  0.00  0.00    +0.000 A 
ATOM     27  N   UNL     1      48.647   3.787  16.862  0.00  0.00    +0.000 N 
ATOM     28  C   UNL     1      48.458   5.106  16.514  0.00  0.00    +0.000 A 
ATOM     29  O   UNL     1      47.903   5.412  15.462  0.00  0.00    +0.000 OA
ATOM     30  C   UNL     1      48.931   6.055  17.502  0.00  0.00    +0.000 A 
ATOM     31  H   UNL     1      48.327   3.099  16.195  0.00  0.00    +0.000 HD
ENDBRANCH  18  21
ENDBRANCH   2  17
TORSDOF 6
ENDMDL
MODEL 9
REMARK VINA RESULT:    -6.593      4.656     10.746
REMARK INTER + INTRA:         -10.017
REMARK INTER:                  -9.806
REMARK INTRA:                  -0.211
REMARK UNBOUND:                -1.112
REMARK  Name = 
REMARK  7 active torsions:
REMARK  status: ('A' for Active; 'I' for Inactive)
REMARK    1  A    between atoms: C_1  and  C_2
REMARK    2  A    between atoms: C_2  and  N_3
REMARK    3  A    between atoms: C_2  and  C_16
REMARK    4  A    between atoms: C_4  and  C_6
REMARK    5  A    between atoms: C_19  and  O_20
REMARK    6  A    between atoms: O_20  and  C_21
REMARK    7  A    between atoms: C_21  and  C_22
REMARK                            x       y       z     vdW  Elec       q    Type
REMARK                         _______ _______ _______ _____ _____    ______ ____
ROOT
ATOM      1  C   UNL     1      48.538   2.713  16.304  0.00  0.00    +0.000 C 
ATOM      2  C   UNL     1      47.366   3.540  16.847  0.00  0.00    +0.000 C 
ENDROOT
BRANCH   2   3
ATOM      3  C   UNL     1      47.696   4.340  18.096  0.00  0.00    +0.000 A 
ATOM      4  C   UNL     1      46.873   5.417  18.465  0.00  0.00    +0.000 A 
ATOM      5  C   UNL     1      47.128   6.150  19.630  0.00  0.00    +0.000 A 
ATOM      6  C   UNL     1      48.210   5.818  20.442  0.00  0.00    +0.000 A 
ATOM      7  C   UNL     1      49.088   4.814  20.033  0.00  0.00    +0.000 A 
ATOM      8  C   UNL     1      48.831   4.080  18.875  0.00  0.00    +0.000 A 
BRANCH   6   9
ATOM      9  O   UNL     1      48.322   6.516  21.617  0.00  0.00    +0.000 OA
BRANCH   9  10
ATOM     10  C   UNL     1      48.896   7.819  21.468  0.00  0.00    +0.000 C 
BRANCH  10  11
ATOM     11  C   UNL     1      47.848   8.893  21.320  0.00  0.00    +0.000 A 
ATOM     12  C   UNL     1      47.827   9.665  20.147  0.00  0.00    +0.000 A 
ATOM     13  C   UNL     1      46.852  10.641  19.951  0.00  0.00    +0.000 A 
ATOM     14  C   UNL     1      45.878  10.850  20.924  0.00  0.00    +0.000 A 
ATOM     15  C   UNL     1      45.878  10.081  22.087  0.00  0.00    +0.000 A 
ATOM     16  C   UNL     1      46.855   9.102  22.284  0.00  0.00    +0.000 A 
ENDBRANCH  10  11
ENDBRANCH   9  10
ENDBRANCH   6   9
ENDBRANCH   2   3
BRANCH   2  17
ATOM     17  N   UNL     1      46.874   4.447  15.832  0.00  0.00    +0.000 N 
ATOM     18  C   UNL     1      46.852   4.122  14.502  0.00  0.00    +0.000 C 
ATOM     19  O   UNL     1      47.142   3.005  14.087  0.00  0.00    +0.000 OA
ATOM     20  H   UNL     1      46.784   5.417  16.109  0.00  0.00    +0.000 HD
BRANCH  18  21
ATOM     21  C   UNL     1      46.406   5.186  13.598  0.00  0.00    +0.000 A 
ATOM     22  C   UNL     1      47.240   6.261  13.323  0.00  0.00    +0.000 A 
ATOM     23  S   UNL     1      46.561   7.386  12.235  0.00  0.00    +0.000 S 
ATOM     24  C   UNL     1      45.108   6.502  12.141  0.00  0.00    +0.000 A 
ATOM     25  N   UNL     1      44.066   6.945  11.389  0.00  0.00    +0.000 NA
ATOM     26  C   UNL     1      43.016   6.197  11.441  0.00  0.00    +0.000 A 
ATOM     27  N   UNL     1      42.914   5.039  12.172  0.00  0.00    +0.000 N 
ATOM     28  C   UNL     1      43.959   4.523  12.906  0.00  0.00    +0.000 A 
ATOM     29  O   UNL     1      43.861   3.439  13.473  0.00  0.00    +0.000 OA
ATOM     30  C   UNL     1      45.151   5.348  12.905  0.00  0.00    +0.000 A 
ATOM     31  H   UNL     1      42.068   4.488  12.151  0.00  0.00    +0.000 HD
ENDBRANCH  18  21
ENDBRANCH   2  17
TORSDOF 6
ENDMDL
