MODEL 1
REMARK VINA RESULT:    -7.385      0.000      0.000
REMARK INTER + INTRA:          -9.443
REMARK INTER:                  -9.112
REMARK INTRA:                  -0.331
REMARK UNBOUND:                -0.331
REMARK  Name = 
REMARK  4 active torsions:
REMARK  status: ('A' for Active; 'I' for Inactive)
REMARK    1  A    between atoms: C_5  and  O_6
REMARK    2  A    between atoms: O_6  and  C_7
REMARK    3  A    between atoms: C_7  and  C_8
REMARK    4  A    between atoms: C_13  and  C_14
REMARK                            x       y       z     vdW  Elec       q    Type
REMARK                         _______ _______ _______ _____ _____    ______ ____
ROOT
ATOM      1  C   UNL     1      45.176   5.271  12.342  0.00  0.00    +0.000 A 
ATOM      2  C   UNL     1      45.711   4.480  13.373  0.00  0.00    +0.000 A 
ATOM      3  C   UNL     1      46.897   4.814  14.023  0.00  0.00    +0.000 A 
ATOM      4  C   UNL     1      47.592   5.952  13.638  0.00  0.00    +0.000 A 
ATOM      5  F   UNL     1      48.735   6.223  14.285  0.00  0.00    +0.000 F 
ATOM      6  C   UNL     1      47.125   6.789  12.615  0.00  0.00    +0.000 A 
ATOM      7  C   UNL     1      45.908   6.426  11.992  0.00  0.00    +0.000 A 
ENDROOT
BRANCH   6   8
ATOM      8  C   UNL     1      47.861   8.002  12.192  0.00  0.00    +0.000 A 
ATOM      9  C   UNL     1      49.168   7.927  11.687  0.00  0.00    +0.000 A 
ATOM     10  C   UNL     1      49.849   9.086  11.305  0.00  0.00    +0.000 A 
ATOM     11  C   UNL     1      49.204  10.303  11.428  0.00  0.00    +0.000 A 
ATOM     12  N   UNL     1      47.952  10.433  11.906  0.00  0.00    +0.000 NA
ATOM     13  C   UNL     1      47.316   9.289  12.270  0.00  0.00    +0.000 A 
ENDBRANCH   6   8
BRANCH   1  14
ATOM     14  C   UNL     1      43.893   4.865  11.609  0.00  0.00    +0.000 C 
ATOM     15  C   UNL     1      42.541   5.166  12.248  0.00  0.00    +0.000 C 
ATOM     16  C   UNL     1      43.007   5.975  11.083  0.00  0.00    +0.000 C 
BRANCH  14  17
ATOM     17  O   UNL     1      43.850   3.575  10.938  0.00  0.00    +0.000 OA
BRANCH  17  22
ATOM     18  F   UNL     1      46.688   3.093   6.397  0.00  0.00    +0.000 F 
ATOM     19  C   UNL     1      46.091   3.247   7.587  0.00  0.00    +0.000 A 
ATOM     20  C   UNL     1      45.863   2.134   8.380  0.00  0.00    +0.000 A 
ATOM     21  N   UNL     1      45.180   2.193   9.551  0.00  0.00    +0.000 NA
ATOM     22  C   UNL     1      44.704   3.417   9.867  0.00  0.00    +0.000 A 
ATOM     23  C   UNL     1      44.995   4.545   9.108  0.00  0.00    +0.000 A 
ATOM     24  N   UNL     1      45.691   4.489   7.944  0.00  0.00    +0.000 NA
ENDBRANCH  17  22
ENDBRANCH  14  17
ENDBRANCH   1  14
TORSDOF 4
ENDMDL
MODEL 2
REMARK VINA RESULT:    -7.377      2.257      3.899
REMARK INTER + INTRA:          -9.434
REMARK INTER:                  -9.282
REMARK INTRA:                  -0.152
REMARK UNBOUND:                -0.331
REMARK  Name = 
REMARK  4 active torsions:
REMARK  status: ('A' for Active; 'I' for Inactive)
REMARK    1  A    between atoms: C_5  and  O_6
REMARK    2  A    between atoms: O_6  and  C_7
REMARK    3  A    between atoms: C_7  and  C_8
REMARK    4  A    between atoms: C_13  and  C_14
REMARK                            x       y       z     vdW  Elec       q    Type
REMARK                         _______ _______ _______ _____ _____    ______ ____
ROOT
ATOM      1  C   UNL     1      45.384   5.179  12.331  0.00  0.00    +0.000 A 
ATOM      2  C   UNL     1      46.173   6.213  11.800  0.00  0.00    +0.000 A 
ATOM      3  C   UNL     1      47.347   6.639  12.417  0.00  0.00    +0.000 A 
ATOM      4  C   UNL     1      47.753   6.045  13.603  0.00  0.00    +0.000 A 
ATOM      5  F   UNL     1      48.883   6.499  14.165  0.00  0.00    +0.000 F 
ATOM      6  C   UNL     1      47.016   5.010  14.197  0.00  0.00    +0.000 A 
ATOM      7  C   UNL     1      45.840   4.593  13.530  0.00  0.00    +0.000 A 
ENDROOT
BRANCH   6   8
ATOM      8  C   UNL     1      47.435   4.372  15.466  0.00  0.00    +0.000 A 
ATOM      9  C   UNL     1      47.922   3.057  15.500  0.00  0.00    +0.000 A 
ATOM     10  C   UNL     1      48.301   2.472  16.711  0.00  0.00    +0.000 A 
ATOM     11  C   UNL     1      48.191   3.217  17.869  0.00  0.00    +0.000 A 
ATOM     12  N   UNL     1      47.730   4.483  17.895  0.00  0.00    +0.000 NA
ATOM     13  C   UNL     1      47.370   5.025  16.703  0.00  0.00    +0.000 A 
ENDBRANCH   6   8
BRANCH   1  14
ATOM     14  C   UNL     1      44.073   4.753  11.661  0.00  0.00    +0.000 C 
ATOM     15  C   UNL     1      42.749   5.029  12.367  0.00  0.00    +0.000 C 
ATOM     16  C   UNL     1      43.143   5.850  11.184  0.00  0.00    +0.000 C 
BRANCH  14  17
ATOM     17  O   UNL     1      44.019   3.465  10.987  0.00  0.00    +0.000 OA
BRANCH  17  22
ATOM     18  F   UNL     1      46.533   3.090   6.249  0.00  0.00    +0.000 F 
ATOM     19  C   UNL     1      46.019   3.220   7.481  0.00  0.00    +0.000 A 
ATOM     20  C   UNL     1      45.873   2.094   8.275  0.00  0.00    +0.000 A 
ATOM     21  N   UNL     1      45.275   2.126   9.492  0.00  0.00    +0.000 NA
ATOM     22  C   UNL     1      44.797   3.337   9.855  0.00  0.00    +0.000 A 
ATOM     23  C   UNL     1      45.008   4.478   9.091  0.00  0.00    +0.000 A 
ATOM     24  N   UNL     1      45.619   4.449   7.879  0.00  0.00    +0.000 NA
ENDBRANCH  17  22
ENDBRANCH  14  17
ENDBRANCH   1  14
TORSDOF 4
ENDMDL
MODEL 3
REMARK VINA RESULT:    -7.337      2.951      6.843
REMARK INTER + INTRA:          -9.385
REMARK INTER:                  -8.906
REMARK INTRA:                  -0.478
REMARK UNBOUND:                -0.331
REMARK  Name = 
REMARK  4 active torsions:
REMARK  status: ('A' for Active; 'I' for Inactive)
REMARK    1  A    between atoms: C_5  and  O_6
REMARK    2  A    between atoms: O_6  and  C_7
REMARK    3  A    between atoms: C_7  and  C_8
REMARK    4  A    between atoms: C_13  and  C_14
REMARK                            x       y       z     vdW  Elec       q    Type
REMARK                         _______ _______ _______ _____ _____    ______ ____
ROOT
ATOM      1  C   UNL     1      45.171   4.508  11.002  0.00  0.00    +0.000 A 
ATOM      2  C   UNL     1      44.092   3.708  11.417  0.00  0.00    +0.000 A 
ATOM      3  C   UNL     1      43.701   2.570  10.713  0.00  0.00    +0.000 A 
ATOM      4  C   UNL     1      44.378   2.214   9.556  0.00  0.00    +0.000 A 
ATOM      5  F   UNL     1      43.955   1.118   8.908  0.00  0.00    +0.000 F 
ATOM      6  C   UNL     1      45.462   2.964   9.077  0.00  0.00    +0.000 A 
ATOM      7  C   UNL     1      45.840   4.101   9.828  0.00  0.00    +0.000 A 
ENDROOT
BRANCH   6   8
ATOM      8  C   UNL     1      46.188   2.597   7.840  0.00  0.00    +0.000 A 
ATOM      9  C   UNL     1      46.211   3.447   6.724  0.00  0.00    +0.000 A 
ATOM     10  C   UNL     1      46.893   3.075   5.562  0.00  0.00    +0.000 A 
ATOM     11  C   UNL     1      47.546   1.858   5.540  0.00  0.00    +0.000 A 
ATOM     12  N   UNL     1      47.557   1.003   6.581  0.00  0.00    +0.000 NA
ATOM     13  C   UNL     1      46.885   1.392   7.695  0.00  0.00    +0.000 A 
ENDBRANCH   6   8
BRANCH   1  14
ATOM     14  C   UNL     1      45.558   5.779  11.765  0.00  0.00    +0.000 C 
ATOM     15  C   UNL     1      44.929   7.110  11.366  0.00  0.00    +0.000 C 
ATOM     16  C   UNL     1      44.494   6.432  12.623  0.00  0.00    +0.000 C 
BRANCH  14  17
ATOM     17  O   UNL     1      46.952   5.977  12.130  0.00  0.00    +0.000 OA
BRANCH  17  22
ATOM     18  F   UNL     1      47.836   4.027  17.062  0.00  0.00    +0.000 F 
ATOM     19  C   UNL     1      47.726   4.455  15.797  0.00  0.00    +0.000 A 
ATOM     20  C   UNL     1      48.138   5.739  15.478  0.00  0.00    +0.000 A 
ATOM     21  N   UNL     1      47.971   6.280  14.246  0.00  0.00    +0.000 NA
ATOM     22  C   UNL     1      47.335   5.482  13.360  0.00  0.00    +0.000 A 
ATOM     23  C   UNL     1      46.988   4.171  13.658  0.00  0.00    +0.000 A 
ATOM     24  N   UNL     1      47.168   3.624  14.887  0.00  0.00    +0.000 NA
ENDBRANCH  17  22
ENDBRANCH  14  17
ENDBRANCH   1  14
TORSDOF 4
ENDMDL
MODEL 4
REMARK VINA RESULT:    -7.079      3.196      6.976
REMARK INTER + INTRA:          -9.066
REMARK INTER:                  -8.283
REMARK INTRA:                  -0.783
REMARK UNBOUND:                -0.331
REMARK  Name = 
REMARK  4 active torsions:
REMARK  status: ('A' for Active; 'I' for Inactive)
REMARK    1  A    between atoms: C_5  and  O_6
REMARK    2  A    between atoms: O_6  and  C_7
REMARK    3  A    between atoms: C_7  and  C_8
REMARK    4  A    between atoms: C_13  and  C_14
REMARK                            x       y       z     vdW  Elec       q    Type
REMARK                         _______ _______ _______ _____ _____    ______ ____
ROOT
ATOM      1  C   UNL     1      47.040   7.426  12.533  0.00  0.00    +0.000 A 
ATOM      2  C   UNL     1      46.024   8.372  12.754  0.00  0.00    +0.000 A 
ATOM      3  C   UNL     1      44.736   8.206  12.249  0.00  0.00    +0.000 A 
ATOM      4  C   UNL     1      44.437   7.085  11.488  0.00  0.00    +0.000 A 
ATOM      5  F   UNL     1      43.187   6.978  11.014  0.00  0.00    +0.000 F 
ATOM      6  C   UNL     1      45.398   6.099  11.221  0.00  0.00    +0.000 A 
ATOM      7  C   UNL     1      46.689   6.295  11.766  0.00  0.00    +0.000 A 
ENDROOT
BRANCH   6   8
ATOM      8  C   UNL     1      45.092   4.902  10.405  0.00  0.00    +0.000 A 
ATOM      9  C   UNL     1      45.543   4.783   9.082  0.00  0.00    +0.000 A 
ATOM     10  C   UNL     1      45.232   3.650   8.326  0.00  0.00    +0.000 A 
ATOM     11  C   UNL     1      44.480   2.649   8.912  0.00  0.00    +0.000 A 
ATOM     12  N   UNL     1      44.022   2.711  10.177  0.00  0.00    +0.000 NA
ATOM     13  C   UNL     1      44.339   3.825  10.886  0.00  0.00    +0.000 A 
ENDBRANCH   6   8
BRANCH   1  14
ATOM     14  C   UNL     1      48.461   7.646  13.059  0.00  0.00    +0.000 C 
ATOM     15  C   UNL     1      49.447   8.463  12.229  0.00  0.00    +0.000 C 
ATOM     16  C   UNL     1      48.848   9.055  13.461  0.00  0.00    +0.000 C 
BRANCH  14  17
ATOM     17  O   UNL     1      49.150   6.537  13.700  0.00  0.00    +0.000 OA
BRANCH  17  22
ATOM     18  F   UNL     1      47.446   4.408  18.334  0.00  0.00    +0.000 F 
ATOM     19  C   UNL     1      47.771   5.020  17.186  0.00  0.00    +0.000 A 
ATOM     20  C   UNL     1      47.383   4.455  15.983  0.00  0.00    +0.000 A 
ATOM     21  N   UNL     1      47.754   4.959  14.780  0.00  0.00    +0.000 NA
ATOM     22  C   UNL     1      48.565   6.037  14.845  0.00  0.00    +0.000 A 
ATOM     23  C   UNL     1      48.895   6.646  16.050  0.00  0.00    +0.000 A 
ATOM     24  N   UNL     1      48.512   6.150  17.254  0.00  0.00    +0.000 NA
ENDBRANCH  17  22
ENDBRANCH  14  17
ENDBRANCH   1  14
TORSDOF 4
ENDMDL
MODEL 5
REMARK VINA RESULT:    -6.754      2.110      2.850
REMARK INTER + INTRA:          -8.665
REMARK INTER:                  -8.186
REMARK INTRA:                  -0.479
REMARK UNBOUND:                -0.331
REMARK  Name = 
REMARK  4 active torsions:
REMARK  status: ('A' for Active; 'I' for Inactive)
REMARK    1  A    between atoms: C_5  and  O_6
REMARK    2  A    between atoms: O_6  and  C_7
REMARK    3  A    between atoms: C_7  and  C_8
REMARK    4  A    between atoms: C_13  and  C_14
REMARK                            x       y       z     vdW  Elec       q    Type
REMARK                         _______ _______ _______ _____ _____    ______ ____
ROOT
ATOM      1  C   UNL     1      45.068   6.565  12.227  0.00  0.00    +0.000 A 
ATOM      2  C   UNL     1      44.695   7.847  11.789  0.00  0.00    +0.000 A 
ATOM      3  C   UNL     1      45.481   8.971  12.033  0.00  0.00    +0.000 A 
ATOM      4  C   UNL     1      46.664   8.838  12.747  0.00  0.00    +0.000 A 
ATOM      5  F   UNL     1      47.379   9.951  12.968  0.00  0.00    +0.000 F 
ATOM      6  C   UNL     1      47.101   7.593  13.221  0.00  0.00    +0.000 A 
ATOM      7  C   UNL     1      46.284   6.473  12.937  0.00  0.00    +0.000 A 
ENDROOT
BRANCH   6   8
ATOM      8  C   UNL     1      48.357   7.439  13.989  0.00  0.00    +0.000 A 
ATOM      9  C   UNL     1      49.524   8.131  13.632  0.00  0.00    +0.000 A 
ATOM     10  C   UNL     1      50.702   7.961  14.364  0.00  0.00    +0.000 A 
ATOM     11  C   UNL     1      50.689   7.105  15.449  0.00  0.00    +0.000 A 
ATOM     12  N   UNL     1      49.598   6.417  15.837  0.00  0.00    +0.000 NA
ATOM     13  C   UNL     1      48.469   6.601  15.106  0.00  0.00    +0.000 A 
ENDBRANCH   6   8
BRANCH   1  14
ATOM     14  C   UNL     1      44.169   5.348  11.986  0.00  0.00    +0.000 C 
ATOM     15  C   UNL     1      43.006   5.078  12.937  0.00  0.00    +0.000 C 
ATOM     16  C   UNL     1      42.736   5.609  11.568  0.00  0.00    +0.000 C 
BRANCH  14  17
ATOM     17  O   UNL     1      44.784   4.093  11.583  0.00  0.00    +0.000 OA
BRANCH  17  22
ATOM     18  F   UNL     1      45.969   2.983   6.458  0.00  0.00    +0.000 F 
ATOM     19  C   UNL     1      45.555   3.290   7.695  0.00  0.00    +0.000 A 
ATOM     20  C   UNL     1      45.846   4.541   8.216  0.00  0.00    +0.000 A 
ATOM     21  N   UNL     1      45.548   4.894   9.490  0.00  0.00    +0.000 NA
ATOM     22  C   UNL     1      44.977   3.917  10.229  0.00  0.00    +0.000 A 
ATOM     23  C   UNL     1      44.620   2.689   9.686  0.00  0.00    +0.000 A 
ATOM     24  N   UNL     1      44.906   2.340   8.406  0.00  0.00    +0.000 NA
ENDBRANCH  17  22
ENDBRANCH  14  17
ENDBRANCH   1  14
TORSDOF 4
ENDMDL
MODEL 6
REMARK VINA RESULT:    -6.532      3.761      7.625
REMARK INTER + INTRA:          -8.391
REMARK INTER:                  -7.932
REMARK INTRA:                  -0.458
REMARK UNBOUND:                -0.331
REMARK  Name = 
REMARK  4 active torsions:
REMARK  status: ('A' for Active; 'I' for Inactive)
REMARK    1  A    between atoms: C_5  and  O_6
REMARK    2  A    between atoms: O_6  and  C_7
REMARK    3  A    between atoms: C_7  and  C_8
REMARK    4  A    between atoms: C_13  and  C_14
REMARK                            x       y       z     vdW  Elec       q    Type
REMARK                         _______ _______ _______ _____ _____    ______ ____
ROOT
ATOM      1  C   UNL     1      47.529   7.443  13.595  0.00  0.00    +0.000 A 
ATOM      2  C   UNL     1      46.966   8.678  13.231  0.00  0.00    +0.000 A 
ATOM      3  C   UNL     1      45.756   8.766  12.545  0.00  0.00    +0.000 A 
ATOM      4  C   UNL     1      45.084   7.605  12.188  0.00  0.00    +0.000 A 
ATOM      5  F   UNL     1      43.930   7.743  11.518  0.00  0.00    +0.000 F 
ATOM      6  C   UNL     1      45.585   6.336  12.512  0.00  0.00    +0.000 A 
ATOM      7  C   UNL     1      46.806   6.289  13.225  0.00  0.00    +0.000 A 
ENDROOT
BRANCH   6   8
ATOM      8  C   UNL     1      44.880   5.091  12.131  0.00  0.00    +0.000 A 
ATOM      9  C   UNL     1      44.823   4.660  10.797  0.00  0.00    +0.000 A 
ATOM     10  C   UNL     1      44.142   3.488  10.459  0.00  0.00    +0.000 A 
ATOM     11  C   UNL     1      43.535   2.761  11.466  0.00  0.00    +0.000 A 
ATOM     12  N   UNL     1      43.559   3.127  12.762  0.00  0.00    +0.000 NA
ATOM     13  C   UNL     1      44.227   4.271  13.060  0.00  0.00    +0.000 A 
ENDBRANCH   6   8
BRANCH   1  14
ATOM     14  C   UNL     1      48.881   7.365  14.310  0.00  0.00    +0.000 C 
ATOM     15  C   UNL     1      50.120   7.940  13.631  0.00  0.00    +0.000 C 
ATOM     16  C   UNL     1      49.501   8.665  14.780  0.00  0.00    +0.000 C 
BRANCH  14  17
ATOM     17  O   UNL     1      49.226   6.144  15.022  0.00  0.00    +0.000 OA
BRANCH  17  22
ATOM     18  F   UNL     1      46.681   5.754  19.742  0.00  0.00    +0.000 F 
ATOM     19  C   UNL     1      47.405   5.773  18.614  0.00  0.00    +0.000 A 
ATOM     20  C   UNL     1      48.267   6.832  18.380  0.00  0.00    +0.000 A 
ATOM     21  N   UNL     1      48.961   6.974  17.224  0.00  0.00    +0.000 NA
ATOM     22  C   UNL     1      48.718   6.019  16.298  0.00  0.00    +0.000 A 
ATOM     23  C   UNL     1      47.910   4.920  16.561  0.00  0.00    +0.000 A 
ATOM     24  N   UNL     1      47.227   4.770  17.724  0.00  0.00    +0.000 NA
ENDBRANCH  17  22
ENDBRANCH  14  17
ENDBRANCH   1  14
TORSDOF 4
ENDMDL
MODEL 7
REMARK VINA RESULT:    -6.147      4.925      7.812
REMARK INTER + INTRA:          -7.916
REMARK INTER:                  -7.808
REMARK INTRA:                  -0.108
REMARK UNBOUND:                -0.331
REMARK  Name = 
REMARK  4 active torsions:
REMARK  status: ('A' for Active; 'I' for Inactive)
REMARK    1  A    between atoms: C_5  and  O_6
REMARK    2  A    between atoms: O_6  and  C_7
REMARK    3  A    between atoms: C_7  and  C_8
REMARK    4  A    between atoms: C_13  and  C_14
REMARK                            x       y       z     vdW  Elec       q    Type
REMARK                         _______ _______ _______ _____ _____    ______ ____
ROOT
ATOM      1  C   UNL     1      48.124   5.607  15.523  0.00  0.00    +0.000 A 
ATOM      2  C   UNL     1      48.808   6.602  14.804  0.00  0.00    +0.000 A 
ATOM      3  C   UNL     1      48.396   7.017  13.539  0.00  0.00    +0.000 A 
ATOM      4  C   UNL     1      47.286   6.426  12.952  0.00  0.00    +0.000 A 
ATOM      5  F   UNL     1      46.938   6.850  11.728  0.00  0.00    +0.000 F 
ATOM      6  C   UNL     1      46.554   5.424  13.605  0.00  0.00    +0.000 A 
ATOM      7  C   UNL     1      46.994   5.043  14.894  0.00  0.00    +0.000 A 
ENDROOT
BRANCH   6   8
ATOM      8  C   UNL     1      45.374   4.781  12.985  0.00  0.00    +0.000 A 
ATOM      9  C   UNL     1      45.459   3.519  12.380  0.00  0.00    +0.000 A 
ATOM     10  C   UNL     1      44.334   2.936  11.790  0.00  0.00    +0.000 A 
ATOM     11  C   UNL     1      43.138   3.627  11.824  0.00  0.00    +0.000 A 
ATOM     12  N   UNL     1      42.998   4.840  12.391  0.00  0.00    +0.000 NA
ATOM     13  C   UNL     1      44.109   5.381  12.955  0.00  0.00    +0.000 A 
ENDBRANCH   6   8
BRANCH   1  14
ATOM     14  C   UNL     1      48.617   5.133  16.894  0.00  0.00    +0.000 C 
ATOM     15  C   UNL     1      47.894   5.604  18.152  0.00  0.00    +0.000 C 
ATOM     16  C   UNL     1      47.717   4.200  17.677  0.00  0.00    +0.000 C 
BRANCH  14  17
ATOM     17  O   UNL     1      50.050   5.071  17.138  0.00  0.00    +0.000 OA
BRANCH  17  22
ATOM     18  F   UNL     1      52.591   0.358  17.626  0.00  0.00    +0.000 F 
ATOM     19  C   UNL     1      51.903   1.509  17.619  0.00  0.00    +0.000 A 
ATOM     20  C   UNL     1      50.712   1.581  16.916  0.00  0.00    +0.000 A 
ATOM     21  N   UNL     1      50.007   2.731  16.779  0.00  0.00    +0.000 NA
ATOM     22  C   UNL     1      50.577   3.814  17.352  0.00  0.00    +0.000 A 
ATOM     23  C   UNL     1      51.733   3.727  18.117  0.00  0.00    +0.000 A 
ATOM     24  N   UNL     1      52.431   2.573  18.266  0.00  0.00    +0.000 NA
ENDBRANCH  17  22
ENDBRANCH  14  17
ENDBRANCH   1  14
TORSDOF 4
ENDMDL
MODEL 8
REMARK VINA RESULT:    -6.092      3.245      7.460
REMARK INTER + INTRA:          -7.847
REMARK INTER:                  -6.991
REMARK INTRA:                  -0.857
REMARK UNBOUND:                -0.331
REMARK  Name = 
REMARK  4 active torsions:
REMARK  status: ('A' for Active; 'I' for Inactive)
REMARK    1  A    between atoms: C_5  and  O_6
REMARK    2  A    between atoms: O_6  and  C_7
REMARK    3  A    between atoms: C_7  and  C_8
REMARK    4  A    between atoms: C_13  and  C_14
REMARK                            x       y       z     vdW  Elec       q    Type
REMARK                         _______ _______ _______ _____ _____    ______ ____
ROOT
ATOM      1  C   UNL     1      48.268   8.140  12.217  0.00  0.00    +0.000 A 
ATOM      2  C   UNL     1      47.447   9.280  12.249  0.00  0.00    +0.000 A 
ATOM      3  C   UNL     1      46.065   9.201  12.087  0.00  0.00    +0.000 A 
ATOM      4  C   UNL     1      45.470   7.967  11.869  0.00  0.00    +0.000 A 
ATOM      5  F   UNL     1      44.139   7.946  11.706  0.00  0.00    +0.000 F 
ATOM      6  C   UNL     1      46.223   6.785  11.820  0.00  0.00    +0.000 A 
ATOM      7  C   UNL     1      47.620   6.904  12.007  0.00  0.00    +0.000 A 
ENDROOT
BRANCH   6   8
ATOM      8  C   UNL     1      45.599   5.464  11.581  0.00  0.00    +0.000 A 
ATOM      9  C   UNL     1      45.146   5.087  10.308  0.00  0.00    +0.000 A 
ATOM     10  C   UNL     1      44.549   3.839  10.108  0.00  0.00    +0.000 A 
ATOM     11  C   UNL     1      44.423   2.985  11.188  0.00  0.00    +0.000 A 
ATOM     12  N   UNL     1      44.841   3.295  12.430  0.00  0.00    +0.000 NA
ATOM     13  C   UNL     1      45.416   4.515  12.593  0.00  0.00    +0.000 A 
ENDBRANCH   6   8
BRANCH   1  14
ATOM     14  C   UNL     1      49.790   8.250  12.354  0.00  0.00    +0.000 C 
ATOM     15  C   UNL     1      50.662   8.139  11.107  0.00  0.00    +0.000 C 
ATOM     16  C   UNL     1      50.460   9.470  11.754  0.00  0.00    +0.000 C 
BRANCH  14  17
ATOM     17  O   UNL     1      50.441   7.593  13.476  0.00  0.00    +0.000 OA
BRANCH  17  22
ATOM     18  F   UNL     1      48.356   7.861  18.424  0.00  0.00    +0.000 F 
ATOM     19  C   UNL     1      48.760   7.830  17.147  0.00  0.00    +0.000 A 
ATOM     20  C   UNL     1      48.786   6.620  16.474  0.00  0.00    +0.000 A 
ATOM     21  N   UNL     1      49.272   6.489  15.214  0.00  0.00    +0.000 NA
ATOM     22  C   UNL     1      49.764   7.628  14.678  0.00  0.00    +0.000 A 
ATOM     23  C   UNL     1      49.672   8.853  15.325  0.00  0.00    +0.000 A 
ATOM     24  N   UNL     1      49.172   8.987  16.580  0.00  0.00    +0.000 NA
ENDBRANCH  17  22
ENDBRANCH  14  17
ENDBRANCH   1  14
TORSDOF 4
ENDMDL
MODEL 9
REMARK VINA RESULT:    -5.850      4.744      8.509
REMARK INTER + INTRA:          -7.549
REMARK INTER:                  -6.923
REMARK INTRA:                  -0.626
REMARK UNBOUND:                -0.331
REMARK  Name = 
REMARK  4 active torsions:
REMARK  status: ('A' for Active; 'I' for Inactive)
REMARK    1  A    between atoms: C_5  and  O_6
REMARK    2  A    between atoms: O_6  and  C_7
REMARK    3  A    between atoms: C_7  and  C_8
REMARK    4  A    between atoms: C_13  and  C_14
REMARK                            x       y       z     vdW  Elec       q    Type
REMARK                         _______ _______ _______ _____ _____    ______ ____
ROOT
ATOM      1  C   UNL     1      47.718   5.059  15.762  0.00  0.00    +0.000 A 
ATOM      2  C   UNL     1      48.565   6.048  15.233  0.00  0.00    +0.000 A 
ATOM      3  C   UNL     1      48.328   6.640  13.994  0.00  0.00    +0.000 A 
ATOM      4  C   UNL     1      47.236   6.236  13.239  0.00  0.00    +0.000 A 
ATOM      5  F   UNL     1      47.059   6.826  12.047  0.00  0.00    +0.000 F 
ATOM      6  C   UNL     1      46.348   5.252  13.697  0.00  0.00    +0.000 A 
ATOM      7  C   UNL     1      46.612   4.688  14.967  0.00  0.00    +0.000 A 
ENDROOT
BRANCH   6   8
ATOM      8  C   UNL     1      45.184   4.808  12.898  0.00  0.00    +0.000 A 
ATOM      9  C   UNL     1      45.158   3.551  12.275  0.00  0.00    +0.000 A 
ATOM     10  C   UNL     1      44.053   3.158  11.515  0.00  0.00    +0.000 A 
ATOM     11  C   UNL     1      42.987   4.030  11.397  0.00  0.00    +0.000 A 
ATOM     12  N   UNL     1      42.959   5.248  11.973  0.00  0.00    +0.000 NA
ATOM     13  C   UNL     1      44.047   5.602  12.704  0.00  0.00    +0.000 A 
ENDBRANCH   6   8
BRANCH   1  14
ATOM     14  C   UNL     1      48.018   4.389  17.106  0.00  0.00    +0.000 C 
ATOM     15  C   UNL     1      48.361   2.902  17.141  0.00  0.00    +0.000 C 
ATOM     16  C   UNL     1      49.437   3.916  17.351  0.00  0.00    +0.000 C 
BRANCH  14  17
ATOM     17  O   UNL     1      47.203   4.738  18.259  0.00  0.00    +0.000 OA
BRANCH  17  22
ATOM     18  F   UNL     1      49.841   8.274  21.331  0.00  0.00    +0.000 F 
ATOM     19  C   UNL     1      49.075   7.432  20.624  0.00  0.00    +0.000 A 
ATOM     20  C   UNL     1      48.979   6.109  21.023  0.00  0.00    +0.000 A 
ATOM     21  N   UNL     1      48.304   5.173  20.309  0.00  0.00    +0.000 NA
ATOM     22  C   UNL     1      47.763   5.624  19.156  0.00  0.00    +0.000 A 
ATOM     23  C   UNL     1      47.799   6.965  18.794  0.00  0.00    +0.000 A 
ATOM     24  N   UNL     1      48.462   7.904  19.515  0.00  0.00    +0.000 NA
ENDBRANCH  17  22
ENDBRANCH  14  17
ENDBRANCH   1  14
TORSDOF 4
ENDMDL
