MODEL 1
REMARK VINA RESULT:    -7.945      0.000      0.000
REMARK INTER + INTRA:         -11.373
REMARK INTER:                 -10.732
REMARK INTRA:                  -0.641
REMARK UNBOUND:                -0.641
REMARK  Name = 
REMARK  7 active torsions:
REMARK  status: ('A' for Active; 'I' for Inactive)
REMARK    1  A    between atoms: C_1  and  C_2
REMARK    2  A    between atoms: C_6  and  C_7
REMARK    3  A    between atoms: C_7  and  O_8
REMARK    4  A    between atoms: O_8  and  C_9
REMARK    5  A    between atoms: C_12  and  C_13
REMARK    6  A    between atoms: C_13  and  N_14
REMARK    7  A    between atoms: C_15  and  C_17
REMARK                            x       y       z     vdW  Elec       q    Type
REMARK                         _______ _______ _______ _____ _____    ______ ____
ROOT
ATOM      1  C   UNL     1      47.237   8.092  13.477  0.00  0.00    +0.000 C 
ENDROOT
BRANCH   1   5
ATOM      2  C   UNL     1      44.683   5.552  11.112  0.00  0.00    +0.000 A 
ATOM      3  C   UNL     1      44.328   6.886  11.320  0.00  0.00    +0.000 A 
ATOM      4  C   UNL     1      45.140   7.715  12.104  0.00  0.00    +0.000 A 
ATOM      5  C   UNL     1      46.310   7.214  12.688  0.00  0.00    +0.000 A 
ATOM      6  C   UNL     1      46.610   5.854  12.538  0.00  0.00    +0.000 A 
ATOM      7  C   UNL     1      45.800   5.029  11.762  0.00  0.00    +0.000 A 
BRANCH   2   8
ATOM      8  O   UNL     1      43.875   4.840  10.266  0.00  0.00    +0.000 OA
BRANCH   8   9
ATOM      9  C   UNL     1      44.193   3.443  10.187  0.00  0.00    +0.000 C 
BRANCH   9  15
ATOM     10  C   UNL     1      46.868   0.271   7.635  0.00  0.00    +0.000 C 
ATOM     11  C   UNL     1      46.397   1.682   7.821  0.00  0.00    +0.000 A 
ATOM     12  C   UNL     1      46.820   2.692   6.981  0.00  0.00    +0.000 A 
ATOM     13  C   UNL     1      46.330   3.948   7.248  0.00  0.00    +0.000 A 
ATOM     14  N   UNL     1      45.487   4.216   8.259  0.00  0.00    +0.000 NA
ATOM     15  C   UNL     1      45.118   3.169   9.025  0.00  0.00    +0.000 A 
ATOM     16  N   UNL     1      45.554   1.904   8.849  0.00  0.00    +0.000 NA
ENDBRANCH   9  15
ENDBRANCH   8   9
ENDBRANCH   2   8
ENDBRANCH   1   5
BRANCH   1  17
ATOM     17  N   UNL     1      47.631   7.478  14.718  0.00  0.00    +0.000 N 
ATOM     18  C   UNL     1      48.875   6.915  14.843  0.00  0.00    +0.000 C 
ATOM     19  O   UNL     1      49.696   6.952  13.928  0.00  0.00    +0.000 OA
ATOM     20  H   UNL     1      46.902   7.253  15.389  0.00  0.00    +0.000 HD
BRANCH  18  21
ATOM     21  C   UNL     1      49.206   6.311  16.136  0.00  0.00    +0.000 A 
ATOM     22  C   UNL     1      50.214   6.872  16.910  0.00  0.00    +0.000 A 
ATOM     23  S   UNL     1      50.486   6.053  18.378  0.00  0.00    +0.000 S 
ATOM     24  C   UNL     1      49.291   4.897  18.015  0.00  0.00    +0.000 A 
ATOM     25  N   UNL     1      49.042   3.862  18.862  0.00  0.00    +0.000 NA
ATOM     26  C   UNL     1      48.128   3.047  18.453  0.00  0.00    +0.000 A 
ATOM     27  N   UNL     1      47.430   3.182  17.281  0.00  0.00    +0.000 N 
ATOM     28  C   UNL     1      47.619   4.232  16.414  0.00  0.00    +0.000 A 
ATOM     29  O   UNL     1      46.932   4.361  15.406  0.00  0.00    +0.000 OA
ATOM     30  C   UNL     1      48.665   5.157  16.809  0.00  0.00    +0.000 A 
ATOM     31  H   UNL     1      46.707   2.523  17.034  0.00  0.00    +0.000 HD
ENDBRANCH  18  21
ENDBRANCH   1  17
TORSDOF 6
ENDMDL
MODEL 2
REMARK VINA RESULT:    -7.908      1.675      1.933
REMARK INTER + INTRA:         -11.323
REMARK INTER:                 -10.661
REMARK INTRA:                  -0.662
REMARK UNBOUND:                -0.641
REMARK  Name = 
REMARK  7 active torsions:
REMARK  status: ('A' for Active; 'I' for Inactive)
REMARK    1  A    between atoms: C_1  and  C_2
REMARK    2  A    between atoms: C_6  and  C_7
REMARK    3  A    between atoms: C_7  and  O_8
REMARK    4  A    between atoms: O_8  and  C_9
REMARK    5  A    between atoms: C_12  and  C_13
REMARK    6  A    between atoms: C_13  and  N_14
REMARK    7  A    between atoms: C_15  and  C_17
REMARK                            x       y       z     vdW  Elec       q    Type
REMARK                         _______ _______ _______ _____ _____    ______ ____
ROOT
ATOM      1  C   UNL     1      48.403   6.508  13.831  0.00  0.00    +0.000 C 
ENDROOT
BRANCH   1   5
ATOM      2  C   UNL     1      45.109   4.929  11.544  0.00  0.00    +0.000 A 
ATOM      3  C   UNL     1      45.662   6.163  11.198  0.00  0.00    +0.000 A 
ATOM      4  C   UNL     1      46.719   6.695  11.946  0.00  0.00    +0.000 A 
ATOM      5  C   UNL     1      47.228   5.999  13.049  0.00  0.00    +0.000 A 
ATOM      6  C   UNL     1      46.610   4.802  13.434  0.00  0.00    +0.000 A 
ATOM      7  C   UNL     1      45.556   4.275  12.692  0.00  0.00    +0.000 A 
BRANCH   2   8
ATOM      8  O   UNL     1      44.137   4.450  10.708  0.00  0.00    +0.000 OA
BRANCH   8   9
ATOM      9  C   UNL     1      44.273   3.058  10.386  0.00  0.00    +0.000 C 
BRANCH   9  15
ATOM     10  C   UNL     1      46.924   0.119   7.546  0.00  0.00    +0.000 C 
ATOM     11  C   UNL     1      46.402   1.496   7.819  0.00  0.00    +0.000 A 
ATOM     12  C   UNL     1      46.725   2.558   6.997  0.00  0.00    +0.000 A 
ATOM     13  C   UNL     1      46.196   3.777   7.346  0.00  0.00    +0.000 A 
ATOM     14  N   UNL     1      45.407   3.966   8.417  0.00  0.00    +0.000 NA
ATOM     15  C   UNL     1      45.135   2.874   9.160  0.00  0.00    +0.000 A 
ATOM     16  N   UNL     1      45.616   1.638   8.906  0.00  0.00    +0.000 NA
ENDBRANCH   9  15
ENDBRANCH   8   9
ENDBRANCH   2   8
ENDBRANCH   1   5
BRANCH   1  17
ATOM     17  N   UNL     1      48.074   6.720  15.216  0.00  0.00    +0.000 N 
ATOM     18  C   UNL     1      49.019   6.512  16.188  0.00  0.00    +0.000 C 
ATOM     19  O   UNL     1      50.170   6.180  15.910  0.00  0.00    +0.000 OA
ATOM     20  H   UNL     1      47.091   6.780  15.467  0.00  0.00    +0.000 HD
BRANCH  18  21
ATOM     21  C   UNL     1      48.612   6.751  17.574  0.00  0.00    +0.000 A 
ATOM     22  C   UNL     1      48.236   8.031  17.961  0.00  0.00    +0.000 A 
ATOM     23  S   UNL     1      47.798   8.151  19.603  0.00  0.00    +0.000 S 
ATOM     24  C   UNL     1      48.133   6.503  19.866  0.00  0.00    +0.000 A 
ATOM     25  N   UNL     1      48.004   5.954  21.103  0.00  0.00    +0.000 NA
ATOM     26  C   UNL     1      48.312   4.702  21.166  0.00  0.00    +0.000 A 
ATOM     27  N   UNL     1      48.723   3.945  20.100  0.00  0.00    +0.000 N 
ATOM     28  C   UNL     1      48.831   4.447  18.823  0.00  0.00    +0.000 A 
ATOM     29  O   UNL     1      49.137   3.728  17.877  0.00  0.00    +0.000 OA
ATOM     30  C   UNL     1      48.533   5.861  18.707  0.00  0.00    +0.000 A 
ATOM     31  H   UNL     1      48.923   2.963  20.212  0.00  0.00    +0.000 HD
ENDBRANCH  18  21
ENDBRANCH   1  17
TORSDOF 6
ENDMDL
MODEL 3
REMARK VINA RESULT:    -7.461      2.254      3.483
REMARK INTER + INTRA:         -10.719
REMARK INTER:                  -9.964
REMARK INTRA:                  -0.755
REMARK UNBOUND:                -0.641
REMARK  Name = 
REMARK  7 active torsions:
REMARK  status: ('A' for Active; 'I' for Inactive)
REMARK    1  A    between atoms: C_1  and  C_2
REMARK    2  A    between atoms: C_6  and  C_7
REMARK    3  A    between atoms: C_7  and  O_8
REMARK    4  A    between atoms: O_8  and  C_9
REMARK    5  A    between atoms: C_12  and  C_13
REMARK    6  A    between atoms: C_13  and  N_14
REMARK    7  A    between atoms: C_15  and  C_17
REMARK                            x       y       z     vdW  Elec       q    Type
REMARK                         _______ _______ _______ _____ _____    ______ ____
ROOT
ATOM      1  C   UNL     1      47.573   3.987  15.425  0.00  0.00    +0.000 C 
ENDROOT
BRANCH   1   5
ATOM      2  C   UNL     1      45.448   4.908  11.791  0.00  0.00    +0.000 A 
ATOM      3  C   UNL     1      45.506   3.588  12.241  0.00  0.00    +0.000 A 
ATOM      4  C   UNL     1      46.210   3.274  13.409  0.00  0.00    +0.000 A 
ATOM      5  C   UNL     1      46.866   4.278  14.134  0.00  0.00    +0.000 A 
ATOM      6  C   UNL     1      46.867   5.584  13.627  0.00  0.00    +0.000 A 
ATOM      7  C   UNL     1      46.170   5.895  12.462  0.00  0.00    +0.000 A 
BRANCH   2   8
ATOM      8  O   UNL     1      44.668   5.134  10.688  0.00  0.00    +0.000 OA
BRANCH   8   9
ATOM      9  C   UNL     1      44.222   3.939  10.030  0.00  0.00    +0.000 C 
BRANCH   9  15
ATOM     10  C   UNL     1      46.675   0.395   7.759  0.00  0.00    +0.000 C 
ATOM     11  C   UNL     1      46.373   1.858   7.885  0.00  0.00    +0.000 A 
ATOM     12  C   UNL     1      46.988   2.786   7.070  0.00  0.00    +0.000 A 
ATOM     13  C   UNL     1      46.640   4.100   7.277  0.00  0.00    +0.000 A 
ATOM     14  N   UNL     1      45.758   4.496   8.209  0.00  0.00    +0.000 NA
ATOM     15  C   UNL     1      45.197   3.523   8.955  0.00  0.00    +0.000 A 
ATOM     16  N   UNL     1      45.482   2.209   8.835  0.00  0.00    +0.000 NA
ENDBRANCH   9  15
ENDBRANCH   8   9
ENDBRANCH   2   8
ENDBRANCH   1   5
BRANCH   1  17
ATOM     17  N   UNL     1      47.422   5.060  16.372  0.00  0.00    +0.000 N 
ATOM     18  C   UNL     1      48.530   5.666  16.908  0.00  0.00    +0.000 C 
ATOM     19  O   UNL     1      49.668   5.345  16.572  0.00  0.00    +0.000 OA
ATOM     20  H   UNL     1      46.514   5.182  16.811  0.00  0.00    +0.000 HD
BRANCH  18  21
ATOM     21  C   UNL     1      48.297   6.752  17.863  0.00  0.00    +0.000 A 
ATOM     22  C   UNL     1      48.104   6.447  19.205  0.00  0.00    +0.000 A 
ATOM     23  S   UNL     1      47.838   7.814  20.186  0.00  0.00    +0.000 S 
ATOM     24  C   UNL     1      47.934   8.859  18.847  0.00  0.00    +0.000 A 
ATOM     25  N   UNL     1      47.747  10.199  18.993  0.00  0.00    +0.000 NA
ATOM     26  C   UNL     1      47.825  10.870  17.894  0.00  0.00    +0.000 A 
ATOM     27  N   UNL     1      48.086  10.326  16.663  0.00  0.00    +0.000 N 
ATOM     28  C   UNL     1      48.321   8.984  16.473  0.00  0.00    +0.000 A 
ATOM     29  O   UNL     1      48.619   8.537  15.370  0.00  0.00    +0.000 OA
ATOM     30  C   UNL     1      48.207   8.178  17.674  0.00  0.00    +0.000 A 
ATOM     31  H   UNL     1      48.161  10.913  15.845  0.00  0.00    +0.000 HD
ENDBRANCH  18  21
ENDBRANCH   1  17
TORSDOF 6
ENDMDL
MODEL 4
REMARK VINA RESULT:    -7.349      2.323      3.051
REMARK INTER + INTRA:         -10.568
REMARK INTER:                  -9.537
REMARK INTRA:                  -1.030
REMARK UNBOUND:                -0.641
REMARK  Name = 
REMARK  7 active torsions:
REMARK  status: ('A' for Active; 'I' for Inactive)
REMARK    1  A    between atoms: C_1  and  C_2
REMARK    2  A    between atoms: C_6  and  C_7
REMARK    3  A    between atoms: C_7  and  O_8
REMARK    4  A    between atoms: O_8  and  C_9
REMARK    5  A    between atoms: C_12  and  C_13
REMARK    6  A    between atoms: C_13  and  N_14
REMARK    7  A    between atoms: C_15  and  C_17
REMARK                            x       y       z     vdW  Elec       q    Type
REMARK                         _______ _______ _______ _____ _____    ______ ____
ROOT
ATOM      1  C   UNL     1      48.315   6.854  14.312  0.00  0.00    +0.000 C 
ENDROOT
BRANCH   1   5
ATOM      2  C   UNL     1      44.862   5.356  12.216  0.00  0.00    +0.000 A 
ATOM      3  C   UNL     1      45.519   4.538  13.136  0.00  0.00    +0.000 A 
ATOM      4  C   UNL     1      46.654   5.007  13.808  0.00  0.00    +0.000 A 
ATOM      5  C   UNL     1      47.143   6.296  13.561  0.00  0.00    +0.000 A 
ATOM      6  C   UNL     1      46.522   7.075  12.576  0.00  0.00    +0.000 A 
ATOM      7  C   UNL     1      45.395   6.606  11.905  0.00  0.00    +0.000 A 
BRANCH   2   8
ATOM      8  O   UNL     1      43.715   4.845  11.670  0.00  0.00    +0.000 OA
BRANCH   8   9
ATOM      9  C   UNL     1      43.604   5.033  10.251  0.00  0.00    +0.000 C 
BRANCH   9  15
ATOM     10  C   UNL     1      46.816   3.848   6.785  0.00  0.00    +0.000 C 
ATOM     11  C   UNL     1      45.878   3.395   7.862  0.00  0.00    +0.000 A 
ATOM     12  C   UNL     1      45.703   2.054   8.139  0.00  0.00    +0.000 A 
ATOM     13  C   UNL     1      44.814   1.752   9.143  0.00  0.00    +0.000 A 
ATOM     14  N   UNL     1      44.135   2.681   9.837  0.00  0.00    +0.000 NA
ATOM     15  C   UNL     1      44.373   3.967   9.508  0.00  0.00    +0.000 A 
ATOM     16  N   UNL     1      45.217   4.362   8.531  0.00  0.00    +0.000 NA
ENDBRANCH   9  15
ENDBRANCH   8   9
ENDBRANCH   2   8
ENDBRANCH   1   5
BRANCH   1  17
ATOM     17  N   UNL     1      48.169   6.688  15.734  0.00  0.00    +0.000 N 
ATOM     18  C   UNL     1      49.245   6.308  16.496  0.00  0.00    +0.000 C 
ATOM     19  O   UNL     1      50.358   6.139  16.005  0.00  0.00    +0.000 OA
ATOM     20  H   UNL     1      47.228   6.613  16.110  0.00  0.00    +0.000 HD
BRANCH  18  21
ATOM     21  C   UNL     1      49.020   6.161  17.937  0.00  0.00    +0.000 A 
ATOM     22  C   UNL     1      49.397   4.982  18.567  0.00  0.00    +0.000 A 
ATOM     23  S   UNL     1      49.063   4.961  20.237  0.00  0.00    +0.000 S 
ATOM     24  C   UNL     1      48.369   6.513  20.171  0.00  0.00    +0.000 A 
ATOM     25  N   UNL     1      47.833   7.085  21.283  0.00  0.00    +0.000 NA
ATOM     26  C   UNL     1      47.320   8.253  21.086  0.00  0.00    +0.000 A 
ATOM     27  N   UNL     1      47.308   8.908  19.882  0.00  0.00    +0.000 N 
ATOM     28  C   UNL     1      47.872   8.387  18.741  0.00  0.00    +0.000 A 
ATOM     29  O   UNL     1      47.905   9.026  17.694  0.00  0.00    +0.000 OA
ATOM     30  C   UNL     1      48.429   7.057  18.900  0.00  0.00    +0.000 A 
ATOM     31  H   UNL     1      46.914   9.834  19.803  0.00  0.00    +0.000 HD
ENDBRANCH  18  21
ENDBRANCH   1  17
TORSDOF 6
ENDMDL
MODEL 5
REMARK VINA RESULT:    -7.240      2.718      8.046
REMARK INTER + INTRA:         -10.421
REMARK INTER:                  -9.194
REMARK INTRA:                  -1.227
REMARK UNBOUND:                -0.641
REMARK  Name = 
REMARK  7 active torsions:
REMARK  status: ('A' for Active; 'I' for Inactive)
REMARK    1  A    between atoms: C_1  and  C_2
REMARK    2  A    between atoms: C_6  and  C_7
REMARK    3  A    between atoms: C_7  and  O_8
REMARK    4  A    between atoms: O_8  and  C_9
REMARK    5  A    between atoms: C_12  and  C_13
REMARK    6  A    between atoms: C_13  and  N_14
REMARK    7  A    between atoms: C_15  and  C_17
REMARK                            x       y       z     vdW  Elec       q    Type
REMARK                         _______ _______ _______ _____ _____    ______ ____
ROOT
ATOM      1  C   UNL     1      47.830   7.982  11.840  0.00  0.00    +0.000 C 
ENDROOT
BRANCH   1   5
ATOM      2  C   UNL     1      49.709   8.151  15.714  0.00  0.00    +0.000 A 
ATOM      3  C   UNL     1      48.442   8.710  15.536  0.00  0.00    +0.000 A 
ATOM      4  C   UNL     1      47.831   8.679  14.277  0.00  0.00    +0.000 A 
ATOM      5  C   UNL     1      48.484   8.092  13.185  0.00  0.00    +0.000 A 
ATOM      6  C   UNL     1      49.787   7.609  13.360  0.00  0.00    +0.000 A 
ATOM      7  C   UNL     1      50.397   7.644  14.612  0.00  0.00    +0.000 A 
BRANCH   2   8
ATOM      8  O   UNL     1      50.192   8.153  16.995  0.00  0.00    +0.000 OA
BRANCH   8   9
ATOM      9  C   UNL     1      50.696   6.884  17.435  0.00  0.00    +0.000 C 
BRANCH   9  15
ATOM     10  C   UNL     1      48.791   2.479  16.601  0.00  0.00    +0.000 C 
ATOM     11  C   UNL     1      48.651   3.827  17.239  0.00  0.00    +0.000 A 
ATOM     12  C   UNL     1      47.522   4.165  17.956  0.00  0.00    +0.000 A 
ATOM     13  C   UNL     1      47.499   5.430  18.493  0.00  0.00    +0.000 A 
ATOM     14  N   UNL     1      48.498   6.316  18.347  0.00  0.00    +0.000 NA
ATOM     15  C   UNL     1      49.568   5.901  17.639  0.00  0.00    +0.000 A 
ATOM     16  N   UNL     1      49.679   4.684  17.065  0.00  0.00    +0.000 NA
ENDBRANCH   9  15
ENDBRANCH   8   9
ENDBRANCH   2   8
ENDBRANCH   1   5
BRANCH   1  17
ATOM     17  N   UNL     1      47.087   6.757  11.704  0.00  0.00    +0.000 N 
ATOM     18  C   UNL     1      45.724   6.759  11.860  0.00  0.00    +0.000 C 
ATOM     19  O   UNL     1      45.099   7.795  12.079  0.00  0.00    +0.000 OA
ATOM     20  H   UNL     1      47.601   5.882  11.740  0.00  0.00    +0.000 HD
BRANCH  18  21
ATOM     21  C   UNL     1      45.035   5.475  11.705  0.00  0.00    +0.000 A 
ATOM     22  C   UNL     1      44.323   4.952  12.776  0.00  0.00    +0.000 A 
ATOM     23  S   UNL     1      43.587   3.453  12.442  0.00  0.00    +0.000 S 
ATOM     24  C   UNL     1      44.225   3.431  10.865  0.00  0.00    +0.000 A 
ATOM     25  N   UNL     1      44.004   2.374  10.038  0.00  0.00    +0.000 NA
ATOM     26  C   UNL     1      44.565   2.478   8.880  0.00  0.00    +0.000 A 
ATOM     27  N   UNL     1      45.315   3.548   8.469  0.00  0.00    +0.000 N 
ATOM     28  C   UNL     1      45.534   4.655   9.256  0.00  0.00    +0.000 A 
ATOM     29  O   UNL     1      46.154   5.627   8.835  0.00  0.00    +0.000 OA
ATOM     30  C   UNL     1      44.955   4.572  10.583  0.00  0.00    +0.000 A 
ATOM     31  H   UNL     1      45.704   3.578   7.538  0.00  0.00    +0.000 HD
ENDBRANCH  18  21
ENDBRANCH   1  17
TORSDOF 6
ENDMDL
MODEL 6
REMARK VINA RESULT:    -7.214      1.895      3.443
REMARK INTER + INTRA:         -10.386
REMARK INTER:                  -9.319
REMARK INTRA:                  -1.066
REMARK UNBOUND:                -0.641
REMARK  Name = 
REMARK  7 active torsions:
REMARK  status: ('A' for Active; 'I' for Inactive)
REMARK    1  A    between atoms: C_1  and  C_2
REMARK    2  A    between atoms: C_6  and  C_7
REMARK    3  A    between atoms: C_7  and  O_8
REMARK    4  A    between atoms: O_8  and  C_9
REMARK    5  A    between atoms: C_12  and  C_13
REMARK    6  A    between atoms: C_13  and  N_14
REMARK    7  A    between atoms: C_15  and  C_17
REMARK                            x       y       z     vdW  Elec       q    Type
REMARK                         _______ _______ _______ _____ _____    ______ ____
ROOT
ATOM      1  C   UNL     1      47.142   4.619  15.005  0.00  0.00    +0.000 C 
ENDROOT
BRANCH   1   5
ATOM      2  C   UNL     1      45.293   5.048  11.138  0.00  0.00    +0.000 A 
ATOM      3  C   UNL     1      46.239   5.984  11.558  0.00  0.00    +0.000 A 
ATOM      4  C   UNL     1      46.832   5.866  12.820  0.00  0.00    +0.000 A 
ATOM      5  C   UNL     1      46.478   4.813  13.674  0.00  0.00    +0.000 A 
ATOM      6  C   UNL     1      45.468   3.930  13.272  0.00  0.00    +0.000 A 
ATOM      7  C   UNL     1      44.876   4.050  12.017  0.00  0.00    +0.000 A 
BRANCH   2   8
ATOM      8  O   UNL     1      44.829   5.195   9.857  0.00  0.00    +0.000 OA
BRANCH   8   9
ATOM      9  C   UNL     1      44.387   3.974   9.248  0.00  0.00    +0.000 C 
BRANCH   9  15
ATOM     10  C   UNL     1      46.822   0.057   7.680  0.00  0.00    +0.000 C 
ATOM     11  C   UNL     1      46.639   1.543   7.641  0.00  0.00    +0.000 A 
ATOM     12  C   UNL     1      47.452   2.343   6.864  0.00  0.00    +0.000 A 
ATOM     13  C   UNL     1      47.198   3.693   6.909  0.00  0.00    +0.000 A 
ATOM     14  N   UNL     1      46.225   4.240   7.656  0.00  0.00    +0.000 NA
ATOM     15  C   UNL     1      45.472   3.386   8.378  0.00  0.00    +0.000 A 
ATOM     16  N   UNL     1      45.651   2.048   8.408  0.00  0.00    +0.000 NA
ENDBRANCH   9  15
ENDBRANCH   8   9
ENDBRANCH   2   8
ENDBRANCH   1   5
BRANCH   1  17
ATOM     17  N   UNL     1      47.749   5.833  15.484  0.00  0.00    +0.000 N 
ATOM     18  C   UNL     1      48.822   5.776  16.337  0.00  0.00    +0.000 C 
ATOM     19  O   UNL     1      49.318   4.706  16.682  0.00  0.00    +0.000 OA
ATOM     20  H   UNL     1      47.226   6.698  15.383  0.00  0.00    +0.000 HD
BRANCH  18  21
ATOM     21  C   UNL     1      49.388   7.053  16.779  0.00  0.00    +0.000 A 
ATOM     22  C   UNL     1      49.447   7.336  18.138  0.00  0.00    +0.000 A 
ATOM     23  S   UNL     1      50.122   8.859  18.492  0.00  0.00    +0.000 S 
ATOM     24  C   UNL     1      50.324   9.212  16.840  0.00  0.00    +0.000 A 
ATOM     25  N   UNL     1      50.826  10.411  16.440  0.00  0.00    +0.000 NA
ATOM     26  C   UNL     1      50.905  10.555  15.160  0.00  0.00    +0.000 A 
ATOM     27  N   UNL     1      50.540   9.603  14.243  0.00  0.00    +0.000 N 
ATOM     28  C   UNL     1      50.065   8.363  14.601  0.00  0.00    +0.000 A 
ATOM     29  O   UNL     1      49.810   7.508  13.759  0.00  0.00    +0.000 OA
ATOM     30  C   UNL     1      49.921   8.164  16.031  0.00  0.00    +0.000 A 
ATOM     31  H   UNL     1      50.653   9.769  13.254  0.00  0.00    +0.000 HD
ENDBRANCH  18  21
ENDBRANCH   1  17
TORSDOF 6
ENDMDL
MODEL 7
REMARK VINA RESULT:    -6.969      2.751      3.998
REMARK INTER + INTRA:         -10.055
REMARK INTER:                  -9.098
REMARK INTRA:                  -0.956
REMARK UNBOUND:                -0.641
REMARK  Name = 
REMARK  7 active torsions:
REMARK  status: ('A' for Active; 'I' for Inactive)
REMARK    1  A    between atoms: C_1  and  C_2
REMARK    2  A    between atoms: C_6  and  C_7
REMARK    3  A    between atoms: C_7  and  O_8
REMARK    4  A    between atoms: O_8  and  C_9
REMARK    5  A    between atoms: C_12  and  C_13
REMARK    6  A    between atoms: C_13  and  N_14
REMARK    7  A    between atoms: C_15  and  C_17
REMARK                            x       y       z     vdW  Elec       q    Type
REMARK                         _______ _______ _______ _____ _____    ______ ____
ROOT
ATOM      1  C   UNL     1      47.694   5.778  14.797  0.00  0.00    +0.000 C 
ENDROOT
BRANCH   1   5
ATOM      2  C   UNL     1      45.210   5.110  11.340  0.00  0.00    +0.000 A 
ATOM      3  C   UNL     1      45.091   4.270  12.448  0.00  0.00    +0.000 A 
ATOM      4  C   UNL     1      45.906   4.465  13.569  0.00  0.00    +0.000 A 
ATOM      5  C   UNL     1      46.851   5.499  13.587  0.00  0.00    +0.000 A 
ATOM      6  C   UNL     1      47.016   6.282  12.437  0.00  0.00    +0.000 A 
ATOM      7  C   UNL     1      46.206   6.085  11.321  0.00  0.00    +0.000 A 
BRANCH   2   8
ATOM      8  O   UNL     1      44.315   4.897  10.325  0.00  0.00    +0.000 OA
BRANCH   8   9
ATOM      9  C   UNL     1      44.186   3.522   9.935  0.00  0.00    +0.000 C 
BRANCH   9  15
ATOM     10  C   UNL     1      46.874   0.162   7.651  0.00  0.00    +0.000 C 
ATOM     11  C   UNL     1      46.468   1.599   7.777  0.00  0.00    +0.000 A 
ATOM     12  C   UNL     1      47.009   2.568   6.957  0.00  0.00    +0.000 A 
ATOM     13  C   UNL     1      46.569   3.854   7.165  0.00  0.00    +0.000 A 
ATOM     14  N   UNL     1      45.666   4.186   8.103  0.00  0.00    +0.000 NA
ATOM     15  C   UNL     1      45.182   3.176   8.854  0.00  0.00    +0.000 A 
ATOM     16  N   UNL     1      45.561   1.886   8.733  0.00  0.00    +0.000 NA
ENDBRANCH   9  15
ENDBRANCH   8   9
ENDBRANCH   2   8
ENDBRANCH   1   5
BRANCH   1  17
ATOM     17  N   UNL     1      48.163   7.138  14.822  0.00  0.00    +0.000 N 
ATOM     18  C   UNL     1      49.450   7.416  15.206  0.00  0.00    +0.000 C 
ATOM     19  O   UNL     1      50.244   6.524  15.498  0.00  0.00    +0.000 OA
ATOM     20  H   UNL     1      47.469   7.880  14.795  0.00  0.00    +0.000 HD
BRANCH  18  21
ATOM     21  C   UNL     1      49.856   8.823  15.204  0.00  0.00    +0.000 A 
ATOM     22  C   UNL     1      50.854   9.241  14.332  0.00  0.00    +0.000 A 
ATOM     23  S   UNL     1      51.219  10.900  14.455  0.00  0.00    +0.000 S 
ATOM     24  C   UNL     1      50.084  11.112  15.704  0.00  0.00    +0.000 A 
ATOM     25  N   UNL     1      49.923  12.323  16.303  0.00  0.00    +0.000 NA
ATOM     26  C   UNL     1      49.046  12.336  17.250  0.00  0.00    +0.000 A 
ATOM     27  N   UNL     1      48.304  11.253  17.643  0.00  0.00    +0.000 N 
ATOM     28  C   UNL     1      48.403  10.020  17.041  0.00  0.00    +0.000 A 
ATOM     29  O   UNL     1      47.678   9.087  17.371  0.00  0.00    +0.000 OA
ATOM     30  C   UNL     1      49.405   9.941  15.995  0.00  0.00    +0.000 A 
ATOM     31  H   UNL     1      47.613  11.338  18.374  0.00  0.00    +0.000 HD
ENDBRANCH  18  21
ENDBRANCH   1  17
TORSDOF 6
ENDMDL
MODEL 8
REMARK VINA RESULT:    -6.960      2.811      4.483
REMARK INTER + INTRA:         -10.042
REMARK INTER:                  -9.103
REMARK INTRA:                  -0.939
REMARK UNBOUND:                -0.641
REMARK  Name = 
REMARK  7 active torsions:
REMARK  status: ('A' for Active; 'I' for Inactive)
REMARK    1  A    between atoms: C_1  and  C_2
REMARK    2  A    between atoms: C_6  and  C_7
REMARK    3  A    between atoms: C_7  and  O_8
REMARK    4  A    between atoms: O_8  and  C_9
REMARK    5  A    between atoms: C_12  and  C_13
REMARK    6  A    between atoms: C_13  and  N_14
REMARK    7  A    between atoms: C_15  and  C_17
REMARK                            x       y       z     vdW  Elec       q    Type
REMARK                         _______ _______ _______ _____ _____    ______ ____
ROOT
ATOM      1  C   UNL     1      47.692   6.194  14.497  0.00  0.00    +0.000 C 
ENDROOT
BRANCH   1   5
ATOM      2  C   UNL     1      45.119   5.191  11.189  0.00  0.00    +0.000 A 
ATOM      3  C   UNL     1      45.295   4.276  12.229  0.00  0.00    +0.000 A 
ATOM      4  C   UNL     1      46.144   4.583  13.299  0.00  0.00    +0.000 A 
ATOM      5  C   UNL     1      46.828   5.805  13.334  0.00  0.00    +0.000 A 
ATOM      6  C   UNL     1      46.705   6.677  12.245  0.00  0.00    +0.000 A 
ATOM      7  C   UNL     1      45.863   6.370  11.179  0.00  0.00    +0.000 A 
BRANCH   2   8
ATOM      8  O   UNL     1      44.208   4.841  10.229  0.00  0.00    +0.000 OA
BRANCH   8   9
ATOM      9  C   UNL     1      44.184   3.439   9.923  0.00  0.00    +0.000 C 
BRANCH   9  15
ATOM     10  C   UNL     1      46.930   0.133   7.629  0.00  0.00    +0.000 C 
ATOM     11  C   UNL     1      46.491   1.561   7.753  0.00  0.00    +0.000 A 
ATOM     12  C   UNL     1      47.002   2.539   6.924  0.00  0.00    +0.000 A 
ATOM     13  C   UNL     1      46.533   3.815   7.130  0.00  0.00    +0.000 A 
ATOM     14  N   UNL     1      45.632   4.130   8.075  0.00  0.00    +0.000 NA
ATOM     15  C   UNL     1      45.178   3.112   8.835  0.00  0.00    +0.000 A 
ATOM     16  N   UNL     1      45.586   1.831   8.716  0.00  0.00    +0.000 NA
ENDBRANCH   9  15
ENDBRANCH   8   9
ENDBRANCH   2   8
ENDBRANCH   1   5
BRANCH   1  17
ATOM     17  N   UNL     1      48.662   7.194  14.134  0.00  0.00    +0.000 N 
ATOM     18  C   UNL     1      49.877   7.237  14.768  0.00  0.00    +0.000 C 
ATOM     19  O   UNL     1      50.189   6.412  15.625  0.00  0.00    +0.000 OA
ATOM     20  H   UNL     1      48.340   7.994  13.597  0.00  0.00    +0.000 HD
BRANCH  18  21
ATOM     21  C   UNL     1      50.813   8.281  14.344  0.00  0.00    +0.000 A 
ATOM     22  C   UNL     1      51.481   9.027  15.306  0.00  0.00    +0.000 A 
ATOM     23  S   UNL     1      52.525  10.206  14.656  0.00  0.00    +0.000 S 
ATOM     24  C   UNL     1      52.094   9.786  13.065  0.00  0.00    +0.000 A 
ATOM     25  N   UNL     1      52.610  10.459  12.001  0.00  0.00    +0.000 NA
ATOM     26  C   UNL     1      52.180  10.052  10.854  0.00  0.00    +0.000 A 
ATOM     27  N   UNL     1      51.292   9.024  10.672  0.00  0.00    +0.000 N 
ATOM     28  C   UNL     1      50.774   8.290  11.714  0.00  0.00    +0.000 A 
ATOM     29  O   UNL     1      50.033   7.332  11.515  0.00  0.00    +0.000 OA
ATOM     30  C   UNL     1      51.196   8.732  13.029  0.00  0.00    +0.000 A 
ATOM     31  H   UNL     1      51.018   8.738   9.744  0.00  0.00    +0.000 HD
ENDBRANCH  18  21
ENDBRANCH   1  17
TORSDOF 6
ENDMDL
MODEL 9
REMARK VINA RESULT:    -6.920      3.144      7.649
REMARK INTER + INTRA:          -9.988
REMARK INTER:                  -9.074
REMARK INTRA:                  -0.915
REMARK UNBOUND:                -0.641
REMARK  Name = 
REMARK  7 active torsions:
REMARK  status: ('A' for Active; 'I' for Inactive)
REMARK    1  A    between atoms: C_1  and  C_2
REMARK    2  A    between atoms: C_6  and  C_7
REMARK    3  A    between atoms: C_7  and  O_8
REMARK    4  A    between atoms: O_8  and  C_9
REMARK    5  A    between atoms: C_12  and  C_13
REMARK    6  A    between atoms: C_13  and  N_14
REMARK    7  A    between atoms: C_15  and  C_17
REMARK                            x       y       z     vdW  Elec       q    Type
REMARK                         _______ _______ _______ _____ _____    ______ ____
ROOT
ATOM      1  C   UNL     1      48.265   8.234  11.828  0.00  0.00    +0.000 C 
ENDROOT
BRANCH   1   5
ATOM      2  C   UNL     1      49.100   7.815  16.034  0.00  0.00    +0.000 A 
ATOM      3  C   UNL     1      48.047   8.630  15.618  0.00  0.00    +0.000 A 
ATOM      4  C   UNL     1      47.779   8.790  14.253  0.00  0.00    +0.000 A 
ATOM      5  C   UNL     1      48.566   8.139  13.295  0.00  0.00    +0.000 A 
ATOM      6  C   UNL     1      49.669   7.390  13.724  0.00  0.00    +0.000 A 
ATOM      7  C   UNL     1      49.937   7.235  15.082  0.00  0.00    +0.000 A 
BRANCH   2   8
ATOM      8  O   UNL     1      49.236   7.652  17.387  0.00  0.00    +0.000 OA
BRANCH   8   9
ATOM      9  C   UNL     1      50.085   6.559  17.765  0.00  0.00    +0.000 C 
BRANCH   9  15
ATOM     10  C   UNL     1      50.188   1.767  16.893  0.00  0.00    +0.000 C 
ATOM     11  C   UNL     1      49.382   2.983  17.234  0.00  0.00    +0.000 A 
ATOM     12  C   UNL     1      48.016   2.907  17.413  0.00  0.00    +0.000 A 
ATOM     13  C   UNL     1      47.377   4.085  17.717  0.00  0.00    +0.000 A 
ATOM     14  N   UNL     1      48.011   5.263  17.841  0.00  0.00    +0.000 NA
ATOM     15  C   UNL     1      49.347   5.246  17.659  0.00  0.00    +0.000 A 
ATOM     16  N   UNL     1      50.061   4.143  17.347  0.00  0.00    +0.000 NA
ENDBRANCH   9  15
ENDBRANCH   8   9
ENDBRANCH   2   8
ENDBRANCH   1   5
BRANCH   1  17
ATOM     17  N   UNL     1      47.611   7.050  11.337  0.00  0.00    +0.000 N 
ATOM     18  C   UNL     1      46.242   6.997  11.269  0.00  0.00    +0.000 C 
ATOM     19  O   UNL     1      45.542   7.957  11.583  0.00  0.00    +0.000 OA
ATOM     20  H   UNL     1      48.156   6.194  11.283  0.00  0.00    +0.000 HD
BRANCH  18  21
ATOM     21  C   UNL     1      45.649   5.760  10.756  0.00  0.00    +0.000 A 
ATOM     22  C   UNL     1      45.762   5.462   9.404  0.00  0.00    +0.000 A 
ATOM     23  S   UNL     1      45.014   3.997   8.961  0.00  0.00    +0.000 S 
ATOM     24  C   UNL     1      44.481   3.726  10.553  0.00  0.00    +0.000 A 
ATOM     25  N   UNL     1      43.724   2.638  10.860  0.00  0.00    +0.000 NA
ATOM     26  C   UNL     1      43.369   2.569  12.099  0.00  0.00    +0.000 A 
ATOM     27  N   UNL     1      43.713   3.481  13.062  0.00  0.00    +0.000 N 
ATOM     28  C   UNL     1      44.508   4.574  12.808  0.00  0.00    +0.000 A 
ATOM     29  O   UNL     1      44.854   5.337  13.705  0.00  0.00    +0.000 OA
ATOM     30  C   UNL     1      44.903   4.720  11.420  0.00  0.00    +0.000 A 
ATOM     31  H   UNL     1      43.424   3.352  14.021  0.00  0.00    +0.000 HD
ENDBRANCH  18  21
ENDBRANCH   1  17
TORSDOF 6
ENDMDL
