MODEL 1
REMARK VINA RESULT:    -8.040      0.000      0.000
REMARK INTER + INTRA:          -9.955
REMARK INTER:                  -9.450
REMARK INTRA:                  -0.505
REMARK UNBOUND:                -0.505
REMARK  Name = 
REMARK  3 active torsions:
REMARK  status: ('A' for Active; 'I' for Inactive)
REMARK    1  A    between atoms: C_7  and  C_8
REMARK    2  A    between atoms: C_8  and  N_9
REMARK    3  A    between atoms: C_14  and  C_15
REMARK                            x       y       z     vdW  Elec       q    Type
REMARK                         _______ _______ _______ _____ _____    ______ ____
ROOT
ATOM      1  N   UNL     1      44.003   3.306   9.520  0.00  0.00    +0.000 N 
ATOM      2  C   UNL     1      44.224   3.856  10.787  0.00  0.00    +0.000 A 
ATOM      3  C   UNL     1      43.288   3.607  11.794  0.00  0.00    +0.000 A 
ATOM      4  N   UNL     1      43.382   4.098  13.050  0.00  0.00    +0.000 NA
ATOM      5  C   UNL     1      44.485   4.845  13.276  0.00  0.00    +0.000 A 
ATOM      6  C   UNL     1      45.456   5.096  12.306  0.00  0.00    +0.000 A 
ATOM      7  N   UNL     1      45.320   4.601  11.043  0.00  0.00    +0.000 NA
ATOM      8  H   UNL     1      44.139   2.299   9.557  0.00  0.00    +0.000 HD
ENDROOT
BRANCH   6   9
ATOM      9  C   UNL     1      46.687   5.846  12.596  0.00  0.00    +0.000 A 
ATOM     10  C   UNL     1      47.194   6.838  11.744  0.00  0.00    +0.000 A 
ATOM     11  C   UNL     1      48.332   7.565  12.095  0.00  0.00    +0.000 A 
ATOM     12  C   UNL     1      48.947   7.278  13.300  0.00  0.00    +0.000 A 
ATOM     13  N   UNL     1      48.513   6.323  14.147  0.00  0.00    +0.000 NA
ATOM     14  C   UNL     1      47.406   5.631  13.773  0.00  0.00    +0.000 A 
ENDBRANCH   6   9
BRANCH   1  15
ATOM     15  C   UNL     1      44.732   3.915   8.416  0.00  0.00    +0.000 C 
BRANCH  15  22
ATOM     16  F   UNL     1      46.614   4.452   6.345  0.00  0.00    +0.000 F 
ATOM     17  C   UNL     1      46.601   3.216   6.861  0.00  0.00    +0.000 A 
ATOM     18  C   UNL     1      47.497   2.274   6.354  0.00  0.00    +0.000 A 
ATOM     19  C   UNL     1      47.505   0.977   6.870  0.00  0.00    +0.000 A 
ATOM     20  C   UNL     1      46.619   0.633   7.891  0.00  0.00    +0.000 A 
ATOM     21  C   UNL     1      45.726   1.583   8.390  0.00  0.00    +0.000 A 
ATOM     22  C   UNL     1      45.712   2.895   7.884  0.00  0.00    +0.000 A 
ENDBRANCH  15  22
ENDBRANCH   1  15
TORSDOF 3
ENDMDL
MODEL 2
REMARK VINA RESULT:    -7.703      1.101      1.503
REMARK INTER + INTRA:          -9.559
REMARK INTER:                  -9.677
REMARK INTRA:                   0.119
REMARK UNBOUND:                -0.505
REMARK  Name = 
REMARK  3 active torsions:
REMARK  status: ('A' for Active; 'I' for Inactive)
REMARK    1  A    between atoms: C_7  and  C_8
REMARK    2  A    between atoms: C_8  and  N_9
REMARK    3  A    between atoms: C_14  and  C_15
REMARK                            x       y       z     vdW  Elec       q    Type
REMARK                         _______ _______ _______ _____ _____    ______ ____
ROOT
ATOM      1  N   UNL     1      44.397   3.739   8.990  0.00  0.00    +0.000 N 
ATOM      2  C   UNL     1      44.403   4.231  10.299  0.00  0.00    +0.000 A 
ATOM      3  C   UNL     1      43.250   4.079  11.073  0.00  0.00    +0.000 A 
ATOM      4  N   UNL     1      43.129   4.529  12.342  0.00  0.00    +0.000 NA
ATOM      5  C   UNL     1      44.236   5.130  12.830  0.00  0.00    +0.000 A 
ATOM      6  C   UNL     1      45.415   5.279  12.099  0.00  0.00    +0.000 A 
ATOM      7  N   UNL     1      45.498   4.830  10.815  0.00  0.00    +0.000 NA
ATOM      8  H   UNL     1      44.404   2.722   9.008  0.00  0.00    +0.000 HD
ENDROOT
BRANCH   6   9
ATOM      9  C   UNL     1      46.634   5.864  12.676  0.00  0.00    +0.000 A 
ATOM     10  C   UNL     1      47.348   6.903  12.059  0.00  0.00    +0.000 A 
ATOM     11  C   UNL     1      48.463   7.467  12.679  0.00  0.00    +0.000 A 
ATOM     12  C   UNL     1      48.846   6.973  13.913  0.00  0.00    +0.000 A 
ATOM     13  N   UNL     1      48.209   5.966  14.541  0.00  0.00    +0.000 NA
ATOM     14  C   UNL     1      47.130   5.435  13.909  0.00  0.00    +0.000 A 
ENDBRANCH   6   9
BRANCH   1  15
ATOM     15  C   UNL     1      45.411   4.275   8.094  0.00  0.00    +0.000 C 
BRANCH  15  22
ATOM     16  F   UNL     1      45.833   1.729   9.304  0.00  0.00    +0.000 F 
ATOM     17  C   UNL     1      46.269   1.895   8.048  0.00  0.00    +0.000 A 
ATOM     18  C   UNL     1      46.904   0.824   7.417  0.00  0.00    +0.000 A 
ATOM     19  C   UNL     1      47.372   0.969   6.110  0.00  0.00    +0.000 A 
ATOM     20  C   UNL     1      47.200   2.181   5.443  0.00  0.00    +0.000 A 
ATOM     21  C   UNL     1      46.565   3.247   6.084  0.00  0.00    +0.000 A 
ATOM     22  C   UNL     1      46.083   3.113   7.398  0.00  0.00    +0.000 A 
ENDBRANCH  15  22
ENDBRANCH   1  15
TORSDOF 3
ENDMDL
MODEL 3
REMARK VINA RESULT:    -7.692      1.559      1.986
REMARK INTER + INTRA:          -9.546
REMARK INTER:                  -9.718
REMARK INTRA:                   0.172
REMARK UNBOUND:                -0.505
REMARK  Name = 
REMARK  3 active torsions:
REMARK  status: ('A' for Active; 'I' for Inactive)
REMARK    1  A    between atoms: C_7  and  C_8
REMARK    2  A    between atoms: C_8  and  N_9
REMARK    3  A    between atoms: C_14  and  C_15
REMARK                            x       y       z     vdW  Elec       q    Type
REMARK                         _______ _______ _______ _____ _____    ______ ____
ROOT
ATOM      1  N   UNL     1      44.018   3.450   9.562  0.00  0.00    +0.000 N 
ATOM      2  C   UNL     1      44.070   4.236  10.717  0.00  0.00    +0.000 A 
ATOM      3  C   UNL     1      43.191   3.944  11.763  0.00  0.00    +0.000 A 
ATOM      4  N   UNL     1      43.134   4.643  12.919  0.00  0.00    +0.000 NA
ATOM      5  C   UNL     1      44.026   5.654  13.004  0.00  0.00    +0.000 A 
ATOM      6  C   UNL     1      44.938   5.962  11.995  0.00  0.00    +0.000 A 
ATOM      7  N   UNL     1      44.956   5.249  10.833  0.00  0.00    +0.000 NA
ATOM      8  H   UNL     1      44.383   2.522   9.764  0.00  0.00    +0.000 HD
ENDROOT
BRANCH   6   9
ATOM      9  C   UNL     1      45.953   7.016  12.141  0.00  0.00    +0.000 A 
ATOM     10  C   UNL     1      47.298   6.835  11.785  0.00  0.00    +0.000 A 
ATOM     11  C   UNL     1      48.209   7.887  11.884  0.00  0.00    +0.000 A 
ATOM     12  C   UNL     1      47.752   9.108  12.344  0.00  0.00    +0.000 A 
ATOM     13  N   UNL     1      46.476   9.332  12.717  0.00  0.00    +0.000 NA
ATOM     14  C   UNL     1      45.616   8.286  12.613  0.00  0.00    +0.000 A 
ENDBRANCH   6   9
BRANCH   1  15
ATOM     15  C   UNL     1      44.615   4.021   8.364  0.00  0.00    +0.000 C 
BRANCH  15  22
ATOM     16  F   UNL     1      44.687   1.241   8.987  0.00  0.00    +0.000 F 
ATOM     17  C   UNL     1      45.679   1.730   8.230  0.00  0.00    +0.000 A 
ATOM     18  C   UNL     1      46.681   0.857   7.803  0.00  0.00    +0.000 A 
ATOM     19  C   UNL     1      47.728   1.339   7.016  0.00  0.00    +0.000 A 
ATOM     20  C   UNL     1      47.765   2.686   6.660  0.00  0.00    +0.000 A 
ATOM     21  C   UNL     1      46.757   3.551   7.094  0.00  0.00    +0.000 A 
ATOM     22  C   UNL     1      45.693   3.078   7.882  0.00  0.00    +0.000 A 
ENDBRANCH  15  22
ENDBRANCH   1  15
TORSDOF 3
ENDMDL
MODEL 4
REMARK VINA RESULT:    -7.168      2.486      6.281
REMARK INTER + INTRA:          -8.930
REMARK INTER:                  -8.552
REMARK INTRA:                  -0.377
REMARK UNBOUND:                -0.505
REMARK  Name = 
REMARK  3 active torsions:
REMARK  status: ('A' for Active; 'I' for Inactive)
REMARK    1  A    between atoms: C_7  and  C_8
REMARK    2  A    between atoms: C_8  and  N_9
REMARK    3  A    between atoms: C_14  and  C_15
REMARK                            x       y       z     vdW  Elec       q    Type
REMARK                         _______ _______ _______ _____ _____    ______ ____
ROOT
ATOM      1  N   UNL     1      43.758   6.424  11.562  0.00  0.00    +0.000 N 
ATOM      2  C   UNL     1      43.871   5.081  11.192  0.00  0.00    +0.000 A 
ATOM      3  C   UNL     1      43.162   4.125  11.925  0.00  0.00    +0.000 A 
ATOM      4  N   UNL     1      43.207   2.797  11.676  0.00  0.00    +0.000 NA
ATOM      5  C   UNL     1      43.983   2.452  10.625  0.00  0.00    +0.000 A 
ATOM      6  C   UNL     1      44.685   3.376   9.852  0.00  0.00    +0.000 A 
ATOM      7  N   UNL     1      44.634   4.707  10.143  0.00  0.00    +0.000 NA
ATOM      8  H   UNL     1      42.828   6.766  11.329  0.00  0.00    +0.000 HD
ENDROOT
BRANCH   6   9
ATOM      9  C   UNL     1      45.461   2.987   8.665  0.00  0.00    +0.000 A 
ATOM     10  C   UNL     1      45.822   3.894   7.658  0.00  0.00    +0.000 A 
ATOM     11  C   UNL     1      46.614   3.487   6.583  0.00  0.00    +0.000 A 
ATOM     12  C   UNL     1      47.027   2.169   6.536  0.00  0.00    +0.000 A 
ATOM     13  N   UNL     1      46.694   1.252   7.466  0.00  0.00    +0.000 NA
ATOM     14  C   UNL     1      45.919   1.679   8.496  0.00  0.00    +0.000 A 
ENDBRANCH   6   9
BRANCH   1  15
ATOM     15  C   UNL     1      44.802   7.317  11.081  0.00  0.00    +0.000 C 
BRANCH  15  22
ATOM     16  F   UNL     1      45.104   9.481  12.911  0.00  0.00    +0.000 F 
ATOM     17  C   UNL     1      45.985   8.475  12.995  0.00  0.00    +0.000 A 
ATOM     18  C   UNL     1      46.991   8.550  13.959  0.00  0.00    +0.000 A 
ATOM     19  C   UNL     1      47.924   7.518  14.068  0.00  0.00    +0.000 A 
ATOM     20  C   UNL     1      47.844   6.419  13.215  0.00  0.00    +0.000 A 
ATOM     21  C   UNL     1      46.834   6.354  12.252  0.00  0.00    +0.000 A 
ATOM     22  C   UNL     1      45.883   7.383  12.136  0.00  0.00    +0.000 A 
ENDBRANCH  15  22
ENDBRANCH   1  15
TORSDOF 3
ENDMDL
MODEL 5
REMARK VINA RESULT:    -7.042      2.504      6.460
REMARK INTER + INTRA:          -8.782
REMARK INTER:                  -8.318
REMARK INTRA:                  -0.464
REMARK UNBOUND:                -0.505
REMARK  Name = 
REMARK  3 active torsions:
REMARK  status: ('A' for Active; 'I' for Inactive)
REMARK    1  A    between atoms: C_7  and  C_8
REMARK    2  A    between atoms: C_8  and  N_9
REMARK    3  A    between atoms: C_14  and  C_15
REMARK                            x       y       z     vdW  Elec       q    Type
REMARK                         _______ _______ _______ _____ _____    ______ ____
ROOT
ATOM      1  N   UNL     1      45.841   5.977  13.642  0.00  0.00    +0.000 N 
ATOM      2  C   UNL     1      44.996   5.408  12.684  0.00  0.00    +0.000 A 
ATOM      3  C   UNL     1      43.615   5.531  12.858  0.00  0.00    +0.000 A 
ATOM      4  N   UNL     1      42.699   5.008  12.011  0.00  0.00    +0.000 NA
ATOM      5  C   UNL     1      43.226   4.364  10.947  0.00  0.00    +0.000 A 
ATOM      6  C   UNL     1      44.598   4.241  10.724  0.00  0.00    +0.000 A 
ATOM      7  N   UNL     1      45.495   4.764  11.608  0.00  0.00    +0.000 NA
ATOM      8  H   UNL     1      45.806   6.991  13.569  0.00  0.00    +0.000 HD
ENDROOT
BRANCH   6   9
ATOM      9  C   UNL     1      45.149   3.605   9.519  0.00  0.00    +0.000 A 
ATOM     10  C   UNL     1      45.645   4.336   8.429  0.00  0.00    +0.000 A 
ATOM     11  C   UNL     1      46.215   3.685   7.335  0.00  0.00    +0.000 A 
ATOM     12  C   UNL     1      46.275   2.303   7.353  0.00  0.00    +0.000 A 
ATOM     13  N   UNL     1      45.798   1.552   8.364  0.00  0.00    +0.000 NA
ATOM     14  C   UNL     1      45.244   2.216   9.412  0.00  0.00    +0.000 A 
ENDBRANCH   6   9
BRANCH   1  15
ATOM     15  C   UNL     1      47.210   5.481  13.673  0.00  0.00    +0.000 C 
BRANCH  15  22
ATOM     16  F   UNL     1      49.138   6.616  15.439  0.00  0.00    +0.000 F 
ATOM     17  C   UNL     1      49.045   7.138  14.208  0.00  0.00    +0.000 A 
ATOM     18  C   UNL     1      49.884   8.201  13.871  0.00  0.00    +0.000 A 
ATOM     19  C   UNL     1      49.808   8.767  12.598  0.00  0.00    +0.000 A 
ATOM     20  C   UNL     1      48.895   8.266  11.670  0.00  0.00    +0.000 A 
ATOM     21  C   UNL     1      48.059   7.203  12.018  0.00  0.00    +0.000 A 
ATOM     22  C   UNL     1      48.129   6.619  13.296  0.00  0.00    +0.000 A 
ENDBRANCH  15  22
ENDBRANCH   1  15
TORSDOF 3
ENDMDL
MODEL 6
REMARK VINA RESULT:    -7.003      3.035      7.029
REMARK INTER + INTRA:          -8.736
REMARK INTER:                  -8.357
REMARK INTRA:                  -0.379
REMARK UNBOUND:                -0.505
REMARK  Name = 
REMARK  3 active torsions:
REMARK  status: ('A' for Active; 'I' for Inactive)
REMARK    1  A    between atoms: C_7  and  C_8
REMARK    2  A    between atoms: C_8  and  N_9
REMARK    3  A    between atoms: C_14  and  C_15
REMARK                            x       y       z     vdW  Elec       q    Type
REMARK                         _______ _______ _______ _____ _____    ______ ____
ROOT
ATOM      1  N   UNL     1      45.742   5.158  14.051  0.00  0.00    +0.000 N 
ATOM      2  C   UNL     1      44.972   4.958  12.900  0.00  0.00    +0.000 A 
ATOM      3  C   UNL     1      43.626   5.331  12.927  0.00  0.00    +0.000 A 
ATOM      4  N   UNL     1      42.778   5.171  11.886  0.00  0.00    +0.000 NA
ATOM      5  C   UNL     1      43.344   4.634  10.783  0.00  0.00    +0.000 A 
ATOM      6  C   UNL     1      44.689   4.272  10.707  0.00  0.00    +0.000 A 
ATOM      7  N   UNL     1      45.512   4.430  11.782  0.00  0.00    +0.000 NA
ATOM      8  H   UNL     1      45.901   6.153  14.187  0.00  0.00    +0.000 HD
ENDROOT
BRANCH   6   9
ATOM      9  C   UNL     1      45.302   3.764   9.471  0.00  0.00    +0.000 A 
ATOM     10  C   UNL     1      45.401   2.395   9.175  0.00  0.00    +0.000 A 
ATOM     11  C   UNL     1      45.935   1.966   7.960  0.00  0.00    +0.000 A 
ATOM     12  C   UNL     1      46.366   2.923   7.060  0.00  0.00    +0.000 A 
ATOM     13  N   UNL     1      46.312   4.247   7.300  0.00  0.00    +0.000 NA
ATOM     14  C   UNL     1      45.792   4.632   8.494  0.00  0.00    +0.000 A 
ENDBRANCH   6   9
BRANCH   1  15
ATOM     15  C   UNL     1      46.976   4.391  14.143  0.00  0.00    +0.000 C 
BRANCH  15  22
ATOM     16  F   UNL     1      48.444   6.658  15.054  0.00  0.00    +0.000 F 
ATOM     17  C   UNL     1      48.234   5.666  15.930  0.00  0.00    +0.000 A 
ATOM     18  C   UNL     1      48.748   5.799  17.221  0.00  0.00    +0.000 A 
ATOM     19  C   UNL     1      48.548   4.780  18.154  0.00  0.00    +0.000 A 
ATOM     20  C   UNL     1      47.834   3.639  17.791  0.00  0.00    +0.000 A 
ATOM     21  C   UNL     1      47.325   3.516  16.496  0.00  0.00    +0.000 A 
ATOM     22  C   UNL     1      47.514   4.537  15.548  0.00  0.00    +0.000 A 
ENDBRANCH  15  22
ENDBRANCH   1  15
TORSDOF 3
ENDMDL
MODEL 7
REMARK VINA RESULT:    -6.863      2.063      3.495
REMARK INTER + INTRA:          -8.572
REMARK INTER:                  -8.007
REMARK INTRA:                  -0.565
REMARK UNBOUND:                -0.505
REMARK  Name = 
REMARK  3 active torsions:
REMARK  status: ('A' for Active; 'I' for Inactive)
REMARK    1  A    between atoms: C_7  and  C_8
REMARK    2  A    between atoms: C_8  and  N_9
REMARK    3  A    between atoms: C_14  and  C_15
REMARK                            x       y       z     vdW  Elec       q    Type
REMARK                         _______ _______ _______ _____ _____    ______ ____
ROOT
ATOM      1  N   UNL     1      45.360   3.804  12.961  0.00  0.00    +0.000 N 
ATOM      2  C   UNL     1      46.315   4.662  13.515  0.00  0.00    +0.000 A 
ATOM      3  C   UNL     1      46.983   4.257  14.674  0.00  0.00    +0.000 A 
ATOM      4  N   UNL     1      47.911   5.006  15.310  0.00  0.00    +0.000 NA
ATOM      5  C   UNL     1      48.173   6.192  14.719  0.00  0.00    +0.000 A 
ATOM      6  C   UNL     1      47.549   6.622  13.548  0.00  0.00    +0.000 A 
ATOM      7  N   UNL     1      46.602   5.850  12.942  0.00  0.00    +0.000 NA
ATOM      8  H   UNL     1      45.823   2.996  12.551  0.00  0.00    +0.000 HD
ENDROOT
BRANCH   6   9
ATOM      9  C   UNL     1      47.906   7.881  12.878  0.00  0.00    +0.000 A 
ATOM     10  C   UNL     1      49.131   8.075  12.222  0.00  0.00    +0.000 A 
ATOM     11  C   UNL     1      49.396   9.267  11.547  0.00  0.00    +0.000 A 
ATOM     12  C   UNL     1      48.424  10.250  11.546  0.00  0.00    +0.000 A 
ATOM     13  N   UNL     1      47.239  10.123  12.174  0.00  0.00    +0.000 NA
ATOM     14  C   UNL     1      47.013   8.953  12.827  0.00  0.00    +0.000 A 
ENDBRANCH   6   9
BRANCH   1  15
ATOM     15  C   UNL     1      44.404   4.408  12.044  0.00  0.00    +0.000 C 
BRANCH  15  22
ATOM     16  F   UNL     1      45.643   6.049  10.070  0.00  0.00    +0.000 F 
ATOM     17  C   UNL     1      45.333   4.793   9.722  0.00  0.00    +0.000 A 
ATOM     18  C   UNL     1      45.626   4.371   8.425  0.00  0.00    +0.000 A 
ATOM     19  C   UNL     1      45.312   3.069   8.033  0.00  0.00    +0.000 A 
ATOM     20  C   UNL     1      44.709   2.198   8.940  0.00  0.00    +0.000 A 
ATOM     21  C   UNL     1      44.419   2.632  10.236  0.00  0.00    +0.000 A 
ATOM     22  C   UNL     1      44.736   3.939  10.646  0.00  0.00    +0.000 A 
ENDBRANCH  15  22
ENDBRANCH   1  15
TORSDOF 3
ENDMDL
MODEL 8
REMARK VINA RESULT:    -6.529      3.526      7.556
REMARK INTER + INTRA:          -8.179
REMARK INTER:                  -7.785
REMARK INTRA:                  -0.394
REMARK UNBOUND:                -0.505
REMARK  Name = 
REMARK  3 active torsions:
REMARK  status: ('A' for Active; 'I' for Inactive)
REMARK    1  A    between atoms: C_7  and  C_8
REMARK    2  A    between atoms: C_8  and  N_9
REMARK    3  A    between atoms: C_14  and  C_15
REMARK                            x       y       z     vdW  Elec       q    Type
REMARK                         _______ _______ _______ _____ _____    ______ ____
ROOT
ATOM      1  N   UNL     1      47.423   5.921  14.557  0.00  0.00    +0.000 N 
ATOM      2  C   UNL     1      46.690   6.281  13.423  0.00  0.00    +0.000 A 
ATOM      3  C   UNL     1      46.419   7.635  13.207  0.00  0.00    +0.000 A 
ATOM      4  N   UNL     1      45.705   8.104  12.159  0.00  0.00    +0.000 NA
ATOM      5  C   UNL     1      45.282   7.150  11.300  0.00  0.00    +0.000 A 
ATOM      6  C   UNL     1      45.552   5.792  11.466  0.00  0.00    +0.000 A 
ATOM      7  N   UNL     1      46.259   5.350  12.545  0.00  0.00    +0.000 NA
ATOM      8  H   UNL     1      48.391   6.215  14.446  0.00  0.00    +0.000 HD
ENDROOT
BRANCH   6   9
ATOM      9  C   UNL     1      45.150   4.779  10.478  0.00  0.00    +0.000 A 
ATOM     10  C   UNL     1      45.506   4.852   9.123  0.00  0.00    +0.000 A 
ATOM     11  C   UNL     1      45.152   3.832   8.239  0.00  0.00    +0.000 A 
ATOM     12  C   UNL     1      44.440   2.755   8.732  0.00  0.00    +0.000 A 
ATOM     13  N   UNL     1      44.057   2.643  10.019  0.00  0.00    +0.000 NA
ATOM     14  C   UNL     1      44.412   3.655  10.853  0.00  0.00    +0.000 A 
ENDBRANCH   6   9
BRANCH   1  15
ATOM     15  C   UNL     1      47.322   4.531  14.978  0.00  0.00    +0.000 C 
BRANCH  15  22
ATOM     16  F   UNL     1      48.391   2.137  16.096  0.00  0.00    +0.000 F 
ATOM     17  C   UNL     1      48.360   3.225  16.879  0.00  0.00    +0.000 A 
ATOM     18  C   UNL     1      48.843   3.118  18.185  0.00  0.00    +0.000 A 
ATOM     19  C   UNL     1      48.821   4.233  19.024  0.00  0.00    +0.000 A 
ATOM     20  C   UNL     1      48.319   5.445  18.552  0.00  0.00    +0.000 A 
ATOM     21  C   UNL     1      47.838   5.540  17.245  0.00  0.00    +0.000 A 
ATOM     22  C   UNL     1      47.860   4.427  16.386  0.00  0.00    +0.000 A 
ENDBRANCH  15  22
ENDBRANCH   1  15
TORSDOF 3
ENDMDL
MODEL 9
REMARK VINA RESULT:    -6.277      3.879      7.824
REMARK INTER + INTRA:          -7.883
REMARK INTER:                  -7.264
REMARK INTRA:                  -0.619
REMARK UNBOUND:                -0.505
REMARK  Name = 
REMARK  3 active torsions:
REMARK  status: ('A' for Active; 'I' for Inactive)
REMARK    1  A    between atoms: C_7  and  C_8
REMARK    2  A    between atoms: C_8  and  N_9
REMARK    3  A    between atoms: C_14  and  C_15
REMARK                            x       y       z     vdW  Elec       q    Type
REMARK                         _______ _______ _______ _____ _____    ______ ____
ROOT
ATOM      1  N   UNL     1      49.729   6.736  16.210  0.00  0.00    +0.000 N 
ATOM      2  C   UNL     1      49.139   6.897  14.952  0.00  0.00    +0.000 A 
ATOM      3  C   UNL     1      49.585   7.939  14.136  0.00  0.00    +0.000 A 
ATOM      4  N   UNL     1      49.081   8.206  12.910  0.00  0.00    +0.000 NA
ATOM      5  C   UNL     1      48.109   7.357  12.510  0.00  0.00    +0.000 A 
ATOM      6  C   UNL     1      47.653   6.290  13.283  0.00  0.00    +0.000 A 
ATOM      7  N   UNL     1      48.170   6.060  14.523  0.00  0.00    +0.000 NA
ATOM      8  H   UNL     1      50.681   6.397  16.100  0.00  0.00    +0.000 HD
ENDROOT
BRANCH   6   9
ATOM      9  C   UNL     1      46.650   5.332  12.795  0.00  0.00    +0.000 A 
ATOM     10  C   UNL     1      45.787   5.609  11.724  0.00  0.00    +0.000 A 
ATOM     11  C   UNL     1      44.896   4.642  11.259  0.00  0.00    +0.000 A 
ATOM     12  C   UNL     1      44.883   3.409  11.883  0.00  0.00    +0.000 A 
ATOM     13  N   UNL     1      45.676   3.095  12.926  0.00  0.00    +0.000 NA
ATOM     14  C   UNL     1      46.529   4.060  13.359  0.00  0.00    +0.000 A 
ENDBRANCH   6   9
BRANCH   1  15
ATOM     15  C   UNL     1      48.979   5.950  17.179  0.00  0.00    +0.000 C 
BRANCH  15  22
ATOM     16  F   UNL     1      47.547   3.562  16.567  0.00  0.00    +0.000 F 
ATOM     17  C   UNL     1      48.831   3.437  16.930  0.00  0.00    +0.000 A 
ATOM     18  C   UNL     1      49.382   2.156  16.993  0.00  0.00    +0.000 A 
ATOM     19  C   UNL     1      50.715   1.994  17.371  0.00  0.00    +0.000 A 
ATOM     20  C   UNL     1      51.489   3.111  17.681  0.00  0.00    +0.000 A 
ATOM     21  C   UNL     1      50.927   4.389  17.616  0.00  0.00    +0.000 A 
ATOM     22  C   UNL     1      49.587   4.567  17.231  0.00  0.00    +0.000 A 
ENDBRANCH  15  22
ENDBRANCH   1  15
TORSDOF 3
ENDMDL
