MODEL 1
REMARK VINA RESULT:    -8.202      0.000      0.000
REMARK INTER + INTRA:         -11.713
REMARK INTER:                 -11.079
REMARK INTRA:                  -0.634
REMARK UNBOUND:                -0.634
REMARK  Name = 
REMARK  7 active torsions:
REMARK  status: ('A' for Active; 'I' for Inactive)
REMARK    1  A    between atoms: C_1  and  O_2
REMARK    2  A    between atoms: O_2  and  C_3
REMARK    3  A    between atoms: C_5  and  O_6
REMARK    4  A    between atoms: O_6  and  C_7
REMARK    5  A    between atoms: C_7  and  C_8
REMARK    6  A    between atoms: C_12  and  C_13
REMARK    7  A    between atoms: C_22  and  C_23
REMARK                            x       y       z     vdW  Elec       q    Type
REMARK                         _______ _______ _______ _____ _____    ______ ____
ROOT
ATOM      1  O   UNL     1      46.032   6.999  11.269  0.00  0.00    +0.000 OA
ENDROOT
BRANCH   1   4
ATOM      2  C   UNL     1      48.393   7.661  14.058  0.00  0.00    +0.000 A 
ATOM      3  C   UNL     1      47.661   7.866  12.888  0.00  0.00    +0.000 A 
ATOM      4  C   UNL     1      46.782   6.891  12.409  0.00  0.00    +0.000 A 
ATOM      5  C   UNL     1      46.638   5.696  13.119  0.00  0.00    +0.000 A 
ATOM      6  C   UNL     1      47.381   5.472  14.283  0.00  0.00    +0.000 A 
ATOM      7  C   UNL     1      48.246   6.464  14.761  0.00  0.00    +0.000 A 
BRANCH   6   8
ATOM      8  C   UNL     1      47.224   4.170  14.979  0.00  0.00    +0.000 C 
ATOM      9  N   UNL     1      46.891   4.201  16.304  0.00  0.00    +0.000 N 
ATOM     10  O   UNL     1      47.431   3.106  14.409  0.00  0.00    +0.000 OA
ATOM     11  H   UNL     1      46.939   5.044  16.859  0.00  0.00    +0.000 HD
ATOM     12  H   UNL     1      46.914   3.314  16.792  0.00  0.00    +0.000 HD
ENDBRANCH   6   8
BRANCH   2  14
ATOM     13  C   UNL     1      50.636   8.133  14.692  0.00  0.00    +0.000 C 
ATOM     14  O   UNL     1      49.278   8.554  14.603  0.00  0.00    +0.000 OA
ENDBRANCH   2  14
ENDBRANCH   1   4
BRANCH   1  15
ATOM     15  C   UNL     1      44.648   6.674  11.395  0.00  0.00    +0.000 C 
BRANCH  15  16
ATOM     16  C   UNL     1      44.416   5.269  10.935  0.00  0.00    +0.000 A 
ATOM     17  C   UNL     1      43.448   4.474  11.534  0.00  0.00    +0.000 A 
ATOM     18  N   UNL     1      43.210   3.195  11.185  0.00  0.00    +0.000 NA
ATOM     19  C   UNL     1      43.956   2.692  10.171  0.00  0.00    +0.000 A 
ATOM     20  C   UNL     1      44.952   3.385   9.478  0.00  0.00    +0.000 A 
ATOM     21  C   UNL     1      45.165   4.708   9.893  0.00  0.00    +0.000 A 
BRANCH  20  22
ATOM     22  C   UNL     1      45.718   2.771   8.370  0.00  0.00    +0.000 A 
ATOM     23  C   UNL     1      46.192   3.541   7.288  0.00  0.00    +0.000 A 
ATOM     24  C   UNL     1      46.953   2.973   6.259  0.00  0.00    +0.000 A 
ATOM     25  C   UNL     1      47.243   1.613   6.280  0.00  0.00    +0.000 A 
ATOM     26  C   UNL     1      46.768   0.836   7.324  0.00  0.00    +0.000 A 
ATOM     27  F   UNL     1      47.037  -0.475   7.348  0.00  0.00    +0.000 F 
ATOM     28  C   UNL     1      46.020   1.397   8.360  0.00  0.00    +0.000 A 
ENDBRANCH  20  22
ENDBRANCH  15  16
ENDBRANCH   1  15
TORSDOF 6
ENDMDL
MODEL 2
REMARK VINA RESULT:    -7.906      1.865      2.736
REMARK INTER + INTRA:         -11.313
REMARK INTER:                 -10.585
REMARK INTRA:                  -0.728
REMARK UNBOUND:                -0.634
REMARK  Name = 
REMARK  7 active torsions:
REMARK  status: ('A' for Active; 'I' for Inactive)
REMARK    1  A    between atoms: C_1  and  O_2
REMARK    2  A    between atoms: O_2  and  C_3
REMARK    3  A    between atoms: C_5  and  O_6
REMARK    4  A    between atoms: O_6  and  C_7
REMARK    5  A    between atoms: C_7  and  C_8
REMARK    6  A    between atoms: C_12  and  C_13
REMARK    7  A    between atoms: C_22  and  C_23
REMARK                            x       y       z     vdW  Elec       q    Type
REMARK                         _______ _______ _______ _____ _____    ______ ____
ROOT
ATOM      1  O   UNL     1      45.398   7.077  11.319  0.00  0.00    +0.000 OA
ENDROOT
BRANCH   1   4
ATOM      2  C   UNL     1      47.856   6.048  13.906  0.00  0.00    +0.000 A 
ATOM      3  C   UNL     1      46.639   6.177  13.237  0.00  0.00    +0.000 A 
ATOM      4  C   UNL     1      46.548   6.890  12.040  0.00  0.00    +0.000 A 
ATOM      5  C   UNL     1      47.698   7.479  11.509  0.00  0.00    +0.000 A 
ATOM      6  C   UNL     1      48.920   7.374  12.181  0.00  0.00    +0.000 A 
ATOM      7  C   UNL     1      49.001   6.642  13.373  0.00  0.00    +0.000 A 
BRANCH   6   8
ATOM      8  C   UNL     1      50.105   8.053  11.599  0.00  0.00    +0.000 C 
ATOM      9  N   UNL     1      51.072   7.264  11.040  0.00  0.00    +0.000 N 
ATOM     10  O   UNL     1      50.245   9.268  11.657  0.00  0.00    +0.000 OA
ATOM     11  H   UNL     1      51.106   6.263  11.177  0.00  0.00    +0.000 HD
ATOM     12  H   UNL     1      51.927   7.731  10.765  0.00  0.00    +0.000 HD
ENDBRANCH   6   8
BRANCH   2  14
ATOM     13  C   UNL     1      48.611   6.111  16.161  0.00  0.00    +0.000 C 
ATOM     14  O   UNL     1      48.043   5.372  15.084  0.00  0.00    +0.000 OA
ENDBRANCH   2  14
ENDBRANCH   1   4
BRANCH   1  15
ATOM     15  C   UNL     1      44.227   6.442  11.830  0.00  0.00    +0.000 C 
BRANCH  15  16
ATOM     16  C   UNL     1      44.124   5.055  11.279  0.00  0.00    +0.000 A 
ATOM     17  C   UNL     1      43.249   4.131  11.835  0.00  0.00    +0.000 A 
ATOM     18  N   UNL     1      43.131   2.860  11.404  0.00  0.00    +0.000 NA
ATOM     19  C   UNL     1      43.902   2.501  10.348  0.00  0.00    +0.000 A 
ATOM     20  C   UNL     1      44.812   3.333   9.691  0.00  0.00    +0.000 A 
ATOM     21  C   UNL     1      44.904   4.640  10.192  0.00  0.00    +0.000 A 
BRANCH  20  22
ATOM     22  C   UNL     1      45.614   2.872   8.535  0.00  0.00    +0.000 A 
ATOM     23  C   UNL     1      46.036   3.766   7.530  0.00  0.00    +0.000 A 
ATOM     24  C   UNL     1      46.829   3.343   6.456  0.00  0.00    +0.000 A 
ATOM     25  C   UNL     1      47.204   2.007   6.354  0.00  0.00    +0.000 A 
ATOM     26  C   UNL     1      46.781   1.110   7.321  0.00  0.00    +0.000 A 
ATOM     27  F   UNL     1      47.132  -0.178   7.225  0.00  0.00    +0.000 F 
ATOM     28  C   UNL     1      46.001   1.526   8.400  0.00  0.00    +0.000 A 
ENDBRANCH  20  22
ENDBRANCH  15  16
ENDBRANCH   1  15
TORSDOF 6
ENDMDL
MODEL 3
REMARK VINA RESULT:    -7.820      2.051      2.690
REMARK INTER + INTRA:         -11.197
REMARK INTER:                 -10.222
REMARK INTRA:                  -0.976
REMARK UNBOUND:                -0.634
REMARK  Name = 
REMARK  7 active torsions:
REMARK  status: ('A' for Active; 'I' for Inactive)
REMARK    1  A    between atoms: C_1  and  O_2
REMARK    2  A    between atoms: O_2  and  C_3
REMARK    3  A    between atoms: C_5  and  O_6
REMARK    4  A    between atoms: O_6  and  C_7
REMARK    5  A    between atoms: C_7  and  C_8
REMARK    6  A    between atoms: C_12  and  C_13
REMARK    7  A    between atoms: C_22  and  C_23
REMARK                            x       y       z     vdW  Elec       q    Type
REMARK                         _______ _______ _______ _____ _____    ______ ____
ROOT
ATOM      1  O   UNL     1      44.063   6.889  12.400  0.00  0.00    +0.000 OA
ENDROOT
BRANCH   1   4
ATOM      2  C   UNL     1      46.375   9.784  12.156  0.00  0.00    +0.000 A 
ATOM      3  C   UNL     1      45.185   9.058  12.144  0.00  0.00    +0.000 A 
ATOM      4  C   UNL     1      45.178   7.684  12.399  0.00  0.00    +0.000 A 
ATOM      5  C   UNL     1      46.385   7.035  12.670  0.00  0.00    +0.000 A 
ATOM      6  C   UNL     1      47.588   7.750  12.664  0.00  0.00    +0.000 A 
ATOM      7  C   UNL     1      47.579   9.130  12.424  0.00  0.00    +0.000 A 
BRANCH   6   8
ATOM      8  C   UNL     1      48.849   7.008  12.916  0.00  0.00    +0.000 C 
ATOM      9  N   UNL     1      49.930   7.322  12.140  0.00  0.00    +0.000 N 
ATOM     10  O   UNL     1      48.915   6.114  13.751  0.00  0.00    +0.000 OA
ATOM     11  H   UNL     1      49.854   7.878  11.299  0.00  0.00    +0.000 HD
ATOM     12  H   UNL     1      50.739   6.721  12.236  0.00  0.00    +0.000 HD
ENDBRANCH   6   8
BRANCH   2  14
ATOM     13  C   UNL     1      46.170  11.570  10.598  0.00  0.00    +0.000 C 
ATOM     14  O   UNL     1      46.483  11.129  11.916  0.00  0.00    +0.000 OA
ENDBRANCH   2  14
ENDBRANCH   1   4
BRANCH   1  15
ATOM     15  C   UNL     1      43.525   6.559  11.120  0.00  0.00    +0.000 C 
BRANCH  15  16
ATOM     16  C   UNL     1      43.708   5.098  10.856  0.00  0.00    +0.000 A 
ATOM     17  C   UNL     1      43.045   4.147  11.620  0.00  0.00    +0.000 A 
ATOM     18  N   UNL     1      43.190   2.819  11.451  0.00  0.00    +0.000 NA
ATOM     19  C   UNL     1      44.016   2.419  10.453  0.00  0.00    +0.000 A 
ATOM     20  C   UNL     1      44.733   3.269   9.607  0.00  0.00    +0.000 A 
ATOM     21  C   UNL     1      44.555   4.641   9.838  0.00  0.00    +0.000 A 
BRANCH  20  22
ATOM     22  C   UNL     1      45.609   2.756   8.529  0.00  0.00    +0.000 A 
ATOM     23  C   UNL     1      46.162   3.617   7.559  0.00  0.00    +0.000 A 
ATOM     24  C   UNL     1      47.025   3.144   6.563  0.00  0.00    +0.000 A 
ATOM     25  C   UNL     1      47.341   1.791   6.503  0.00  0.00    +0.000 A 
ATOM     26  C   UNL     1      46.790   0.926   7.434  0.00  0.00    +0.000 A 
ATOM     27  F   UNL     1      47.084  -0.378   7.379  0.00  0.00    +0.000 F 
ATOM     28  C   UNL     1      45.940   1.391   8.438  0.00  0.00    +0.000 A 
ENDBRANCH  20  22
ENDBRANCH  15  16
ENDBRANCH   1  15
TORSDOF 6
ENDMDL
MODEL 4
REMARK VINA RESULT:    -7.483      1.532      2.029
REMARK INTER + INTRA:         -10.742
REMARK INTER:                  -9.915
REMARK INTRA:                  -0.827
REMARK UNBOUND:                -0.634
REMARK  Name = 
REMARK  7 active torsions:
REMARK  status: ('A' for Active; 'I' for Inactive)
REMARK    1  A    between atoms: C_1  and  O_2
REMARK    2  A    between atoms: O_2  and  C_3
REMARK    3  A    between atoms: C_5  and  O_6
REMARK    4  A    between atoms: O_6  and  C_7
REMARK    5  A    between atoms: C_7  and  C_8
REMARK    6  A    between atoms: C_12  and  C_13
REMARK    7  A    between atoms: C_22  and  C_23
REMARK                            x       y       z     vdW  Elec       q    Type
REMARK                         _______ _______ _______ _____ _____    ______ ____
ROOT
ATOM      1  O   UNL     1      46.141   3.612  13.495  0.00  0.00    +0.000 OA
ENDROOT
BRANCH   1   4
ATOM      2  C   UNL     1      48.198   6.572  14.386  0.00  0.00    +0.000 A 
ATOM      3  C   UNL     1      47.401   5.715  13.629  0.00  0.00    +0.000 A 
ATOM      4  C   UNL     1      46.920   4.518  14.164  0.00  0.00    +0.000 A 
ATOM      5  C   UNL     1      47.246   4.181  15.481  0.00  0.00    +0.000 A 
ATOM      6  C   UNL     1      48.062   5.024  16.244  0.00  0.00    +0.000 A 
ATOM      7  C   UNL     1      48.523   6.229  15.700  0.00  0.00    +0.000 A 
BRANCH   6   8
ATOM      8  C   UNL     1      48.415   4.602  17.623  0.00  0.00    +0.000 C 
ATOM      9  N   UNL     1      47.387   4.385  18.497  0.00  0.00    +0.000 N 
ATOM     10  O   UNL     1      49.580   4.499  17.987  0.00  0.00    +0.000 OA
ATOM     11  H   UNL     1      46.439   4.679  18.309  0.00  0.00    +0.000 HD
ATOM     12  H   UNL     1      47.647   4.225  19.463  0.00  0.00    +0.000 HD
ENDBRANCH   6   8
BRANCH   2  14
ATOM     13  C   UNL     1      50.134   7.834  13.823  0.00  0.00    +0.000 C 
ATOM     14  O   UNL     1      48.718   7.763  13.948  0.00  0.00    +0.000 OA
ENDBRANCH   2  14
ENDBRANCH   1   4
BRANCH   1  15
ATOM     15  C   UNL     1      44.789   4.002  13.256  0.00  0.00    +0.000 C 
BRANCH  15  16
ATOM     16  C   UNL     1      44.557   4.140  11.784  0.00  0.00    +0.000 A 
ATOM     17  C   UNL     1      43.587   5.003  11.294  0.00  0.00    +0.000 A 
ATOM     18  N   UNL     1      43.310   5.150   9.984  0.00  0.00    +0.000 NA
ATOM     19  C   UNL     1      44.057   4.421   9.118  0.00  0.00    +0.000 A 
ATOM     20  C   UNL     1      45.068   3.526   9.477  0.00  0.00    +0.000 A 
ATOM     21  C   UNL     1      45.303   3.403  10.855  0.00  0.00    +0.000 A 
BRANCH  20  22
ATOM     22  C   UNL     1      45.851   2.772   8.471  0.00  0.00    +0.000 A 
ATOM     23  C   UNL     1      46.551   3.432   7.440  0.00  0.00    +0.000 A 
ATOM     24  C   UNL     1      47.326   2.727   6.511  0.00  0.00    +0.000 A 
ATOM     25  C   UNL     1      47.404   1.340   6.582  0.00  0.00    +0.000 A 
ATOM     26  C   UNL     1      46.706   0.673   7.576  0.00  0.00    +0.000 A 
ATOM     27  F   UNL     1      46.771  -0.661   7.647  0.00  0.00    +0.000 F 
ATOM     28  C   UNL     1      45.942   1.369   8.513  0.00  0.00    +0.000 A 
ENDBRANCH  20  22
ENDBRANCH  15  16
ENDBRANCH   1  15
TORSDOF 6
ENDMDL
MODEL 5
REMARK VINA RESULT:    -7.401      1.472      1.775
REMARK INTER + INTRA:         -10.631
REMARK INTER:                  -9.724
REMARK INTRA:                  -0.907
REMARK UNBOUND:                -0.634
REMARK  Name = 
REMARK  7 active torsions:
REMARK  status: ('A' for Active; 'I' for Inactive)
REMARK    1  A    between atoms: C_1  and  O_2
REMARK    2  A    between atoms: O_2  and  C_3
REMARK    3  A    between atoms: C_5  and  O_6
REMARK    4  A    between atoms: O_6  and  C_7
REMARK    5  A    between atoms: C_7  and  C_8
REMARK    6  A    between atoms: C_12  and  C_13
REMARK    7  A    between atoms: C_22  and  C_23
REMARK                            x       y       z     vdW  Elec       q    Type
REMARK                         _______ _______ _______ _____ _____    ______ ____
ROOT
ATOM      1  O   UNL     1      45.533   7.044  12.040  0.00  0.00    +0.000 OA
ENDROOT
BRANCH   1   4
ATOM      2  C   UNL     1      49.060   8.196  12.176  0.00  0.00    +0.000 A 
ATOM      3  C   UNL     1      47.764   8.011  11.699  0.00  0.00    +0.000 A 
ATOM      4  C   UNL     1      46.823   7.284  12.432  0.00  0.00    +0.000 A 
ATOM      5  C   UNL     1      47.194   6.737  13.663  0.00  0.00    +0.000 A 
ATOM      6  C   UNL     1      48.497   6.899  14.144  0.00  0.00    +0.000 A 
ATOM      7  C   UNL     1      49.426   7.644  13.406  0.00  0.00    +0.000 A 
BRANCH   6   8
ATOM      8  C   UNL     1      48.856   6.264  15.437  0.00  0.00    +0.000 C 
ATOM      9  N   UNL     1      47.837   5.749  16.189  0.00  0.00    +0.000 N 
ATOM     10  O   UNL     1      50.010   6.241  15.846  0.00  0.00    +0.000 OA
ATOM     11  H   UNL     1      46.864   5.951  16.001  0.00  0.00    +0.000 HD
ATOM     12  H   UNL     1      48.082   5.437  17.121  0.00  0.00    +0.000 HD
ENDBRANCH   6   8
BRANCH   2  14
ATOM     13  C   UNL     1      49.868  10.295  11.403  0.00  0.00    +0.000 C 
ATOM     14  O   UNL     1      50.051   8.888  11.530  0.00  0.00    +0.000 OA
ENDBRANCH   2  14
ENDBRANCH   1   4
BRANCH   1  15
ATOM     15  C   UNL     1      44.796   6.117  12.837  0.00  0.00    +0.000 C 
BRANCH  15  16
ATOM     16  C   UNL     1      44.447   4.914  12.019  0.00  0.00    +0.000 A 
ATOM     17  C   UNL     1      43.399   4.082  12.387  0.00  0.00    +0.000 A 
ATOM     18  N   UNL     1      43.054   2.970  11.709  0.00  0.00    +0.000 NA
ATOM     19  C   UNL     1      43.772   2.689  10.595  0.00  0.00    +0.000 A 
ATOM     20  C   UNL     1      44.841   3.446  10.108  0.00  0.00    +0.000 A 
ATOM     21  C   UNL     1      45.165   4.584  10.861  0.00  0.00    +0.000 A 
BRANCH  20  22
ATOM     22  C   UNL     1      45.572   3.081   8.874  0.00  0.00    +0.000 A 
ATOM     23  C   UNL     1      45.930   4.053   7.917  0.00  0.00    +0.000 A 
ATOM     24  C   UNL     1      46.658   3.720   6.768  0.00  0.00    +0.000 A 
ATOM     25  C   UNL     1      47.028   2.399   6.540  0.00  0.00    +0.000 A 
ATOM     26  C   UNL     1      46.667   1.427   7.458  0.00  0.00    +0.000 A 
ATOM     27  F   UNL     1      47.014   0.153   7.242  0.00  0.00    +0.000 F 
ATOM     28  C   UNL     1      45.953   1.752   8.611  0.00  0.00    +0.000 A 
ENDBRANCH  20  22
ENDBRANCH  15  16
ENDBRANCH   1  15
TORSDOF 6
ENDMDL
MODEL 6
REMARK VINA RESULT:    -7.259      2.760      4.221
REMARK INTER + INTRA:         -10.439
REMARK INTER:                  -9.476
REMARK INTRA:                  -0.963
REMARK UNBOUND:                -0.634
REMARK  Name = 
REMARK  7 active torsions:
REMARK  status: ('A' for Active; 'I' for Inactive)
REMARK    1  A    between atoms: C_1  and  O_2
REMARK    2  A    between atoms: O_2  and  C_3
REMARK    3  A    between atoms: C_5  and  O_6
REMARK    4  A    between atoms: O_6  and  C_7
REMARK    5  A    between atoms: C_7  and  C_8
REMARK    6  A    between atoms: C_12  and  C_13
REMARK    7  A    between atoms: C_22  and  C_23
REMARK                            x       y       z     vdW  Elec       q    Type
REMARK                         _______ _______ _______ _____ _____    ______ ____
ROOT
ATOM      1  O   UNL     1      49.042   6.476  14.246  0.00  0.00    +0.000 OA
ENDROOT
BRANCH   1   4
ATOM      2  C   UNL     1      48.562   7.350  17.824  0.00  0.00    +0.000 A 
ATOM      3  C   UNL     1      48.883   7.495  16.475  0.00  0.00    +0.000 A 
ATOM      4  C   UNL     1      48.744   6.429  15.582  0.00  0.00    +0.000 A 
ATOM      5  C   UNL     1      48.273   5.202  16.056  0.00  0.00    +0.000 A 
ATOM      6  C   UNL     1      47.967   5.038  17.411  0.00  0.00    +0.000 A 
ATOM      7  C   UNL     1      48.095   6.120  18.292  0.00  0.00    +0.000 A 
BRANCH   6   8
ATOM      8  C   UNL     1      47.511   3.704  17.874  0.00  0.00    +0.000 C 
ATOM      9  N   UNL     1      48.204   3.121  18.898  0.00  0.00    +0.000 N 
ATOM     10  O   UNL     1      46.581   3.117  17.334  0.00  0.00    +0.000 OA
ATOM     11  H   UNL     1      49.104   3.461  19.210  0.00  0.00    +0.000 HD
ATOM     12  H   UNL     1      47.962   2.162  19.114  0.00  0.00    +0.000 HD
ENDBRANCH   6   8
BRANCH   2  14
ATOM     13  C   UNL     1      47.504   8.602  19.547  0.00  0.00    +0.000 C 
ATOM     14  O   UNL     1      48.668   8.333  18.773  0.00  0.00    +0.000 OA
ENDBRANCH   2  14
ENDBRANCH   1   4
BRANCH   1  15
ATOM     15  C   UNL     1      48.783   7.715  13.588  0.00  0.00    +0.000 C 
BRANCH  15  16
ATOM     16  C   UNL     1      47.443   7.663  12.924  0.00  0.00    +0.000 A 
ATOM     17  C   UNL     1      46.554   8.724  13.030  0.00  0.00    +0.000 A 
ATOM     18  N   UNL     1      45.325   8.727  12.480  0.00  0.00    +0.000 NA
ATOM     19  C   UNL     1      44.975   7.629  11.766  0.00  0.00    +0.000 A 
ATOM     20  C   UNL     1      45.776   6.501  11.572  0.00  0.00    +0.000 A 
ATOM     21  C   UNL     1      47.039   6.547  12.179  0.00  0.00    +0.000 A 
BRANCH  20  22
ATOM     22  C   UNL     1      45.327   5.342  10.768  0.00  0.00    +0.000 A 
ATOM     23  C   UNL     1      45.665   5.219   9.404  0.00  0.00    +0.000 A 
ATOM     24  C   UNL     1      45.279   4.104   8.649  0.00  0.00    +0.000 A 
ATOM     25  C   UNL     1      44.529   3.093   9.239  0.00  0.00    +0.000 A 
ATOM     26  C   UNL     1      44.170   3.205  10.572  0.00  0.00    +0.000 A 
ATOM     27  F   UNL     1      43.443   2.239  11.144  0.00  0.00    +0.000 F 
ATOM     28  C   UNL     1      44.561   4.306  11.334  0.00  0.00    +0.000 A 
ENDBRANCH  20  22
ENDBRANCH  15  16
ENDBRANCH   1  15
TORSDOF 6
ENDMDL
MODEL 7
REMARK VINA RESULT:    -7.256      1.936      2.942
REMARK INTER + INTRA:         -10.435
REMARK INTER:                  -9.659
REMARK INTRA:                  -0.776
REMARK UNBOUND:                -0.634
REMARK  Name = 
REMARK  7 active torsions:
REMARK  status: ('A' for Active; 'I' for Inactive)
REMARK    1  A    between atoms: C_1  and  O_2
REMARK    2  A    between atoms: O_2  and  C_3
REMARK    3  A    between atoms: C_5  and  O_6
REMARK    4  A    between atoms: O_6  and  C_7
REMARK    5  A    between atoms: C_7  and  C_8
REMARK    6  A    between atoms: C_12  and  C_13
REMARK    7  A    between atoms: C_22  and  C_23
REMARK                            x       y       z     vdW  Elec       q    Type
REMARK                         _______ _______ _______ _____ _____    ______ ____
ROOT
ATOM      1  O   UNL     1      45.914   4.242  14.310  0.00  0.00    +0.000 OA
ENDROOT
BRANCH   1   4
ATOM      2  C   UNL     1      48.479   5.323  16.768  0.00  0.00    +0.000 A 
ATOM      3  C   UNL     1      47.386   4.642  16.234  0.00  0.00    +0.000 A 
ATOM      4  C   UNL     1      46.977   4.857  14.916  0.00  0.00    +0.000 A 
ATOM      5  C   UNL     1      47.682   5.768  14.125  0.00  0.00    +0.000 A 
ATOM      6  C   UNL     1      48.767   6.473  14.656  0.00  0.00    +0.000 A 
ATOM      7  C   UNL     1      49.176   6.236  15.974  0.00  0.00    +0.000 A 
BRANCH   6   8
ATOM      8  C   UNL     1      49.457   7.461  13.790  0.00  0.00    +0.000 C 
ATOM      9  N   UNL     1      49.701   7.102  12.493  0.00  0.00    +0.000 N 
ATOM     10  O   UNL     1      49.841   8.541  14.223  0.00  0.00    +0.000 OA
ATOM     11  H   UNL     1      49.612   6.150  12.166  0.00  0.00    +0.000 HD
ATOM     12  H   UNL     1      50.283   7.732  11.956  0.00  0.00    +0.000 HD
ENDBRANCH   6   8
BRANCH   2  14
ATOM     13  C   UNL     1      49.818   4.079  18.291  0.00  0.00    +0.000 C 
ATOM     14  O   UNL     1      48.951   5.182  18.047  0.00  0.00    +0.000 OA
ENDBRANCH   2  14
ENDBRANCH   1   4
BRANCH   1  15
ATOM     15  C   UNL     1      45.283   4.972  13.258  0.00  0.00    +0.000 C 
BRANCH  15  16
ATOM     16  C   UNL     1      44.767   4.022  12.224  0.00  0.00    +0.000 A 
ATOM     17  C   UNL     1      43.605   3.294  12.441  0.00  0.00    +0.000 A 
ATOM     18  N   UNL     1      43.105   2.404  11.563  0.00  0.00    +0.000 NA
ATOM     19  C   UNL     1      43.782   2.252  10.398  0.00  0.00    +0.000 A 
ATOM     20  C   UNL     1      44.954   2.928  10.050  0.00  0.00    +0.000 A 
ATOM     21  C   UNL     1      45.437   3.832  11.008  0.00  0.00    +0.000 A 
BRANCH  20  22
ATOM     22  C   UNL     1      45.632   2.717   8.751  0.00  0.00    +0.000 A 
ATOM     23  C   UNL     1      45.879   3.789   7.868  0.00  0.00    +0.000 A 
ATOM     24  C   UNL     1      46.557   3.602   6.657  0.00  0.00    +0.000 A 
ATOM     25  C   UNL     1      46.989   2.331   6.292  0.00  0.00    +0.000 A 
ATOM     26  C   UNL     1      46.737   1.263   7.137  0.00  0.00    +0.000 A 
ATOM     27  F   UNL     1      47.144   0.036   6.789  0.00  0.00    +0.000 F 
ATOM     28  C   UNL     1      46.073   1.442   8.350  0.00  0.00    +0.000 A 
ENDBRANCH  20  22
ENDBRANCH  15  16
ENDBRANCH   1  15
TORSDOF 6
ENDMDL
MODEL 8
REMARK VINA RESULT:    -7.077      1.783      3.026
REMARK INTER + INTRA:         -10.194
REMARK INTER:                  -9.473
REMARK INTRA:                  -0.721
REMARK UNBOUND:                -0.634
REMARK  Name = 
REMARK  7 active torsions:
REMARK  status: ('A' for Active; 'I' for Inactive)
REMARK    1  A    between atoms: C_1  and  O_2
REMARK    2  A    between atoms: O_2  and  C_3
REMARK    3  A    between atoms: C_5  and  O_6
REMARK    4  A    between atoms: O_6  and  C_7
REMARK    5  A    between atoms: C_7  and  C_8
REMARK    6  A    between atoms: C_12  and  C_13
REMARK    7  A    between atoms: C_22  and  C_23
REMARK                            x       y       z     vdW  Elec       q    Type
REMARK                         _______ _______ _______ _____ _____    ______ ____
ROOT
ATOM      1  O   UNL     1      46.123   7.211  11.602  0.00  0.00    +0.000 OA
ENDROOT
BRANCH   1   4
ATOM      2  C   UNL     1      47.764   5.529  14.477  0.00  0.00    +0.000 A 
ATOM      3  C   UNL     1      46.963   5.704  13.349  0.00  0.00    +0.000 A 
ATOM      4  C   UNL     1      46.886   6.942  12.706  0.00  0.00    +0.000 A 
ATOM      5  C   UNL     1      47.628   8.016  13.206  0.00  0.00    +0.000 A 
ATOM      6  C   UNL     1      48.419   7.857  14.348  0.00  0.00    +0.000 A 
ATOM      7  C   UNL     1      48.500   6.606  14.974  0.00  0.00    +0.000 A 
BRANCH   6   8
ATOM      8  C   UNL     1      49.155   9.038  14.866  0.00  0.00    +0.000 C 
ATOM      9  N   UNL     1      49.385  10.068  13.996  0.00  0.00    +0.000 N 
ATOM     10  O   UNL     1      49.587   9.078  16.011  0.00  0.00    +0.000 OA
ATOM     11  H   UNL     1      49.253   9.978  12.998  0.00  0.00    +0.000 HD
ATOM     12  H   UNL     1      49.996  10.804  14.326  0.00  0.00    +0.000 HD
ENDBRANCH   6   8
BRANCH   2  14
ATOM     13  C   UNL     1      47.250   4.287  16.440  0.00  0.00    +0.000 C 
ATOM     14  O   UNL     1      47.901   4.357  15.175  0.00  0.00    +0.000 OA
ENDBRANCH   2  14
ENDBRANCH   1   4
BRANCH   1  15
ATOM     15  C   UNL     1      44.725   6.949  11.725  0.00  0.00    +0.000 C 
BRANCH  15  16
ATOM     16  C   UNL     1      44.423   5.573  11.220  0.00  0.00    +0.000 A 
ATOM     17  C   UNL     1      43.403   4.817  11.781  0.00  0.00    +0.000 A 
ATOM     18  N   UNL     1      43.100   3.564  11.391  0.00  0.00    +0.000 NA
ATOM     19  C   UNL     1      43.833   3.050  10.373  0.00  0.00    +0.000 A 
ATOM     20  C   UNL     1      44.876   3.706   9.715  0.00  0.00    +0.000 A 
ATOM     21  C   UNL     1      45.157   5.002  10.172  0.00  0.00    +0.000 A 
BRANCH  20  22
ATOM     22  C   UNL     1      45.625   3.082   8.600  0.00  0.00    +0.000 A 
ATOM     23  C   UNL     1      46.005   1.725   8.639  0.00  0.00    +0.000 A 
ATOM     24  C   UNL     1      46.676   1.119   7.569  0.00  0.00    +0.000 A 
ATOM     25  C   UNL     1      46.998   1.864   6.441  0.00  0.00    +0.000 A 
ATOM     26  C   UNL     1      46.651   3.204   6.393  0.00  0.00    +0.000 A 
ATOM     27  F   UNL     1      46.965   3.930   5.313  0.00  0.00    +0.000 F 
ATOM     28  C   UNL     1      45.972   3.813   7.449  0.00  0.00    +0.000 A 
ENDBRANCH  20  22
ENDBRANCH  15  16
ENDBRANCH   1  15
TORSDOF 6
ENDMDL
MODEL 9
REMARK VINA RESULT:    -7.065      3.144      7.612
REMARK INTER + INTRA:         -10.177
REMARK INTER:                  -9.265
REMARK INTRA:                  -0.912
REMARK UNBOUND:                -0.634
REMARK  Name = 
REMARK  7 active torsions:
REMARK  status: ('A' for Active; 'I' for Inactive)
REMARK    1  A    between atoms: C_1  and  O_2
REMARK    2  A    between atoms: O_2  and  C_3
REMARK    3  A    between atoms: C_5  and  O_6
REMARK    4  A    between atoms: O_6  and  C_7
REMARK    5  A    between atoms: C_7  and  C_8
REMARK    6  A    between atoms: C_12  and  C_13
REMARK    7  A    between atoms: C_22  and  C_23
REMARK                            x       y       z     vdW  Elec       q    Type
REMARK                         _______ _______ _______ _____ _____    ______ ____
ROOT
ATOM      1  O   UNL     1      46.610   6.831  11.109  0.00  0.00    +0.000 OA
ENDROOT
BRANCH   1   4
ATOM      2  C   UNL     1      45.207   4.260   8.826  0.00  0.00    +0.000 A 
ATOM      3  C   UNL     1      45.916   5.382   9.251  0.00  0.00    +0.000 A 
ATOM      4  C   UNL     1      45.950   5.744  10.601  0.00  0.00    +0.000 A 
ATOM      5  C   UNL     1      45.262   4.962  11.532  0.00  0.00    +0.000 A 
ATOM      6  C   UNL     1      44.531   3.845  11.115  0.00  0.00    +0.000 A 
ATOM      7  C   UNL     1      44.519   3.484   9.761  0.00  0.00    +0.000 A 
BRANCH   6   8
ATOM      8  C   UNL     1      43.782   3.071  12.136  0.00  0.00    +0.000 C 
ATOM      9  N   UNL     1      43.283   1.854  11.763  0.00  0.00    +0.000 N 
ATOM     10  O   UNL     1      43.572   3.517  13.257  0.00  0.00    +0.000 OA
ATOM     11  H   UNL     1      43.233   1.557  10.798  0.00  0.00    +0.000 HD
ATOM     12  H   UNL     1      42.669   1.400  12.427  0.00  0.00    +0.000 HD
ENDBRANCH   6   8
BRANCH   2  14
ATOM     13  C   UNL     1      46.326   3.432   6.897  0.00  0.00    +0.000 C 
ATOM     14  O   UNL     1      45.112   3.829   7.528  0.00  0.00    +0.000 OA
ENDBRANCH   2  14
ENDBRANCH   1   4
BRANCH   1  15
ATOM     15  C   UNL     1      46.161   7.300  12.380  0.00  0.00    +0.000 C 
BRANCH  15  16
ATOM     16  C   UNL     1      47.289   7.258  13.361  0.00  0.00    +0.000 A 
ATOM     17  C   UNL     1      48.309   8.198  13.315  0.00  0.00    +0.000 A 
ATOM     18  N   UNL     1      49.366   8.197  14.150  0.00  0.00    +0.000 NA
ATOM     19  C   UNL     1      49.392   7.227  15.097  0.00  0.00    +0.000 A 
ATOM     20  C   UNL     1      48.427   6.229  15.260  0.00  0.00    +0.000 A 
ATOM     21  C   UNL     1      47.358   6.271  14.353  0.00  0.00    +0.000 A 
BRANCH  20  22
ATOM     22  C   UNL     1      48.519   5.207  16.328  0.00  0.00    +0.000 A 
ATOM     23  C   UNL     1      49.619   5.162  17.208  0.00  0.00    +0.000 A 
ATOM     24  C   UNL     1      49.691   4.224  18.246  0.00  0.00    +0.000 A 
ATOM     25  C   UNL     1      48.669   3.297  18.416  0.00  0.00    +0.000 A 
ATOM     26  C   UNL     1      47.590   3.313  17.547  0.00  0.00    +0.000 A 
ATOM     27  F   UNL     1      46.606   2.419  17.700  0.00  0.00    +0.000 F 
ATOM     28  C   UNL     1      47.505   4.251  16.519  0.00  0.00    +0.000 A 
ENDBRANCH  20  22
ENDBRANCH  15  16
ENDBRANCH   1  15
TORSDOF 6
ENDMDL
