MODEL 1
REMARK VINA RESULT:    -7.728      0.000      0.000
REMARK INTER + INTRA:         -10.848
REMARK INTER:                  -9.986
REMARK INTRA:                  -0.862
REMARK UNBOUND:                -0.862
REMARK  Name = 
REMARK  5 active torsions:
REMARK  status: ('A' for Active; 'I' for Inactive)
REMARK    1  A    between atoms: C_2  and  C_3
REMARK    2  A    between atoms: C_7  and  C_8
REMARK    3  A    between atoms: C_8  and  C_9
REMARK    4  A    between atoms: C_9  and  C_10
REMARK    5  A    between atoms: C_14  and  C_15
REMARK                            x       y       z     vdW  Elec       q    Type
REMARK                         _______ _______ _______ _____ _____    ______ ____
ROOT
ATOM      1  C   UNL     1      44.112   5.206  10.974  0.00  0.00    +0.000 A 
ATOM      2  C   UNL     1      43.278   4.312  11.640  0.00  0.00    +0.000 A 
ATOM      3  N   UNL     1      43.180   2.999  11.341  0.00  0.00    +0.000 NA
ATOM      4  C   UNL     1      43.964   2.540  10.338  0.00  0.00    +0.000 A 
ATOM      5  C   UNL     1      44.851   3.319   9.595  0.00  0.00    +0.000 A 
ATOM      6  C   UNL     1      44.904   4.678   9.948  0.00  0.00    +0.000 A 
ENDROOT
BRANCH   5   7
ATOM      7  C   UNL     1      45.691   2.767   8.512  0.00  0.00    +0.000 A 
ATOM      8  C   UNL     1      46.238   3.593   7.511  0.00  0.00    +0.000 A 
ATOM      9  C   UNL     1      47.037   3.070   6.488  0.00  0.00    +0.000 A 
ATOM     10  C   UNL     1      47.314   1.708   6.448  0.00  0.00    +0.000 A 
ATOM     11  C   UNL     1      46.786   0.882   7.431  0.00  0.00    +0.000 A 
ATOM     12  F   UNL     1      47.052  -0.430   7.404  0.00  0.00    +0.000 F 
ATOM     13  C   UNL     1      45.983   1.394   8.444  0.00  0.00    +0.000 A 
ENDBRANCH   5   7
BRANCH   1  14
ATOM     14  C   UNL     1      44.182   6.652  11.407  0.00  0.00    +0.000 C 
BRANCH  14  15
ATOM     15  C   UNL     1      44.874   6.880  12.760  0.00  0.00    +0.000 C 
BRANCH  15  20
ATOM     16  C   UNL     1      48.430   8.088  12.123  0.00  0.00    +0.000 A 
ATOM     17  C   UNL     1      49.117   6.995  12.629  0.00  0.00    +0.000 A 
ATOM     18  N   UNL     1      48.511   5.891  13.128  0.00  0.00    +0.000 NA
ATOM     19  C   UNL     1      47.158   5.886  13.135  0.00  0.00    +0.000 A 
ATOM     20  C   UNL     1      46.375   6.936  12.668  0.00  0.00    +0.000 A 
ATOM     21  C   UNL     1      47.035   8.053  12.141  0.00  0.00    +0.000 A 
BRANCH  16  23
ATOM     22  N   UNL     1      49.719  10.133  11.199  0.00  0.00    +0.000 NA
ATOM     23  C   UNL     1      49.140   9.217  11.610  0.00  0.00    +0.000 C 
ENDBRANCH  16  23
ENDBRANCH  15  20
ENDBRANCH  14  15
ENDBRANCH   1  14
TORSDOF 5
ENDMDL
MODEL 2
REMARK VINA RESULT:    -7.691      1.220      2.456
REMARK INTER + INTRA:         -10.802
REMARK INTER:                 -10.107
REMARK INTRA:                  -0.695
REMARK UNBOUND:                -0.862
REMARK  Name = 
REMARK  5 active torsions:
REMARK  status: ('A' for Active; 'I' for Inactive)
REMARK    1  A    between atoms: C_2  and  C_3
REMARK    2  A    between atoms: C_7  and  C_8
REMARK    3  A    between atoms: C_8  and  C_9
REMARK    4  A    between atoms: C_9  and  C_10
REMARK    5  A    between atoms: C_14  and  C_15
REMARK                            x       y       z     vdW  Elec       q    Type
REMARK                         _______ _______ _______ _____ _____    ______ ____
ROOT
ATOM      1  C   UNL     1      43.937   5.072  11.078  0.00  0.00    +0.000 A 
ATOM      2  C   UNL     1      43.181   4.105  11.733  0.00  0.00    +0.000 A 
ATOM      3  N   UNL     1      43.160   2.798  11.394  0.00  0.00    +0.000 NA
ATOM      4  C   UNL     1      43.946   2.423  10.357  0.00  0.00    +0.000 A 
ATOM      5  C   UNL     1      44.761   3.282   9.620  0.00  0.00    +0.000 A 
ATOM      6  C   UNL     1      44.735   4.629  10.016  0.00  0.00    +0.000 A 
ENDROOT
BRANCH   5   7
ATOM      7  C   UNL     1      45.606   2.821   8.499  0.00  0.00    +0.000 A 
ATOM      8  C   UNL     1      46.055   3.708   7.502  0.00  0.00    +0.000 A 
ATOM      9  C   UNL     1      46.859   3.271   6.443  0.00  0.00    +0.000 A 
ATOM     10  C   UNL     1      47.241   1.936   6.363  0.00  0.00    +0.000 A 
ATOM     11  C   UNL     1      46.810   1.050   7.342  0.00  0.00    +0.000 A 
ATOM     12  F   UNL     1      47.177  -0.236   7.276  0.00  0.00    +0.000 F 
ATOM     13  C   UNL     1      46.002   1.477   8.390  0.00  0.00    +0.000 A 
ENDBRANCH   5   7
BRANCH   1  14
ATOM     14  C   UNL     1      43.924   6.505  11.557  0.00  0.00    +0.000 C 
BRANCH  14  15
ATOM     15  C   UNL     1      45.246   7.261  11.344  0.00  0.00    +0.000 C 
BRANCH  15  20
ATOM     16  C   UNL     1      47.286   5.623  14.114  0.00  0.00    +0.000 A 
ATOM     17  C   UNL     1      48.196   6.646  14.336  0.00  0.00    +0.000 A 
ATOM     18  N   UNL     1      48.173   7.830  13.678  0.00  0.00    +0.000 NA
ATOM     19  C   UNL     1      47.206   7.993  12.746  0.00  0.00    +0.000 A 
ATOM     20  C   UNL     1      46.256   7.026  12.434  0.00  0.00    +0.000 A 
ATOM     21  C   UNL     1      46.298   5.821  13.148  0.00  0.00    +0.000 A 
BRANCH  16  23
ATOM     22  N   UNL     1      47.450   3.410  15.447  0.00  0.00    +0.000 NA
ATOM     23  C   UNL     1      47.374   4.402  14.850  0.00  0.00    +0.000 C 
ENDBRANCH  16  23
ENDBRANCH  15  20
ENDBRANCH  14  15
ENDBRANCH   1  14
TORSDOF 5
ENDMDL
MODEL 3
REMARK VINA RESULT:    -7.335      3.321      7.237
REMARK INTER + INTRA:         -10.341
REMARK INTER:                  -9.483
REMARK INTRA:                  -0.858
REMARK UNBOUND:                -0.862
REMARK  Name = 
REMARK  5 active torsions:
REMARK  status: ('A' for Active; 'I' for Inactive)
REMARK    1  A    between atoms: C_2  and  C_3
REMARK    2  A    between atoms: C_7  and  C_8
REMARK    3  A    between atoms: C_8  and  C_9
REMARK    4  A    between atoms: C_9  and  C_10
REMARK    5  A    between atoms: C_14  and  C_15
REMARK                            x       y       z     vdW  Elec       q    Type
REMARK                         _______ _______ _______ _____ _____    ______ ____
ROOT
ATOM      1  C   UNL     1      45.330   4.222  12.545  0.00  0.00    +0.000 A 
ATOM      2  C   UNL     1      46.411   3.755  13.287  0.00  0.00    +0.000 A 
ATOM      3  N   UNL     1      47.426   4.533  13.724  0.00  0.00    +0.000 NA
ATOM      4  C   UNL     1      47.358   5.851  13.424  0.00  0.00    +0.000 A 
ATOM      5  C   UNL     1      46.330   6.454  12.699  0.00  0.00    +0.000 A 
ATOM      6  C   UNL     1      45.308   5.594  12.268  0.00  0.00    +0.000 A 
ENDROOT
BRANCH   5   7
ATOM      7  C   UNL     1      46.301   7.902  12.403  0.00  0.00    +0.000 A 
ATOM      8  C   UNL     1      47.473   8.681  12.421  0.00  0.00    +0.000 A 
ATOM      9  C   UNL     1      47.445  10.051  12.136  0.00  0.00    +0.000 A 
ATOM     10  C   UNL     1      46.241  10.672  11.817  0.00  0.00    +0.000 A 
ATOM     11  C   UNL     1      45.077   9.914  11.790  0.00  0.00    +0.000 A 
ATOM     12  F   UNL     1      43.915  10.501  11.478  0.00  0.00    +0.000 F 
ATOM     13  C   UNL     1      45.098   8.555  12.083  0.00  0.00    +0.000 A 
ENDBRANCH   5   7
BRANCH   1  14
ATOM     14  C   UNL     1      44.222   3.280  12.136  0.00  0.00    +0.000 C 
BRANCH  14  15
ATOM     15  C   UNL     1      43.622   3.565  10.750  0.00  0.00    +0.000 C 
BRANCH  15  20
ATOM     16  C   UNL     1      45.959   1.918   8.232  0.00  0.00    +0.000 A 
ATOM     17  C   UNL     1      46.272   3.036   7.474  0.00  0.00    +0.000 A 
ATOM     18  N   UNL     1      45.807   4.280   7.741  0.00  0.00    +0.000 NA
ATOM     19  C   UNL     1      44.980   4.409   8.804  0.00  0.00    +0.000 A 
ATOM     20  C   UNL     1      44.590   3.351   9.618  0.00  0.00    +0.000 A 
ATOM     21  C   UNL     1      45.105   2.082   9.324  0.00  0.00    +0.000 A 
BRANCH  16  23
ATOM     22  N   UNL     1      46.920  -0.405   7.615  0.00  0.00    +0.000 NA
ATOM     23  C   UNL     1      46.491   0.637   7.889  0.00  0.00    +0.000 C 
ENDBRANCH  16  23
ENDBRANCH  15  20
ENDBRANCH  14  15
ENDBRANCH   1  14
TORSDOF 5
ENDMDL
MODEL 4
REMARK VINA RESULT:    -7.271      2.131      2.874
REMARK INTER + INTRA:         -10.259
REMARK INTER:                  -9.695
REMARK INTRA:                  -0.563
REMARK UNBOUND:                -0.862
REMARK  Name = 
REMARK  5 active torsions:
REMARK  status: ('A' for Active; 'I' for Inactive)
REMARK    1  A    between atoms: C_2  and  C_3
REMARK    2  A    between atoms: C_7  and  C_8
REMARK    3  A    between atoms: C_8  and  C_9
REMARK    4  A    between atoms: C_9  and  C_10
REMARK    5  A    between atoms: C_14  and  C_15
REMARK                            x       y       z     vdW  Elec       q    Type
REMARK                         _______ _______ _______ _____ _____    ______ ____
ROOT
ATOM      1  C   UNL     1      45.149   6.203  11.243  0.00  0.00    +0.000 A 
ATOM      2  C   UNL     1      43.790   5.995  11.459  0.00  0.00    +0.000 A 
ATOM      3  N   UNL     1      43.050   5.069  10.811  0.00  0.00    +0.000 NA
ATOM      4  C   UNL     1      43.696   4.292   9.911  0.00  0.00    +0.000 A 
ATOM      5  C   UNL     1      45.053   4.383   9.604  0.00  0.00    +0.000 A 
ATOM      6  C   UNL     1      45.767   5.369  10.305  0.00  0.00    +0.000 A 
ENDROOT
BRANCH   5   7
ATOM      7  C   UNL     1      45.713   3.506   8.615  0.00  0.00    +0.000 A 
ATOM      8  C   UNL     1      46.366   4.031   7.483  0.00  0.00    +0.000 A 
ATOM      9  C   UNL     1      46.994   3.199   6.549  0.00  0.00    +0.000 A 
ATOM     10  C   UNL     1      46.991   1.820   6.732  0.00  0.00    +0.000 A 
ATOM     11  C   UNL     1      46.356   1.288   7.846  0.00  0.00    +0.000 A 
ATOM     12  F   UNL     1      46.352  -0.038   8.033  0.00  0.00    +0.000 F 
ATOM     13  C   UNL     1      45.721   2.109   8.771  0.00  0.00    +0.000 A 
ENDBRANCH   5   7
BRANCH   1  14
ATOM     14  C   UNL     1      45.900   7.238  12.047  0.00  0.00    +0.000 C 
BRANCH  14  15
ATOM     15  C   UNL     1      47.351   6.859  12.380  0.00  0.00    +0.000 C 
BRANCH  15  20
ATOM     16  C   UNL     1      48.307   5.713  15.886  0.00  0.00    +0.000 A 
ATOM     17  C   UNL     1      47.597   4.522  15.918  0.00  0.00    +0.000 A 
ATOM     18  N   UNL     1      46.863   4.056  14.880  0.00  0.00    +0.000 NA
ATOM     19  C   UNL     1      46.825   4.821  13.765  0.00  0.00    +0.000 A 
ATOM     20  C   UNL     1      47.487   6.037  13.633  0.00  0.00    +0.000 A 
ATOM     21  C   UNL     1      48.252   6.480  14.720  0.00  0.00    +0.000 A 
BRANCH  16  23
ATOM     22  N   UNL     1      49.672   6.480  17.947  0.00  0.00    +0.000 NA
ATOM     23  C   UNL     1      49.062   6.138  17.021  0.00  0.00    +0.000 C 
ENDBRANCH  16  23
ENDBRANCH  15  20
ENDBRANCH  14  15
ENDBRANCH   1  14
TORSDOF 5
ENDMDL
MODEL 5
REMARK VINA RESULT:    -6.622      1.699      2.339
REMARK INTER + INTRA:          -9.420
REMARK INTER:                  -8.673
REMARK INTRA:                  -0.747
REMARK UNBOUND:                -0.862
REMARK  Name = 
REMARK  5 active torsions:
REMARK  status: ('A' for Active; 'I' for Inactive)
REMARK    1  A    between atoms: C_2  and  C_3
REMARK    2  A    between atoms: C_7  and  C_8
REMARK    3  A    between atoms: C_8  and  C_9
REMARK    4  A    between atoms: C_9  and  C_10
REMARK    5  A    between atoms: C_14  and  C_15
REMARK                            x       y       z     vdW  Elec       q    Type
REMARK                         _______ _______ _______ _____ _____    ______ ____
ROOT
ATOM      1  C   UNL     1      44.337   3.561  11.066  0.00  0.00    +0.000 A 
ATOM      2  C   UNL     1      43.598   4.612  10.533  0.00  0.00    +0.000 A 
ATOM      3  N   UNL     1      43.612   4.967   9.230  0.00  0.00    +0.000 NA
ATOM      4  C   UNL     1      44.389   4.228   8.404  0.00  0.00    +0.000 A 
ATOM      5  C   UNL     1      45.171   3.143   8.799  0.00  0.00    +0.000 A 
ATOM      6  C   UNL     1      45.119   2.826  10.167  0.00  0.00    +0.000 A 
ENDROOT
BRANCH   5   7
ATOM      7  C   UNL     1      45.998   2.363   7.855  0.00  0.00    +0.000 A 
ATOM      8  C   UNL     1      46.285   1.003   8.077  0.00  0.00    +0.000 A 
ATOM      9  C   UNL     1      47.065   0.264   7.180  0.00  0.00    +0.000 A 
ATOM     10  C   UNL     1      47.569   0.869   6.033  0.00  0.00    +0.000 A 
ATOM     11  C   UNL     1      47.289   2.209   5.798  0.00  0.00    +0.000 A 
ATOM     12  F   UNL     1      47.765   2.799   4.694  0.00  0.00    +0.000 F 
ATOM     13  C   UNL     1      46.524   2.950   6.691  0.00  0.00    +0.000 A 
ENDBRANCH   5   7
BRANCH   1  14
ATOM     14  C   UNL     1      44.224   3.215  12.532  0.00  0.00    +0.000 C 
BRANCH  14  15
ATOM     15  C   UNL     1      44.208   4.428  13.475  0.00  0.00    +0.000 C 
BRANCH  15  20
ATOM     16  C   UNL     1      46.716   7.253  12.976  0.00  0.00    +0.000 A 
ATOM     17  C   UNL     1      47.829   6.647  13.539  0.00  0.00    +0.000 A 
ATOM     18  N   UNL     1      47.829   5.387  14.036  0.00  0.00    +0.000 NA
ATOM     19  C   UNL     1      46.661   4.707  13.980  0.00  0.00    +0.000 A 
ATOM     20  C   UNL     1      45.484   5.227  13.451  0.00  0.00    +0.000 A 
ATOM     21  C   UNL     1      45.526   6.526  12.929  0.00  0.00    +0.000 A 
BRANCH  16  23
ATOM     22  N   UNL     1      46.855   9.670  12.061  0.00  0.00    +0.000 NA
ATOM     23  C   UNL     1      46.795   8.586  12.470  0.00  0.00    +0.000 C 
ENDBRANCH  16  23
ENDBRANCH  15  20
ENDBRANCH  14  15
ENDBRANCH   1  14
TORSDOF 5
ENDMDL
MODEL 6
REMARK VINA RESULT:    -6.572      3.184      5.400
REMARK INTER + INTRA:          -9.354
REMARK INTER:                  -8.543
REMARK INTRA:                  -0.811
REMARK UNBOUND:                -0.862
REMARK  Name = 
REMARK  5 active torsions:
REMARK  status: ('A' for Active; 'I' for Inactive)
REMARK    1  A    between atoms: C_2  and  C_3
REMARK    2  A    between atoms: C_7  and  C_8
REMARK    3  A    between atoms: C_8  and  C_9
REMARK    4  A    between atoms: C_9  and  C_10
REMARK    5  A    between atoms: C_14  and  C_15
REMARK                            x       y       z     vdW  Elec       q    Type
REMARK                         _______ _______ _______ _____ _____    ______ ____
ROOT
ATOM      1  C   UNL     1      47.883   7.560  12.976  0.00  0.00    +0.000 A 
ATOM      2  C   UNL     1      47.023   8.602  13.310  0.00  0.00    +0.000 A 
ATOM      3  N   UNL     1      45.730   8.674  12.925  0.00  0.00    +0.000 NA
ATOM      4  C   UNL     1      45.256   7.646  12.183  0.00  0.00    +0.000 A 
ATOM      5  C   UNL     1      46.001   6.536  11.786  0.00  0.00    +0.000 A 
ATOM      6  C   UNL     1      47.340   6.522  12.211  0.00  0.00    +0.000 A 
ENDROOT
BRANCH   5   7
ATOM      7  C   UNL     1      45.434   5.436  10.978  0.00  0.00    +0.000 A 
ATOM      8  C   UNL     1      45.701   5.321   9.600  0.00  0.00    +0.000 A 
ATOM      9  C   UNL     1      45.167   4.276   8.837  0.00  0.00    +0.000 A 
ATOM     10  C   UNL     1      44.359   3.316   9.439  0.00  0.00    +0.000 A 
ATOM     11  C   UNL     1      44.091   3.414  10.797  0.00  0.00    +0.000 A 
ATOM     12  F   UNL     1      43.319   2.492  11.386  0.00  0.00    +0.000 F 
ATOM     13  C   UNL     1      44.610   4.456  11.558  0.00  0.00    +0.000 A 
ENDBRANCH   5   7
BRANCH   1  14
ATOM     14  C   UNL     1      49.304   7.550  13.488  0.00  0.00    +0.000 C 
BRANCH  14  15
ATOM     15  C   UNL     1      49.452   7.930  14.970  0.00  0.00    +0.000 C 
BRANCH  15  20
ATOM     16  C   UNL     1      48.614   4.768  16.924  0.00  0.00    +0.000 A 
ATOM     17  C   UNL     1      49.854   4.545  17.503  0.00  0.00    +0.000 A 
ATOM     18  N   UNL     1      50.923   5.359  17.330  0.00  0.00    +0.000 NA
ATOM     19  C   UNL     1      50.748   6.436  16.531  0.00  0.00    +0.000 A 
ATOM     20  C   UNL     1      49.552   6.743  15.890  0.00  0.00    +0.000 A 
ATOM     21  C   UNL     1      48.463   5.890  16.107  0.00  0.00    +0.000 A 
BRANCH  16  23
ATOM     22  N   UNL     1      46.655   3.129  17.340  0.00  0.00    +0.000 NA
ATOM     23  C   UNL     1      47.532   3.865  17.156  0.00  0.00    +0.000 C 
ENDBRANCH  16  23
ENDBRANCH  15  20
ENDBRANCH  14  15
ENDBRANCH   1  14
TORSDOF 5
ENDMDL
MODEL 7
REMARK VINA RESULT:    -6.563      2.966      6.957
REMARK INTER + INTRA:          -9.343
REMARK INTER:                  -8.456
REMARK INTRA:                  -0.887
REMARK UNBOUND:                -0.862
REMARK  Name = 
REMARK  5 active torsions:
REMARK  status: ('A' for Active; 'I' for Inactive)
REMARK    1  A    between atoms: C_2  and  C_3
REMARK    2  A    between atoms: C_7  and  C_8
REMARK    3  A    between atoms: C_8  and  C_9
REMARK    4  A    between atoms: C_9  and  C_10
REMARK    5  A    between atoms: C_14  and  C_15
REMARK                            x       y       z     vdW  Elec       q    Type
REMARK                         _______ _______ _______ _____ _____    ______ ____
ROOT
ATOM      1  C   UNL     1      45.777   6.075  12.906  0.00  0.00    +0.000 A 
ATOM      2  C   UNL     1      46.527   5.216  13.704  0.00  0.00    +0.000 A 
ATOM      3  N   UNL     1      47.845   5.370  13.956  0.00  0.00    +0.000 NA
ATOM      4  C   UNL     1      48.451   6.446  13.400  0.00  0.00    +0.000 A 
ATOM      5  C   UNL     1      47.820   7.390  12.592  0.00  0.00    +0.000 A 
ATOM      6  C   UNL     1      46.452   7.173  12.361  0.00  0.00    +0.000 A 
ENDROOT
BRANCH   5   7
ATOM      7  C   UNL     1      48.528   8.552  12.013  0.00  0.00    +0.000 A 
ATOM      8  C   UNL     1      47.882   9.789  11.828  0.00  0.00    +0.000 A 
ATOM      9  C   UNL     1      48.554  10.890  11.284  0.00  0.00    +0.000 A 
ATOM     10  C   UNL     1      49.892  10.780  10.922  0.00  0.00    +0.000 A 
ATOM     11  C   UNL     1      50.544   9.568  11.104  0.00  0.00    +0.000 A 
ATOM     12  F   UNL     1      51.834   9.453  10.763  0.00  0.00    +0.000 F 
ATOM     13  C   UNL     1      49.878   8.468  11.634  0.00  0.00    +0.000 A 
ENDBRANCH   5   7
BRANCH   1  14
ATOM     14  C   UNL     1      44.296   5.840  12.716  0.00  0.00    +0.000 C 
BRANCH  14  15
ATOM     15  C   UNL     1      43.818   5.931  11.258  0.00  0.00    +0.000 C 
BRANCH  15  20
ATOM     16  C   UNL     1      45.155   3.586   8.570  0.00  0.00    +0.000 A 
ATOM     17  C   UNL     1      44.693   2.386   9.090  0.00  0.00    +0.000 A 
ATOM     18  N   UNL     1      43.959   2.291  10.224  0.00  0.00    +0.000 NA
ATOM     19  C   UNL     1      43.686   3.445  10.875  0.00  0.00    +0.000 A 
ATOM     20  C   UNL     1      44.114   4.698  10.449  0.00  0.00    +0.000 A 
ATOM     21  C   UNL     1      44.855   4.760   9.262  0.00  0.00    +0.000 A 
BRANCH  16  23
ATOM     22  N   UNL     1      46.551   3.621   6.391  0.00  0.00    +0.000 NA
ATOM     23  C   UNL     1      45.923   3.606   7.366  0.00  0.00    +0.000 C 
ENDBRANCH  16  23
ENDBRANCH  15  20
ENDBRANCH  14  15
ENDBRANCH   1  14
TORSDOF 5
ENDMDL
MODEL 8
REMARK VINA RESULT:    -6.496      2.805      4.942
REMARK INTER + INTRA:          -9.257
REMARK INTER:                  -8.457
REMARK INTRA:                  -0.800
REMARK UNBOUND:                -0.862
REMARK  Name = 
REMARK  5 active torsions:
REMARK  status: ('A' for Active; 'I' for Inactive)
REMARK    1  A    between atoms: C_2  and  C_3
REMARK    2  A    between atoms: C_7  and  C_8
REMARK    3  A    between atoms: C_8  and  C_9
REMARK    4  A    between atoms: C_9  and  C_10
REMARK    5  A    between atoms: C_14  and  C_15
REMARK                            x       y       z     vdW  Elec       q    Type
REMARK                         _______ _______ _______ _____ _____    ______ ____
ROOT
ATOM      1  C   UNL     1      47.460   7.571  12.407  0.00  0.00    +0.000 A 
ATOM      2  C   UNL     1      46.494   8.531  12.691  0.00  0.00    +0.000 A 
ATOM      3  N   UNL     1      45.197   8.435  12.324  0.00  0.00    +0.000 NA
ATOM      4  C   UNL     1      44.832   7.318  11.653  0.00  0.00    +0.000 A 
ATOM      5  C   UNL     1      45.692   6.274  11.312  0.00  0.00    +0.000 A 
ATOM      6  C   UNL     1      47.028   6.433  11.715  0.00  0.00    +0.000 A 
ENDROOT
BRANCH   5   7
ATOM      7  C   UNL     1      45.242   5.070  10.582  0.00  0.00    +0.000 A 
ATOM      8  C   UNL     1      44.520   4.046  11.225  0.00  0.00    +0.000 A 
ATOM      9  C   UNL     1      44.090   2.909  10.532  0.00  0.00    +0.000 A 
ATOM     10  C   UNL     1      44.365   2.774   9.175  0.00  0.00    +0.000 A 
ATOM     11  C   UNL     1      45.072   3.778   8.527  0.00  0.00    +0.000 A 
ATOM     12  F   UNL     1      45.337   3.660   7.219  0.00  0.00    +0.000 F 
ATOM     13  C   UNL     1      45.510   4.906   9.213  0.00  0.00    +0.000 A 
ENDBRANCH   5   7
BRANCH   1  14
ATOM     14  C   UNL     1      48.879   7.749  12.895  0.00  0.00    +0.000 C 
BRANCH  14  15
ATOM     15  C   UNL     1      48.999   8.210  14.356  0.00  0.00    +0.000 C 
BRANCH  15  20
ATOM     16  C   UNL     1      48.525   5.126  16.541  0.00  0.00    +0.000 A 
ATOM     17  C   UNL     1      49.821   5.006  17.019  0.00  0.00    +0.000 A 
ATOM     18  N   UNL     1      50.820   5.867  16.708  0.00  0.00    +0.000 NA
ATOM     19  C   UNL     1      50.512   6.884  15.871  0.00  0.00    +0.000 A 
ATOM     20  C   UNL     1      49.249   7.086  15.324  0.00  0.00    +0.000 A 
ATOM     21  C   UNL     1      48.237   6.188  15.682  0.00  0.00    +0.000 A 
BRANCH  16  23
ATOM     22  N   UNL     1      46.710   3.412  17.225  0.00  0.00    +0.000 NA
ATOM     23  C   UNL     1      47.523   4.178  16.916  0.00  0.00    +0.000 C 
ENDBRANCH  16  23
ENDBRANCH  15  20
ENDBRANCH  14  15
ENDBRANCH   1  14
TORSDOF 5
ENDMDL
MODEL 9
REMARK VINA RESULT:    -6.401      1.903      2.918
REMARK INTER + INTRA:          -9.134
REMARK INTER:                  -8.318
REMARK INTRA:                  -0.816
REMARK UNBOUND:                -0.862
REMARK  Name = 
REMARK  5 active torsions:
REMARK  status: ('A' for Active; 'I' for Inactive)
REMARK    1  A    between atoms: C_2  and  C_3
REMARK    2  A    between atoms: C_7  and  C_8
REMARK    3  A    between atoms: C_8  and  C_9
REMARK    4  A    between atoms: C_9  and  C_10
REMARK    5  A    between atoms: C_14  and  C_15
REMARK                            x       y       z     vdW  Elec       q    Type
REMARK                         _______ _______ _______ _____ _____    ______ ____
ROOT
ATOM      1  C   UNL     1      44.614   6.281  12.030  0.00  0.00    +0.000 A 
ATOM      2  C   UNL     1      43.433   5.775  12.566  0.00  0.00    +0.000 A 
ATOM      3  N   UNL     1      42.813   4.661  12.121  0.00  0.00    +0.000 NA
ATOM      4  C   UNL     1      43.404   3.999  11.100  0.00  0.00    +0.000 A 
ATOM      5  C   UNL     1      44.591   4.385  10.477  0.00  0.00    +0.000 A 
ATOM      6  C   UNL     1      45.185   5.554  10.979  0.00  0.00    +0.000 A 
ENDROOT
BRANCH   5   7
ATOM      7  C   UNL     1      45.200   3.622   9.367  0.00  0.00    +0.000 A 
ATOM      8  C   UNL     1      45.273   2.216   9.394  0.00  0.00    +0.000 A 
ATOM      9  C   UNL     1      45.845   1.494   8.340  0.00  0.00    +0.000 A 
ATOM     10  C   UNL     1      46.350   2.164   7.230  0.00  0.00    +0.000 A 
ATOM     11  C   UNL     1      46.280   3.550   7.188  0.00  0.00    +0.000 A 
ATOM     12  F   UNL     1      46.758   4.203   6.121  0.00  0.00    +0.000 F 
ATOM     13  C   UNL     1      45.722   4.273   8.236  0.00  0.00    +0.000 A 
ENDBRANCH   5   7
BRANCH   1  14
ATOM     14  C   UNL     1      45.254   7.514  12.623  0.00  0.00    +0.000 C 
BRANCH  14  15
ATOM     15  C   UNL     1      46.522   7.987  11.895  0.00  0.00    +0.000 C 
BRANCH  15  20
ATOM     16  C   UNL     1      48.956   7.100  14.689  0.00  0.00    +0.000 A 
ATOM     17  C   UNL     1      50.119   7.598  14.120  0.00  0.00    +0.000 A 
ATOM     18  N   UNL     1      50.160   8.224  12.919  0.00  0.00    +0.000 NA
ATOM     19  C   UNL     1      48.991   8.343  12.251  0.00  0.00    +0.000 A 
ATOM     20  C   UNL     1      47.773   7.865  12.723  0.00  0.00    +0.000 A 
ATOM     21  C   UNL     1      47.764   7.241  13.977  0.00  0.00    +0.000 A 
BRANCH  16  23
ATOM     22  N   UNL     1      49.022   5.924  16.994  0.00  0.00    +0.000 NA
ATOM     23  C   UNL     1      48.991   6.453  15.962  0.00  0.00    +0.000 C 
ENDBRANCH  16  23
ENDBRANCH  15  20
ENDBRANCH  14  15
ENDBRANCH   1  14
TORSDOF 5
ENDMDL
