MODEL 1
REMARK VINA RESULT:    -6.827      0.000      0.000
REMARK INTER + INTRA:          -9.016
REMARK INTER:                  -8.424
REMARK INTRA:                  -0.593
REMARK UNBOUND:                -0.593
REMARK  Name = 
REMARK  4 active torsions:
REMARK  status: ('A' for Active; 'I' for Inactive)
REMARK    1  A    between atoms: C_4  and  O_5
REMARK    2  A    between atoms: O_5  and  C_6
REMARK    3  A    between atoms: C_6  and  C_7
REMARK    4  A    between atoms: C_11  and  C_12
REMARK                            x       y       z     vdW  Elec       q    Type
REMARK                         _______ _______ _______ _____ _____    ______ ____
ROOT
ATOM      1  C   UNL     1      45.061   4.692  12.035  0.00  0.00    +0.000 A 
ATOM      2  C   UNL     1      45.317   3.601  12.862  0.00  0.00    +0.000 A 
ATOM      3  N   UNL     1      46.395   3.474  13.668  0.00  0.00    +0.000 NA
ATOM      4  C   UNL     1      47.285   4.492  13.654  0.00  0.00    +0.000 A 
ATOM      5  C   UNL     1      47.171   5.641  12.871  0.00  0.00    +0.000 A 
ATOM      6  C   UNL     1      46.036   5.704  12.045  0.00  0.00    +0.000 A 
ENDROOT
BRANCH   5   7
ATOM      7  C   UNL     1      48.153   6.734  12.931  0.00  0.00    +0.000 A 
ATOM      8  C   UNL     1      48.875   7.052  14.072  0.00  0.00    +0.000 A 
ATOM      9  N   UNL     1      49.809   8.028  14.148  0.00  0.00    +0.000 NA
ATOM     10  C   UNL     1      50.019   8.721  13.021  0.00  0.00    +0.000 A 
ATOM     11  N   UNL     1      49.388   8.528  11.855  0.00  0.00    +0.000 NA
ATOM     12  C   UNL     1      48.471   7.534  11.844  0.00  0.00    +0.000 A 
ENDBRANCH   5   7
BRANCH   1  13
ATOM     13  C   UNL     1      43.796   4.805  11.208  0.00  0.00    +0.000 C 
ATOM     14  C   UNL     1      42.505   5.197  11.926  0.00  0.00    +0.000 C 
ATOM     15  C   UNL     1      43.167   6.168  11.007  0.00  0.00    +0.000 C 
BRANCH  13  16
ATOM     16  O   UNL     1      43.546   3.753  10.248  0.00  0.00    +0.000 OA
BRANCH  16  20
ATOM     17  C   UNL     1      46.409   2.595   7.615  0.00  0.00    +0.000 A 
ATOM     18  C   UNL     1      45.998   3.921   7.649  0.00  0.00    +0.000 A 
ATOM     19  N   UNL     1      45.057   4.382   8.514  0.00  0.00    +0.000 NA
ATOM     20  C   UNL     1      44.546   3.446   9.344  0.00  0.00    +0.000 A 
ATOM     21  C   UNL     1      44.965   2.119   9.313  0.00  0.00    +0.000 A 
ATOM     22  N   UNL     1      45.902   1.662   8.450  0.00  0.00    +0.000 NA
ENDBRANCH  16  20
ENDBRANCH  13  16
ENDBRANCH   1  13
TORSDOF 4
ENDMDL
MODEL 2
REMARK VINA RESULT:    -6.698      2.253      6.345
REMARK INTER + INTRA:          -8.858
REMARK INTER:                  -8.485
REMARK INTRA:                  -0.372
REMARK UNBOUND:                -0.593
REMARK  Name = 
REMARK  4 active torsions:
REMARK  status: ('A' for Active; 'I' for Inactive)
REMARK    1  A    between atoms: C_4  and  O_5
REMARK    2  A    between atoms: O_5  and  C_6
REMARK    3  A    between atoms: C_6  and  C_7
REMARK    4  A    between atoms: C_11  and  C_12
REMARK                            x       y       z     vdW  Elec       q    Type
REMARK                         _______ _______ _______ _____ _____    ______ ____
ROOT
ATOM      1  C   UNL     1      45.040   4.523  10.919  0.00  0.00    +0.000 A 
ATOM      2  C   UNL     1      43.987   3.686  11.280  0.00  0.00    +0.000 A 
ATOM      3  N   UNL     1      43.610   2.577  10.605  0.00  0.00    +0.000 NA
ATOM      4  C   UNL     1      44.318   2.275   9.493  0.00  0.00    +0.000 A 
ATOM      5  C   UNL     1      45.388   3.024   9.000  0.00  0.00    +0.000 A 
ATOM      6  C   UNL     1      45.719   4.171   9.740  0.00  0.00    +0.000 A 
ENDROOT
BRANCH   5   7
ATOM      7  C   UNL     1      46.146   2.620   7.807  0.00  0.00    +0.000 A 
ATOM      8  C   UNL     1      46.836   1.421   7.707  0.00  0.00    +0.000 A 
ATOM      9  N   UNL     1      47.513   1.007   6.611  0.00  0.00    +0.000 NA
ATOM     10  C   UNL     1      47.499   1.847   5.568  0.00  0.00    +0.000 A 
ATOM     11  N   UNL     1      46.885   3.037   5.530  0.00  0.00    +0.000 NA
ATOM     12  C   UNL     1      46.222   3.389   6.655  0.00  0.00    +0.000 A 
ENDBRANCH   5   7
BRANCH   1  13
ATOM     13  C   UNL     1      45.456   5.713  11.760  0.00  0.00    +0.000 C 
ATOM     14  C   UNL     1      44.938   7.092  11.351  0.00  0.00    +0.000 C 
ATOM     15  C   UNL     1      44.408   6.437  12.582  0.00  0.00    +0.000 C 
BRANCH  13  16
ATOM     16  O   UNL     1      46.846   5.785  12.150  0.00  0.00    +0.000 OA
BRANCH  16  20
ATOM     17  C   UNL     1      47.815   4.489  15.873  0.00  0.00    +0.000 A 
ATOM     18  C   UNL     1      48.069   5.806  15.512  0.00  0.00    +0.000 A 
ATOM     19  N   UNL     1      47.757   6.312  14.290  0.00  0.00    +0.000 NA
ATOM     20  C   UNL     1      47.177   5.431  13.445  0.00  0.00    +0.000 A 
ATOM     21  C   UNL     1      46.917   4.114  13.811  0.00  0.00    +0.000 A 
ATOM     22  N   UNL     1      47.230   3.612  15.029  0.00  0.00    +0.000 NA
ENDBRANCH  16  20
ENDBRANCH  13  16
ENDBRANCH   1  13
TORSDOF 4
ENDMDL
MODEL 3
REMARK VINA RESULT:    -6.488      2.283      6.444
REMARK INTER + INTRA:          -8.599
REMARK INTER:                  -8.134
REMARK INTRA:                  -0.465
REMARK UNBOUND:                -0.593
REMARK  Name = 
REMARK  4 active torsions:
REMARK  status: ('A' for Active; 'I' for Inactive)
REMARK    1  A    between atoms: C_4  and  O_5
REMARK    2  A    between atoms: O_5  and  C_6
REMARK    3  A    between atoms: C_6  and  C_7
REMARK    4  A    between atoms: C_11  and  C_12
REMARK                            x       y       z     vdW  Elec       q    Type
REMARK                         _______ _______ _______ _____ _____    ______ ____
ROOT
ATOM      1  C   UNL     1      45.300   6.408  11.457  0.00  0.00    +0.000 A 
ATOM      2  C   UNL     1      43.920   6.373  11.642  0.00  0.00    +0.000 A 
ATOM      3  N   UNL     1      43.074   5.521  11.021  0.00  0.00    +0.000 NA
ATOM      4  C   UNL     1      43.627   4.645  10.151  0.00  0.00    +0.000 A 
ATOM      5  C   UNL     1      44.988   4.568   9.853  0.00  0.00    +0.000 A 
ATOM      6  C   UNL     1      45.810   5.491  10.522  0.00  0.00    +0.000 A 
ENDROOT
BRANCH   5   7
ATOM      7  C   UNL     1      45.535   3.564   8.929  0.00  0.00    +0.000 A 
ATOM      8  C   UNL     1      46.212   3.886   7.761  0.00  0.00    +0.000 A 
ATOM      9  N   UNL     1      46.756   2.986   6.910  0.00  0.00    +0.000 NA
ATOM     10  C   UNL     1      46.604   1.699   7.249  0.00  0.00    +0.000 A 
ATOM     11  N   UNL     1      45.966   1.247   8.338  0.00  0.00    +0.000 NA
ATOM     12  C   UNL     1      45.450   2.198   9.150  0.00  0.00    +0.000 A 
ENDBRANCH   5   7
BRANCH   1  13
ATOM     13  C   UNL     1      46.201   7.342  12.239  0.00  0.00    +0.000 C 
ATOM     14  C   UNL     1      46.275   8.802  11.792  0.00  0.00    +0.000 C 
ATOM     15  C   UNL     1      45.576   8.450  13.062  0.00  0.00    +0.000 C 
BRANCH  13  16
ATOM     16  O   UNL     1      47.514   6.847  12.584  0.00  0.00    +0.000 OA
BRANCH  16  20
ATOM     17  C   UNL     1      47.998   4.937  16.133  0.00  0.00    +0.000 A 
ATOM     18  C   UNL     1      47.170   4.390  15.161  0.00  0.00    +0.000 A 
ATOM     19  N   UNL     1      46.974   4.966  13.946  0.00  0.00    +0.000 NA
ATOM     20  C   UNL     1      47.649   6.120  13.753  0.00  0.00    +0.000 A 
ATOM     21  C   UNL     1      48.484   6.662  14.725  0.00  0.00    +0.000 A 
ATOM     22  N   UNL     1      48.677   6.087  15.935  0.00  0.00    +0.000 NA
ENDBRANCH  16  20
ENDBRANCH  13  16
ENDBRANCH   1  13
TORSDOF 4
ENDMDL
MODEL 4
REMARK VINA RESULT:    -6.154      2.009      3.287
REMARK INTER + INTRA:          -8.185
REMARK INTER:                  -8.493
REMARK INTRA:                   0.308
REMARK UNBOUND:                -0.593
REMARK  Name = 
REMARK  4 active torsions:
REMARK  status: ('A' for Active; 'I' for Inactive)
REMARK    1  A    between atoms: C_4  and  O_5
REMARK    2  A    between atoms: O_5  and  C_6
REMARK    3  A    between atoms: C_6  and  C_7
REMARK    4  A    between atoms: C_11  and  C_12
REMARK                            x       y       z     vdW  Elec       q    Type
REMARK                         _______ _______ _______ _____ _____    ______ ____
ROOT
ATOM      1  C   UNL     1      45.420   5.328  12.319  0.00  0.00    +0.000 A 
ATOM      2  C   UNL     1      46.220   6.268  11.675  0.00  0.00    +0.000 A 
ATOM      3  N   UNL     1      47.394   6.744  12.150  0.00  0.00    +0.000 NA
ATOM      4  C   UNL     1      47.803   6.263  13.346  0.00  0.00    +0.000 A 
ATOM      5  C   UNL     1      47.104   5.330  14.113  0.00  0.00    +0.000 A 
ATOM      6  C   UNL     1      45.886   4.887  13.569  0.00  0.00    +0.000 A 
ENDROOT
BRANCH   5   7
ATOM      7  C   UNL     1      47.622   4.813  15.387  0.00  0.00    +0.000 A 
ATOM      8  C   UNL     1      48.381   5.570  16.269  0.00  0.00    +0.000 A 
ATOM      9  N   UNL     1      48.842   5.133  17.464  0.00  0.00    +0.000 NA
ATOM     10  C   UNL     1      48.529   3.871  17.781  0.00  0.00    +0.000 A 
ATOM     11  N   UNL     1      47.815   3.027  17.023  0.00  0.00    +0.000 NA
ATOM     12  C   UNL     1      47.379   3.527  15.844  0.00  0.00    +0.000 A 
ENDBRANCH   5   7
BRANCH   1  13
ATOM     13  C   UNL     1      44.149   4.782  11.698  0.00  0.00    +0.000 C 
ATOM     14  C   UNL     1      42.836   5.007  12.447  0.00  0.00    +0.000 C 
ATOM     15  C   UNL     1      43.106   5.753  11.183  0.00  0.00    +0.000 C 
BRANCH  13  16
ATOM     16  O   UNL     1      44.207   3.441  11.161  0.00  0.00    +0.000 OA
BRANCH  16  20
ATOM     17  C   UNL     1      46.032   3.168   7.546  0.00  0.00    +0.000 A 
ATOM     18  C   UNL     1      45.868   2.030   8.325  0.00  0.00    +0.000 A 
ATOM     19  N   UNL     1      45.254   2.044   9.536  0.00  0.00    +0.000 NA
ATOM     20  C   UNL     1      44.811   3.259   9.930  0.00  0.00    +0.000 A 
ATOM     21  C   UNL     1      44.970   4.396   9.145  0.00  0.00    +0.000 A 
ATOM     22  N   UNL     1      45.583   4.380   7.939  0.00  0.00    +0.000 NA
ENDBRANCH  16  20
ENDBRANCH  13  16
ENDBRANCH   1  13
TORSDOF 4
ENDMDL
MODEL 5
REMARK VINA RESULT:    -6.116      3.118      6.573
REMARK INTER + INTRA:          -8.139
REMARK INTER:                  -7.740
REMARK INTRA:                  -0.399
REMARK UNBOUND:                -0.593
REMARK  Name = 
REMARK  4 active torsions:
REMARK  status: ('A' for Active; 'I' for Inactive)
REMARK    1  A    between atoms: C_4  and  O_5
REMARK    2  A    between atoms: O_5  and  C_6
REMARK    3  A    between atoms: C_6  and  C_7
REMARK    4  A    between atoms: C_11  and  C_12
REMARK                            x       y       z     vdW  Elec       q    Type
REMARK                         _______ _______ _______ _____ _____    ______ ____
ROOT
ATOM      1  C   UNL     1      45.060   6.427  11.489  0.00  0.00    +0.000 A 
ATOM      2  C   UNL     1      43.717   6.202  11.779  0.00  0.00    +0.000 A 
ATOM      3  N   UNL     1      42.962   5.216  11.244  0.00  0.00    +0.000 NA
ATOM      4  C   UNL     1      43.574   4.397  10.358  0.00  0.00    +0.000 A 
ATOM      5  C   UNL     1      44.907   4.506   9.960  0.00  0.00    +0.000 A 
ATOM      6  C   UNL     1      45.631   5.561  10.542  0.00  0.00    +0.000 A 
ENDROOT
BRANCH   5   7
ATOM      7  C   UNL     1      45.528   3.559   9.023  0.00  0.00    +0.000 A 
ATOM      8  C   UNL     1      45.485   2.181   9.186  0.00  0.00    +0.000 A 
ATOM      9  N   UNL     1      46.015   1.284   8.324  0.00  0.00    +0.000 NA
ATOM     10  C   UNL     1      46.625   1.801   7.249  0.00  0.00    +0.000 A 
ATOM     11  N   UNL     1      46.750   3.106   6.972  0.00  0.00    +0.000 NA
ATOM     12  C   UNL     1      46.193   3.950   7.871  0.00  0.00    +0.000 A 
ENDBRANCH   5   7
BRANCH   1  13
ATOM     13  C   UNL     1      45.869   7.509  12.177  0.00  0.00    +0.000 C 
ATOM     14  C   UNL     1      46.873   7.079  13.246  0.00  0.00    +0.000 C 
ATOM     15  C   UNL     1      47.362   7.582  11.930  0.00  0.00    +0.000 C 
BRANCH  13  16
ATOM     16  O   UNL     1      45.154   8.693  12.597  0.00  0.00    +0.000 OA
BRANCH  16  20
ATOM     17  C   UNL     1      44.664  11.748   9.969  0.00  0.00    +0.000 A 
ATOM     18  C   UNL     1      45.757  11.742  10.826  0.00  0.00    +0.000 A 
ATOM     19  N   UNL     1      45.993  10.746  11.719  0.00  0.00    +0.000 NA
ATOM     20  C   UNL     1      45.076   9.754  11.712  0.00  0.00    +0.000 A 
ATOM     21  C   UNL     1      43.985   9.758  10.848  0.00  0.00    +0.000 A 
ATOM     22  N   UNL     1      43.752  10.752   9.959  0.00  0.00    +0.000 NA
ENDBRANCH  16  20
ENDBRANCH  13  16
ENDBRANCH   1  13
TORSDOF 4
ENDMDL
MODEL 6
REMARK VINA RESULT:    -6.065      2.713      6.824
REMARK INTER + INTRA:          -8.076
REMARK INTER:                  -7.763
REMARK INTRA:                  -0.313
REMARK UNBOUND:                -0.593
REMARK  Name = 
REMARK  4 active torsions:
REMARK  status: ('A' for Active; 'I' for Inactive)
REMARK    1  A    between atoms: C_4  and  O_5
REMARK    2  A    between atoms: O_5  and  C_6
REMARK    3  A    between atoms: C_6  and  C_7
REMARK    4  A    between atoms: C_11  and  C_12
REMARK                            x       y       z     vdW  Elec       q    Type
REMARK                         _______ _______ _______ _____ _____    ______ ____
ROOT
ATOM      1  C   UNL     1      46.889   7.270  12.964  0.00  0.00    +0.000 A 
ATOM      2  C   UNL     1      45.979   8.323  12.906  0.00  0.00    +0.000 A 
ATOM      3  N   UNL     1      44.867   8.347  12.136  0.00  0.00    +0.000 NA
ATOM      4  C   UNL     1      44.641   7.258  11.366  0.00  0.00    +0.000 A 
ATOM      5  C   UNL     1      45.467   6.136  11.308  0.00  0.00    +0.000 A 
ATOM      6  C   UNL     1      46.612   6.181  12.121  0.00  0.00    +0.000 A 
ENDROOT
BRANCH   5   7
ATOM      7  C   UNL     1      45.143   4.963  10.481  0.00  0.00    +0.000 A 
ATOM      8  C   UNL     1      44.372   3.900  10.928  0.00  0.00    +0.000 A 
ATOM      9  N   UNL     1      44.029   2.826  10.180  0.00  0.00    +0.000 NA
ATOM     10  C   UNL     1      44.492   2.820   8.924  0.00  0.00    +0.000 A 
ATOM     11  N   UNL     1      45.253   3.772   8.367  0.00  0.00    +0.000 NA
ATOM     12  C   UNL     1      45.556   4.822   9.165  0.00  0.00    +0.000 A 
ENDBRANCH   5   7
BRANCH   1  13
ATOM     13  C   UNL     1      48.080   7.277  13.901  0.00  0.00    +0.000 C 
ATOM     14  C   UNL     1      49.208   8.267  13.615  0.00  0.00    +0.000 C 
ATOM     15  C   UNL     1      48.312   8.484  14.788  0.00  0.00    +0.000 C 
BRANCH  13  16
ATOM     16  O   UNL     1      48.615   5.991  14.288  0.00  0.00    +0.000 OA
BRANCH  16  20
ATOM     17  C   UNL     1      47.240   4.129  17.622  0.00  0.00    +0.000 A 
ATOM     18  C   UNL     1      48.126   5.192  17.740  0.00  0.00    +0.000 A 
ATOM     19  N   UNL     1      48.614   5.872  16.670  0.00  0.00    +0.000 NA
ATOM     20  C   UNL     1      48.170   5.431  15.472  0.00  0.00    +0.000 A 
ATOM     21  C   UNL     1      47.278   4.370  15.356  0.00  0.00    +0.000 A 
ATOM     22  N   UNL     1      46.793   3.694  16.424  0.00  0.00    +0.000 NA
ENDBRANCH  16  20
ENDBRANCH  13  16
ENDBRANCH   1  13
TORSDOF 4
ENDMDL
MODEL 7
REMARK VINA RESULT:    -5.692      2.739      7.263
REMARK INTER + INTRA:          -7.616
REMARK INTER:                  -7.152
REMARK INTRA:                  -0.465
REMARK UNBOUND:                -0.593
REMARK  Name = 
REMARK  4 active torsions:
REMARK  status: ('A' for Active; 'I' for Inactive)
REMARK    1  A    between atoms: C_4  and  O_5
REMARK    2  A    between atoms: O_5  and  C_6
REMARK    3  A    between atoms: C_6  and  C_7
REMARK    4  A    between atoms: C_11  and  C_12
REMARK                            x       y       z     vdW  Elec       q    Type
REMARK                         _______ _______ _______ _____ _____    ______ ____
ROOT
ATOM      1  C   UNL     1      47.546   7.663  12.293  0.00  0.00    +0.000 A 
ATOM      2  C   UNL     1      46.765   8.811  12.182  0.00  0.00    +0.000 A 
ATOM      3  N   UNL     1      45.428   8.824  11.978  0.00  0.00    +0.000 NA
ATOM      4  C   UNL     1      44.820   7.620  11.871  0.00  0.00    +0.000 A 
ATOM      5  C   UNL     1      45.471   6.388  11.948  0.00  0.00    +0.000 A 
ATOM      6  C   UNL     1      46.860   6.445  12.147  0.00  0.00    +0.000 A 
ENDROOT
BRANCH   5   7
ATOM      7  C   UNL     1      44.747   5.111  11.866  0.00  0.00    +0.000 A 
ATOM      8  C   UNL     1      44.422   4.342  12.975  0.00  0.00    +0.000 A 
ATOM      9  N   UNL     1      43.728   3.182  12.934  0.00  0.00    +0.000 NA
ATOM     10  C   UNL     1      43.349   2.773  11.716  0.00  0.00    +0.000 A 
ATOM     11  N   UNL     1      43.602   3.408  10.564  0.00  0.00    +0.000 NA
ATOM     12  C   UNL     1      44.295   4.565  10.674  0.00  0.00    +0.000 A 
ENDBRANCH   5   7
BRANCH   1  13
ATOM     13  C   UNL     1      49.031   7.717  12.592  0.00  0.00    +0.000 C 
ATOM     14  C   UNL     1      50.000   7.648  11.412  0.00  0.00    +0.000 C 
ATOM     15  C   UNL     1      49.826   8.930  12.154  0.00  0.00    +0.000 C 
BRANCH  13  16
ATOM     16  O   UNL     1      49.507   6.908  13.692  0.00  0.00    +0.000 OA
BRANCH  16  20
ATOM     17  C   UNL     1      48.525   7.753  17.538  0.00  0.00    +0.000 A 
ATOM     18  C   UNL     1      48.792   8.787  16.651  0.00  0.00    +0.000 A 
ATOM     19  N   UNL     1      49.111   8.579  15.347  0.00  0.00    +0.000 NA
ATOM     20  C   UNL     1      49.151   7.280  14.975  0.00  0.00    +0.000 A 
ATOM     21  C   UNL     1      48.875   6.246  15.864  0.00  0.00    +0.000 A 
ATOM     22  N   UNL     1      48.558   6.456  17.163  0.00  0.00    +0.000 NA
ENDBRANCH  16  20
ENDBRANCH  13  16
ENDBRANCH   1  13
TORSDOF 4
ENDMDL
MODEL 8
REMARK VINA RESULT:    -5.574      3.447      5.122
REMARK INTER + INTRA:          -7.470
REMARK INTER:                  -7.377
REMARK INTRA:                  -0.093
REMARK UNBOUND:                -0.593
REMARK  Name = 
REMARK  4 active torsions:
REMARK  status: ('A' for Active; 'I' for Inactive)
REMARK    1  A    between atoms: C_4  and  O_5
REMARK    2  A    between atoms: O_5  and  C_6
REMARK    3  A    between atoms: C_6  and  C_7
REMARK    4  A    between atoms: C_11  and  C_12
REMARK                            x       y       z     vdW  Elec       q    Type
REMARK                         _______ _______ _______ _____ _____    ______ ____
ROOT
ATOM      1  C   UNL     1      47.285   5.553  14.031  0.00  0.00    +0.000 A 
ATOM      2  C   UNL     1      47.131   4.230  13.627  0.00  0.00    +0.000 A 
ATOM      3  N   UNL     1      47.297   3.150  14.424  0.00  0.00    +0.000 NA
ATOM      4  C   UNL     1      47.646   3.393  15.708  0.00  0.00    +0.000 A 
ATOM      5  C   UNL     1      47.849   4.660  16.254  0.00  0.00    +0.000 A 
ATOM      6  C   UNL     1      47.674   5.738  15.369  0.00  0.00    +0.000 A 
ENDROOT
BRANCH   5   7
ATOM      7  C   UNL     1      48.186   4.862  17.671  0.00  0.00    +0.000 A 
ATOM      8  C   UNL     1      49.370   4.423  18.246  0.00  0.00    +0.000 A 
ATOM      9  N   UNL     1      49.723   4.624  19.536  0.00  0.00    +0.000 NA
ATOM     10  C   UNL     1      48.836   5.293  20.284  0.00  0.00    +0.000 A 
ATOM     11  N   UNL     1      47.654   5.764  19.863  0.00  0.00    +0.000 NA
ATOM     12  C   UNL     1      47.364   5.535  18.562  0.00  0.00    +0.000 A 
ENDBRANCH   5   7
BRANCH   1  13
ATOM     13  C   UNL     1      47.014   6.722  13.106  0.00  0.00    +0.000 C 
ATOM     14  C   UNL     1      47.951   7.928  13.185  0.00  0.00    +0.000 C 
ATOM     15  C   UNL     1      48.001   7.027  11.996  0.00  0.00    +0.000 C 
BRANCH  13  16
ATOM     16  O   UNL     1      45.640   7.152  12.979  0.00  0.00    +0.000 OA
BRANCH  16  20
ATOM     17  C   UNL     1      43.114   4.463  11.287  0.00  0.00    +0.000 A 
ATOM     18  C   UNL     1      42.964   4.805  12.624  0.00  0.00    +0.000 A 
ATOM     19  N   UNL     1      43.761   5.708  13.251  0.00  0.00    +0.000 NA
ATOM     20  C   UNL     1      44.721   6.252  12.470  0.00  0.00    +0.000 A 
ATOM     21  C   UNL     1      44.865   5.913  11.129  0.00  0.00    +0.000 A 
ATOM     22  N   UNL     1      44.070   5.012  10.506  0.00  0.00    +0.000 NA
ENDBRANCH  16  20
ENDBRANCH  13  16
ENDBRANCH   1  13
TORSDOF 4
ENDMDL
MODEL 9
REMARK VINA RESULT:    -5.297      2.004      6.478
REMARK INTER + INTRA:          -7.128
REMARK INTER:                  -7.773
REMARK INTRA:                   0.645
REMARK UNBOUND:                -0.593
REMARK  Name = 
REMARK  4 active torsions:
REMARK  status: ('A' for Active; 'I' for Inactive)
REMARK    1  A    between atoms: C_4  and  O_5
REMARK    2  A    between atoms: O_5  and  C_6
REMARK    3  A    between atoms: C_6  and  C_7
REMARK    4  A    between atoms: C_11  and  C_12
REMARK                            x       y       z     vdW  Elec       q    Type
REMARK                         _______ _______ _______ _____ _____    ______ ____
ROOT
ATOM      1  C   UNL     1      45.093   3.940  10.496  0.00  0.00    +0.000 A 
ATOM      2  C   UNL     1      45.312   5.272  10.156  0.00  0.00    +0.000 A 
ATOM      3  N   UNL     1      45.868   5.697   8.999  0.00  0.00    +0.000 NA
ATOM      4  C   UNL     1      46.240   4.739   8.118  0.00  0.00    +0.000 A 
ATOM      5  C   UNL     1      46.096   3.367   8.324  0.00  0.00    +0.000 A 
ATOM      6  C   UNL     1      45.524   2.993   9.552  0.00  0.00    +0.000 A 
ENDROOT
BRANCH   5   7
ATOM      7  C   UNL     1      46.480   2.375   7.309  0.00  0.00    +0.000 A 
ATOM      8  C   UNL     1      46.680   2.686   5.972  0.00  0.00    +0.000 A 
ATOM      9  N   UNL     1      47.068   1.803   5.023  0.00  0.00    +0.000 NA
ATOM     10  C   UNL     1      47.256   0.545   5.441  0.00  0.00    +0.000 A 
ATOM     11  N   UNL     1      47.090   0.105   6.696  0.00  0.00    +0.000 NA
ATOM     12  C   UNL     1      46.707   1.038   7.597  0.00  0.00    +0.000 A 
ENDBRANCH   5   7
BRANCH   1  13
ATOM     13  C   UNL     1      44.399   3.534  11.781  0.00  0.00    +0.000 C 
ATOM     14  C   UNL     1      42.937   3.943  11.963  0.00  0.00    +0.000 C 
ATOM     15  C   UNL     1      43.282   2.511  11.723  0.00  0.00    +0.000 C 
BRANCH  13  16
ATOM     16  O   UNL     1      45.137   3.718  13.010  0.00  0.00    +0.000 OA
BRANCH  16  20
ATOM     17  C   UNL     1      47.535   6.973  13.370  0.00  0.00    +0.000 A 
ATOM     18  C   UNL     1      46.165   7.138  13.210  0.00  0.00    +0.000 A 
ATOM     19  N   UNL     1      45.302   6.095  13.100  0.00  0.00    +0.000 NA
ATOM     20  C   UNL     1      45.880   4.875  13.156  0.00  0.00    +0.000 A 
ATOM     21  C   UNL     1      47.252   4.712  13.323  0.00  0.00    +0.000 A 
ATOM     22  N   UNL     1      48.110   5.753  13.432  0.00  0.00    +0.000 NA
ENDBRANCH  16  20
ENDBRANCH  13  16
ENDBRANCH   1  13
TORSDOF 4
ENDMDL
