MODEL 1
REMARK VINA RESULT:    -8.039      0.000      0.000
REMARK INTER + INTRA:         -12.064
REMARK INTER:                 -10.859
REMARK INTRA:                  -1.206
REMARK UNBOUND:                -1.206
REMARK  Name = 
REMARK  6 active torsions:
REMARK  status: ('A' for Active; 'I' for Inactive)
REMARK    1  A    between atoms: C_2  and  C_25
REMARK    2  A    between atoms: N_3  and  C_4
REMARK    3  A    between atoms: C_4  and  C_5
REMARK    4  A    between atoms: C_8  and  C_9
REMARK    5  A    between atoms: C_9  and  N_10
REMARK    6  A    between atoms: C_11  and  C_13
REMARK                            x       y       z     vdW  Elec       q    Type
REMARK                         _______ _______ _______ _____ _____    ______ ____
ROOT
ATOM      1  C   UNL     1      44.878   5.632  10.792  0.00  0.00    +0.000 A 
ATOM      2  C   UNL     1      44.257   6.138  11.943  0.00  0.00    +0.000 A 
ATOM      3  C   UNL     1      44.958   6.966  12.830  0.00  0.00    +0.000 A 
ATOM      4  C   UNL     1      46.290   7.320  12.573  0.00  0.00    +0.000 A 
ATOM      5  C   UNL     1      46.911   6.803  11.429  0.00  0.00    +0.000 A 
ATOM      6  C   UNL     1      46.212   5.979  10.542  0.00  0.00    +0.000 A 
ENDROOT
BRANCH   1   7
ATOM      7  C   UNL     1      44.137   4.720   9.854  0.00  0.00    +0.000 C 
BRANCH   7  10
ATOM      8  O   UNL     1      44.796   2.024   9.709  0.00  0.00    +0.000 OA
ATOM      9  C   UNL     1      45.244   2.784   8.854  0.00  0.00    +0.000 C 
ATOM     10  N   UNL     1      44.981   4.137   8.841  0.00  0.00    +0.000 N 
ATOM     11  H   UNL     1      45.393   4.705   8.107  0.00  0.00    +0.000 HD
BRANCH   9  12
ATOM     12  C   UNL     1      46.114   2.262   7.755  0.00  0.00    +0.000 A 
ATOM     13  C   UNL     1      46.338   3.062   6.654  0.00  0.00    +0.000 A 
ATOM     14  C   UNL     1      47.148   2.521   5.688  0.00  0.00    +0.000 A 
ATOM     15  N   UNL     1      47.694   1.293   5.787  0.00  0.00    +0.000 NA
ATOM     16  C   UNL     1      47.405   0.605   6.902  0.00  0.00    +0.000 A 
ATOM     17  N   UNL     1      46.635   1.023   7.916  0.00  0.00    +0.000 NA
ENDBRANCH   9  12
ENDBRANCH   7  10
ENDBRANCH   1   7
BRANCH   4  18
ATOM     18  C   UNL     1      47.063   8.215  13.514  0.00  0.00    +0.000 C 
BRANCH  18  19
ATOM     19  N   UNL     1      47.504   7.499  14.682  0.00  0.00    +0.000 N 
ATOM     20  C   UNL     1      48.738   6.897  14.735  0.00  0.00    +0.000 C 
ATOM     21  O   UNL     1      49.544   6.977  13.813  0.00  0.00    +0.000 OA
ATOM     22  H   UNL     1      46.782   7.192  15.324  0.00  0.00    +0.000 HD
BRANCH  20  23
ATOM     23  C   UNL     1      49.071   6.215  15.992  0.00  0.00    +0.000 A 
ATOM     24  C   UNL     1      50.125   6.670  16.773  0.00  0.00    +0.000 A 
ATOM     25  S   UNL     1      50.332   5.793  18.222  0.00  0.00    +0.000 S 
ATOM     26  C   UNL     1      49.053   4.739  17.832  0.00  0.00    +0.000 A 
ATOM     27  N   UNL     1      48.713   3.712  18.656  0.00  0.00    +0.000 NA
ATOM     28  C   UNL     1      47.749   2.974  18.219  0.00  0.00    +0.000 A 
ATOM     29  N   UNL     1      47.088   3.171  17.032  0.00  0.00    +0.000 N 
ATOM     30  C   UNL     1      47.375   4.213  16.186  0.00  0.00    +0.000 A 
ATOM     31  O   UNL     1      46.732   4.392  15.156  0.00  0.00    +0.000 OA
ATOM     32  C   UNL     1      48.467   5.065  16.623  0.00  0.00    +0.000 A 
ATOM     33  H   UNL     1      46.333   2.563  16.753  0.00  0.00    +0.000 HD
ENDBRANCH  20  23
ENDBRANCH  18  19
ENDBRANCH   4  18
TORSDOF 6
ENDMDL
MODEL 2
REMARK VINA RESULT:    -7.604      2.364      2.732
REMARK INTER + INTRA:         -11.477
REMARK INTER:                 -10.543
REMARK INTRA:                  -0.934
REMARK UNBOUND:                -1.206
REMARK  Name = 
REMARK  6 active torsions:
REMARK  status: ('A' for Active; 'I' for Inactive)
REMARK    1  A    between atoms: C_2  and  C_25
REMARK    2  A    between atoms: N_3  and  C_4
REMARK    3  A    between atoms: C_4  and  C_5
REMARK    4  A    between atoms: C_8  and  C_9
REMARK    5  A    between atoms: C_9  and  N_10
REMARK    6  A    between atoms: C_11  and  C_13
REMARK                            x       y       z     vdW  Elec       q    Type
REMARK                         _______ _______ _______ _____ _____    ______ ____
ROOT
ATOM      1  C   UNL     1      45.370   4.636  11.663  0.00  0.00    +0.000 A 
ATOM      2  C   UNL     1      45.832   4.150  12.894  0.00  0.00    +0.000 A 
ATOM      3  C   UNL     1      46.724   4.900  13.671  0.00  0.00    +0.000 A 
ATOM      4  C   UNL     1      47.159   6.161  13.240  0.00  0.00    +0.000 A 
ATOM      5  C   UNL     1      46.705   6.639  12.004  0.00  0.00    +0.000 A 
ATOM      6  C   UNL     1      45.812   5.892  11.229  0.00  0.00    +0.000 A 
ENDROOT
BRANCH   1   7
ATOM      7  C   UNL     1      44.434   3.820  10.814  0.00  0.00    +0.000 C 
BRANCH   7  10
ATOM      8  O   UNL     1      45.072   4.567   8.215  0.00  0.00    +0.000 OA
ATOM      9  C   UNL     1      45.393   3.444   8.598  0.00  0.00    +0.000 C 
ATOM     10  N   UNL     1      45.117   2.977   9.865  0.00  0.00    +0.000 N 
ATOM     11  H   UNL     1      45.405   2.035  10.108  0.00  0.00    +0.000 HD
BRANCH   9  12
ATOM     12  C   UNL     1      46.120   2.509   7.685  0.00  0.00    +0.000 A 
ATOM     13  C   UNL     1      46.483   2.960   6.432  0.00  0.00    +0.000 A 
ATOM     14  C   UNL     1      47.150   2.051   5.650  0.00  0.00    +0.000 A 
ATOM     15  N   UNL     1      47.437   0.798   6.057  0.00  0.00    +0.000 NA
ATOM     16  C   UNL     1      47.032   0.471   7.293  0.00  0.00    +0.000 A 
ATOM     17  N   UNL     1      46.380   1.266   8.153  0.00  0.00    +0.000 NA
ENDBRANCH   9  12
ENDBRANCH   7  10
ENDBRANCH   1   7
BRANCH   4  18
ATOM     18  C   UNL     1      48.118   6.988  14.065  0.00  0.00    +0.000 C 
BRANCH  18  19
ATOM     19  N   UNL     1      47.996   6.696  15.469  0.00  0.00    +0.000 N 
ATOM     20  C   UNL     1      49.091   6.397  16.241  0.00  0.00    +0.000 C 
ATOM     21  O   UNL     1      50.233   6.408  15.788  0.00  0.00    +0.000 OA
ATOM     22  H   UNL     1      47.077   6.417  15.794  0.00  0.00    +0.000 HD
BRANCH  20  23
ATOM     23  C   UNL     1      48.829   6.136  17.663  0.00  0.00    +0.000 A 
ATOM     24  C   UNL     1      49.088   4.883  18.200  0.00  0.00    +0.000 A 
ATOM     25  S   UNL     1      48.778   4.779  19.875  0.00  0.00    +0.000 S 
ATOM     26  C   UNL     1      48.236   6.392  19.931  0.00  0.00    +0.000 A 
ATOM     27  N   UNL     1      47.786   6.942  21.091  0.00  0.00    +0.000 NA
ATOM     28  C   UNL     1      47.375   8.160  20.980  0.00  0.00    +0.000 A 
ATOM     29  N   UNL     1      47.375   8.883  19.813  0.00  0.00    +0.000 N 
ATOM     30  C   UNL     1      47.850   8.379  18.627  0.00  0.00    +0.000 A 
ATOM     31  O   UNL     1      47.883   9.068  17.612  0.00  0.00    +0.000 OA
ATOM     32  C   UNL     1      48.308   7.004  18.693  0.00  0.00    +0.000 A 
ATOM     33  H   UNL     1      47.050   9.838  19.795  0.00  0.00    +0.000 HD
ENDBRANCH  20  23
ENDBRANCH  18  19
ENDBRANCH   4  18
TORSDOF 6
ENDMDL
MODEL 3
REMARK VINA RESULT:    -7.507      1.900      2.233
REMARK INTER + INTRA:         -11.346
REMARK INTER:                 -10.352
REMARK INTRA:                  -0.993
REMARK UNBOUND:                -1.206
REMARK  Name = 
REMARK  6 active torsions:
REMARK  status: ('A' for Active; 'I' for Inactive)
REMARK    1  A    between atoms: C_2  and  C_25
REMARK    2  A    between atoms: N_3  and  C_4
REMARK    3  A    between atoms: C_4  and  C_5
REMARK    4  A    between atoms: C_8  and  C_9
REMARK    5  A    between atoms: C_9  and  N_10
REMARK    6  A    between atoms: C_11  and  C_13
REMARK                            x       y       z     vdW  Elec       q    Type
REMARK                         _______ _______ _______ _____ _____    ______ ____
ROOT
ATOM      1  C   UNL     1      44.816   4.904  11.634  0.00  0.00    +0.000 A 
ATOM      2  C   UNL     1      44.226   6.135  11.311  0.00  0.00    +0.000 A 
ATOM      3  C   UNL     1      44.772   7.336  11.782  0.00  0.00    +0.000 A 
ATOM      4  C   UNL     1      45.931   7.332  12.570  0.00  0.00    +0.000 A 
ATOM      5  C   UNL     1      46.512   6.100  12.901  0.00  0.00    +0.000 A 
ATOM      6  C   UNL     1      45.969   4.901  12.429  0.00  0.00    +0.000 A 
ENDROOT
BRANCH   1   7
ATOM      7  C   UNL     1      44.215   3.612  11.153  0.00  0.00    +0.000 C 
BRANCH   7  10
ATOM      8  O   UNL     1      44.396   4.182   8.439  0.00  0.00    +0.000 OA
ATOM      9  C   UNL     1      45.081   3.269   8.894  0.00  0.00    +0.000 C 
ATOM     10  N   UNL     1      45.058   2.904  10.222  0.00  0.00    +0.000 N 
ATOM     11  H   UNL     1      45.645   2.133  10.524  0.00  0.00    +0.000 HD
BRANCH   9  12
ATOM     12  C   UNL     1      45.998   2.492   8.003  0.00  0.00    +0.000 A 
ATOM     13  C   UNL     1      46.612   3.147   6.956  0.00  0.00    +0.000 A 
ATOM     14  C   UNL     1      47.441   2.374   6.183  0.00  0.00    +0.000 A 
ATOM     15  N   UNL     1      47.652   1.063   6.413  0.00  0.00    +0.000 NA
ATOM     16  C   UNL     1      47.000   0.532   7.457  0.00  0.00    +0.000 A 
ATOM     17  N   UNL     1      46.170   1.179   8.287  0.00  0.00    +0.000 NA
ENDBRANCH   9  12
ENDBRANCH   7  10
ENDBRANCH   1   7
BRANCH   4  18
ATOM     18  C   UNL     1      46.540   8.616  13.085  0.00  0.00    +0.000 C 
BRANCH  18  19
ATOM     19  N   UNL     1      47.000   8.477  14.441  0.00  0.00    +0.000 N 
ATOM     20  C   UNL     1      48.105   9.152  14.901  0.00  0.00    +0.000 C 
ATOM     21  O   UNL     1      48.727   9.942  14.196  0.00  0.00    +0.000 OA
ATOM     22  H   UNL     1      46.687   7.654  14.943  0.00  0.00    +0.000 HD
BRANCH  20  23
ATOM     23  C   UNL     1      48.456   8.935  16.310  0.00  0.00    +0.000 A 
ATOM     24  C   UNL     1      48.431   9.996  17.205  0.00  0.00    +0.000 A 
ATOM     25  S   UNL     1      48.813   9.549  18.807  0.00  0.00    +0.000 S 
ATOM     26  C   UNL     1      49.077   7.930  18.351  0.00  0.00    +0.000 A 
ATOM     27  N   UNL     1      49.468   6.998  19.262  0.00  0.00    +0.000 NA
ATOM     28  C   UNL     1      49.663   5.821  18.771  0.00  0.00    +0.000 A 
ATOM     29  N   UNL     1      49.500   5.487  17.449  0.00  0.00    +0.000 N 
ATOM     30  C   UNL     1      49.077   6.386  16.503  0.00  0.00    +0.000 A 
ATOM     31  O   UNL     1      48.892   6.044  15.339  0.00  0.00    +0.000 OA
ATOM     32  C   UNL     1      48.859   7.732  17.000  0.00  0.00    +0.000 A 
ATOM     33  H   UNL     1      49.660   4.543  17.131  0.00  0.00    +0.000 HD
ENDBRANCH  20  23
ENDBRANCH  18  19
ENDBRANCH   4  18
TORSDOF 6
ENDMDL
MODEL 4
REMARK VINA RESULT:    -6.979      4.461      7.346
REMARK INTER + INTRA:         -10.633
REMARK INTER:                  -9.623
REMARK INTRA:                  -1.010
REMARK UNBOUND:                -1.206
REMARK  Name = 
REMARK  6 active torsions:
REMARK  status: ('A' for Active; 'I' for Inactive)
REMARK    1  A    between atoms: C_2  and  C_25
REMARK    2  A    between atoms: N_3  and  C_4
REMARK    3  A    between atoms: C_4  and  C_5
REMARK    4  A    between atoms: C_8  and  C_9
REMARK    5  A    between atoms: C_9  and  N_10
REMARK    6  A    between atoms: C_11  and  C_13
REMARK                            x       y       z     vdW  Elec       q    Type
REMARK                         _______ _______ _______ _____ _____    ______ ____
ROOT
ATOM      1  C   UNL     1      44.772   9.114  11.738  0.00  0.00    +0.000 A 
ATOM      2  C   UNL     1      45.773   9.043  12.716  0.00  0.00    +0.000 A 
ATOM      3  C   UNL     1      46.246   7.804  13.169  0.00  0.00    +0.000 A 
ATOM      4  C   UNL     1      45.739   6.610  12.638  0.00  0.00    +0.000 A 
ATOM      5  C   UNL     1      44.730   6.684  11.668  0.00  0.00    +0.000 A 
ATOM      6  C   UNL     1      44.259   7.920  11.215  0.00  0.00    +0.000 A 
ENDROOT
BRANCH   1   7
ATOM      7  C   UNL     1      44.243  10.442  11.272  0.00  0.00    +0.000 C 
BRANCH   7  10
ATOM      8  O   UNL     1      41.680  10.523  10.199  0.00  0.00    +0.000 OA
ATOM      9  C   UNL     1      41.838  10.868  11.368  0.00  0.00    +0.000 C 
ATOM     10  N   UNL     1      43.067  10.870  11.990  0.00  0.00    +0.000 N 
ATOM     11  H   UNL     1      43.123  11.176  12.956  0.00  0.00    +0.000 HD
BRANCH   9  12
ATOM     12  C   UNL     1      40.671  11.310  12.193  0.00  0.00    +0.000 A 
ATOM     13  C   UNL     1      39.405  10.924  11.805  0.00  0.00    +0.000 A 
ATOM     14  C   UNL     1      38.383  11.361  12.610  0.00  0.00    +0.000 A 
ATOM     15  N   UNL     1      38.582  12.120  13.706  0.00  0.00    +0.000 NA
ATOM     16  C   UNL     1      39.855  12.436  13.984  0.00  0.00    +0.000 A 
ATOM     17  N   UNL     1      40.937  12.068  13.283  0.00  0.00    +0.000 NA
ENDBRANCH   9  12
ENDBRANCH   7  10
ENDBRANCH   1   7
BRANCH   4  18
ATOM     18  C   UNL     1      46.238   5.263  13.108  0.00  0.00    +0.000 C 
BRANCH  18  19
ATOM     19  N   UNL     1      46.822   5.345  14.421  0.00  0.00    +0.000 N 
ATOM     20  C   UNL     1      47.351   4.242  15.045  0.00  0.00    +0.000 C 
ATOM     21  O   UNL     1      47.396   3.142  14.501  0.00  0.00    +0.000 OA
ATOM     22  H   UNL     1      46.558   6.146  14.985  0.00  0.00    +0.000 HD
BRANCH  20  23
ATOM     23  C   UNL     1      47.932   4.467  16.375  0.00  0.00    +0.000 A 
ATOM     24  C   UNL     1      47.528   3.690  17.452  0.00  0.00    +0.000 A 
ATOM     25  S   UNL     1      48.347   4.052  18.904  0.00  0.00    +0.000 S 
ATOM     26  C   UNL     1      49.234   5.299  18.157  0.00  0.00    +0.000 A 
ATOM     27  N   UNL     1      50.120   6.051  18.864  0.00  0.00    +0.000 NA
ATOM     28  C   UNL     1      50.696   6.981  18.179  0.00  0.00    +0.000 A 
ATOM     29  N   UNL     1      50.470   7.227  16.847  0.00  0.00    +0.000 N 
ATOM     30  C   UNL     1      49.610   6.472  16.088  0.00  0.00    +0.000 A 
ATOM     31  O   UNL     1      49.468   6.685  14.888  0.00  0.00    +0.000 OA
ATOM     32  C   UNL     1      48.922   5.422  16.816  0.00  0.00    +0.000 A 
ATOM     33  H   UNL     1      50.962   7.964  16.366  0.00  0.00    +0.000 HD
ENDBRANCH  20  23
ENDBRANCH  18  19
ENDBRANCH   4  18
TORSDOF 6
ENDMDL
MODEL 5
REMARK VINA RESULT:    -6.910      4.458      6.823
REMARK INTER + INTRA:         -10.540
REMARK INTER:                  -9.792
REMARK INTRA:                  -0.748
REMARK UNBOUND:                -1.206
REMARK  Name = 
REMARK  6 active torsions:
REMARK  status: ('A' for Active; 'I' for Inactive)
REMARK    1  A    between atoms: C_2  and  C_25
REMARK    2  A    between atoms: N_3  and  C_4
REMARK    3  A    between atoms: C_4  and  C_5
REMARK    4  A    between atoms: C_8  and  C_9
REMARK    5  A    between atoms: C_9  and  N_10
REMARK    6  A    between atoms: C_11  and  C_13
REMARK                            x       y       z     vdW  Elec       q    Type
REMARK                         _______ _______ _______ _____ _____    ______ ____
ROOT
ATOM      1  C   UNL     1      45.195   7.755  11.915  0.00  0.00    +0.000 A 
ATOM      2  C   UNL     1      46.454   7.689  12.528  0.00  0.00    +0.000 A 
ATOM      3  C   UNL     1      46.835   6.557  13.261  0.00  0.00    +0.000 A 
ATOM      4  C   UNL     1      45.970   5.461  13.381  0.00  0.00    +0.000 A 
ATOM      5  C   UNL     1      44.708   5.535  12.776  0.00  0.00    +0.000 A 
ATOM      6  C   UNL     1      44.329   6.662  12.042  0.00  0.00    +0.000 A 
ENDROOT
BRANCH   1   7
ATOM      7  C   UNL     1      44.774   8.980  11.151  0.00  0.00    +0.000 C 
BRANCH   7  10
ATOM      8  O   UNL     1      42.915  10.344   9.600  0.00  0.00    +0.000 OA
ATOM      9  C   UNL     1      42.703  10.231  10.805  0.00  0.00    +0.000 C 
ATOM     10  N   UNL     1      43.565   9.579  11.660  0.00  0.00    +0.000 N 
ATOM     11  H   UNL     1      43.328   9.532  12.646  0.00  0.00    +0.000 HD
BRANCH   9  12
ATOM     12  C   UNL     1      41.464  10.806  11.415  0.00  0.00    +0.000 A 
ATOM     13  C   UNL     1      40.239  10.344  10.982  0.00  0.00    +0.000 A 
ATOM     14  C   UNL     1      39.147  10.913  11.587  0.00  0.00    +0.000 A 
ATOM     15  N   UNL     1      39.244  11.863  12.538  0.00  0.00    +0.000 NA
ATOM     16  C   UNL     1      40.486  12.237  12.877  0.00  0.00    +0.000 A 
ATOM     17  N   UNL     1      41.628  11.756  12.366  0.00  0.00    +0.000 NA
ENDBRANCH   9  12
ENDBRANCH   7  10
ENDBRANCH   1   7
BRANCH   4  18
ATOM     18  C   UNL     1      46.363   4.228  14.163  0.00  0.00    +0.000 C 
BRANCH  18  19
ATOM     19  N   UNL     1      47.462   4.496  15.054  0.00  0.00    +0.000 N 
ATOM     20  C   UNL     1      47.463   4.047  16.352  0.00  0.00    +0.000 C 
ATOM     21  O   UNL     1      46.553   3.358  16.806  0.00  0.00    +0.000 OA
ATOM     22  H   UNL     1      48.070   5.267  14.802  0.00  0.00    +0.000 HD
BRANCH  20  23
ATOM     23  C   UNL     1      48.653   4.374  17.149  0.00  0.00    +0.000 A 
ATOM     24  C   UNL     1      48.734   5.590  17.813  0.00  0.00    +0.000 A 
ATOM     25  S   UNL     1      50.160   5.774  18.732  0.00  0.00    +0.000 S 
ATOM     26  C   UNL     1      50.744   4.255  18.232  0.00  0.00    +0.000 A 
ATOM     27  N   UNL     1      51.959   3.800  18.643  0.00  0.00    +0.000 NA
ATOM     28  C   UNL     1      52.288   2.650  18.160  0.00  0.00    +0.000 A 
ATOM     29  N   UNL     1      51.512   1.908  17.304  0.00  0.00    +0.000 N 
ATOM     30  C   UNL     1      50.268   2.313  16.891  0.00  0.00    +0.000 A 
ATOM     31  O   UNL     1      49.576   1.604  16.166  0.00  0.00    +0.000 OA
ATOM     32  C   UNL     1      49.855   3.611  17.391  0.00  0.00    +0.000 A 
ATOM     33  H   UNL     1      51.824   1.008  16.971  0.00  0.00    +0.000 HD
ENDBRANCH  20  23
ENDBRANCH  18  19
ENDBRANCH   4  18
TORSDOF 6
ENDMDL
MODEL 6
REMARK VINA RESULT:    -6.573      3.650      5.008
REMARK INTER + INTRA:         -10.084
REMARK INTER:                  -9.002
REMARK INTRA:                  -1.082
REMARK UNBOUND:                -1.206
REMARK  Name = 
REMARK  6 active torsions:
REMARK  status: ('A' for Active; 'I' for Inactive)
REMARK    1  A    between atoms: C_2  and  C_25
REMARK    2  A    between atoms: N_3  and  C_4
REMARK    3  A    between atoms: C_4  and  C_5
REMARK    4  A    between atoms: C_8  and  C_9
REMARK    5  A    between atoms: C_9  and  N_10
REMARK    6  A    between atoms: C_11  and  C_13
REMARK                            x       y       z     vdW  Elec       q    Type
REMARK                         _______ _______ _______ _____ _____    ______ ____
ROOT
ATOM      1  C   UNL     1      45.125   5.871  11.548  0.00  0.00    +0.000 A 
ATOM      2  C   UNL     1      44.704   7.206  11.462  0.00  0.00    +0.000 A 
ATOM      3  C   UNL     1      45.355   8.210  12.189  0.00  0.00    +0.000 A 
ATOM      4  C   UNL     1      46.454   7.903  13.004  0.00  0.00    +0.000 A 
ATOM      5  C   UNL     1      46.865   6.567  13.096  0.00  0.00    +0.000 A 
ATOM      6  C   UNL     1      46.217   5.564  12.369  0.00  0.00    +0.000 A 
ENDROOT
BRANCH   1   7
ATOM      7  C   UNL     1      44.409   4.787  10.791  0.00  0.00    +0.000 C 
BRANCH   7  10
ATOM      8  O   UNL     1      43.994   2.258   9.717  0.00  0.00    +0.000 OA
ATOM      9  C   UNL     1      44.917   2.938   9.276  0.00  0.00    +0.000 C 
ATOM     10  N   UNL     1      45.209   4.200   9.744  0.00  0.00    +0.000 N 
ATOM     11  H   UNL     1      45.993   4.700   9.337  0.00  0.00    +0.000 HD
BRANCH   9  12
ATOM     12  C   UNL     1      45.787   2.415   8.177  0.00  0.00    +0.000 A 
ATOM     13  C   UNL     1      46.054   3.235   7.100  0.00  0.00    +0.000 A 
ATOM     14  C   UNL     1      46.861   2.691   6.132  0.00  0.00    +0.000 A 
ATOM     15  N   UNL     1      47.365   1.444   6.209  0.00  0.00    +0.000 NA
ATOM     16  C   UNL     1      47.036   0.738   7.300  0.00  0.00    +0.000 A 
ATOM     17  N   UNL     1      46.264   1.155   8.313  0.00  0.00    +0.000 NA
ENDBRANCH   9  12
ENDBRANCH   7  10
ENDBRANCH   1   7
BRANCH   4  18
ATOM     18  C   UNL     1      47.174   8.972  13.793  0.00  0.00    +0.000 C 
BRANCH  18  19
ATOM     19  N   UNL     1      48.494   9.214  13.272  0.00  0.00    +0.000 N 
ATOM     20  C   UNL     1      48.712  10.097  12.242  0.00  0.00    +0.000 C 
ATOM     21  O   UNL     1      47.804  10.757  11.745  0.00  0.00    +0.000 OA
ATOM     22  H   UNL     1      49.193   8.507  13.465  0.00  0.00    +0.000 HD
BRANCH  20  23
ATOM     23  C   UNL     1      50.108  10.265  11.818  0.00  0.00    +0.000 A 
ATOM     24  C   UNL     1      50.664  11.534  11.742  0.00  0.00    +0.000 A 
ATOM     25  S   UNL     1      52.309  11.535  11.287  0.00  0.00    +0.000 S 
ATOM     26  C   UNL     1      52.321   9.840  11.124  0.00  0.00    +0.000 A 
ATOM     27  N   UNL     1      53.442   9.181  10.722  0.00  0.00    +0.000 NA
ATOM     28  C   UNL     1      53.298   7.904  10.610  0.00  0.00    +0.000 A 
ATOM     29  N   UNL     1      52.134   7.221  10.865  0.00  0.00    +0.000 N 
ATOM     30  C   UNL     1      50.991   7.841  11.303  0.00  0.00    +0.000 A 
ATOM     31  O   UNL     1      49.981   7.196  11.572  0.00  0.00    +0.000 OA
ATOM     32  C   UNL     1      51.093   9.283  11.430  0.00  0.00    +0.000 A 
ATOM     33  H   UNL     1      52.091   6.218  10.768  0.00  0.00    +0.000 HD
ENDBRANCH  20  23
ENDBRANCH  18  19
ENDBRANCH   4  18
TORSDOF 6
ENDMDL
MODEL 7
REMARK VINA RESULT:    -6.495      1.803      2.637
REMARK INTER + INTRA:          -9.979
REMARK INTER:                  -9.033
REMARK INTRA:                  -0.946
REMARK UNBOUND:                -1.206
REMARK  Name = 
REMARK  6 active torsions:
REMARK  status: ('A' for Active; 'I' for Inactive)
REMARK    1  A    between atoms: C_2  and  C_25
REMARK    2  A    between atoms: N_3  and  C_4
REMARK    3  A    between atoms: C_4  and  C_5
REMARK    4  A    between atoms: C_8  and  C_9
REMARK    5  A    between atoms: C_9  and  N_10
REMARK    6  A    between atoms: C_11  and  C_13
REMARK                            x       y       z     vdW  Elec       q    Type
REMARK                         _______ _______ _______ _____ _____    ______ ____
ROOT
ATOM      1  C   UNL     1      45.635   7.363  12.336  0.00  0.00    +0.000 A 
ATOM      2  C   UNL     1      46.677   6.517  12.739  0.00  0.00    +0.000 A 
ATOM      3  C   UNL     1      47.685   6.980  13.595  0.00  0.00    +0.000 A 
ATOM      4  C   UNL     1      47.661   8.295  14.080  0.00  0.00    +0.000 A 
ATOM      5  C   UNL     1      46.624   9.142  13.666  0.00  0.00    +0.000 A 
ATOM      6  C   UNL     1      45.617   8.680  12.814  0.00  0.00    +0.000 A 
ENDROOT
BRANCH   1   7
ATOM      7  C   UNL     1      44.568   6.877  11.395  0.00  0.00    +0.000 C 
BRANCH   7  10
ATOM      8  O   UNL     1      44.031   4.154  11.252  0.00  0.00    +0.000 OA
ATOM      9  C   UNL     1      44.742   4.658  10.385  0.00  0.00    +0.000 C 
ATOM     10  N   UNL     1      45.072   5.995  10.370  0.00  0.00    +0.000 N 
ATOM     11  H   UNL     1      45.671   6.340   9.627  0.00  0.00    +0.000 HD
BRANCH   9  12
ATOM     12  C   UNL     1      45.293   3.821   9.275  0.00  0.00    +0.000 A 
ATOM     13  C   UNL     1      45.225   2.448   9.387  0.00  0.00    +0.000 A 
ATOM     14  C   UNL     1      45.746   1.744   8.330  0.00  0.00    +0.000 A 
ATOM     15  N   UNL     1      46.295   2.335   7.250  0.00  0.00    +0.000 NA
ATOM     16  C   UNL     1      46.308   3.676   7.252  0.00  0.00    +0.000 A 
ATOM     17  N   UNL     1      45.829   4.474   8.216  0.00  0.00    +0.000 NA
ENDBRANCH   9  12
ENDBRANCH   7  10
ENDBRANCH   1   7
BRANCH   4  18
ATOM     18  C   UNL     1      48.735   8.813  15.008  0.00  0.00    +0.000 C 
BRANCH  18  19
ATOM     19  N   UNL     1      49.598   7.753  15.461  0.00  0.00    +0.000 N 
ATOM     20  C   UNL     1      49.473   7.208  16.715  0.00  0.00    +0.000 C 
ATOM     21  O   UNL     1      48.594   7.561  17.496  0.00  0.00    +0.000 OA
ATOM     22  H   UNL     1      50.475   7.640  14.964  0.00  0.00    +0.000 HD
BRANCH  20  23
ATOM     23  C   UNL     1      50.405   6.121  17.044  0.00  0.00    +0.000 A 
ATOM     24  C   UNL     1      51.734   6.405  17.326  0.00  0.00    +0.000 A 
ATOM     25  S   UNL     1      52.655   5.030  17.741  0.00  0.00    +0.000 S 
ATOM     26  C   UNL     1      51.321   3.998  17.507  0.00  0.00    +0.000 A 
ATOM     27  N   UNL     1      51.437   2.653  17.672  0.00  0.00    +0.000 NA
ATOM     28  C   UNL     1      50.356   1.991  17.429  0.00  0.00    +0.000 A 
ATOM     29  N   UNL     1      49.165   2.552  17.039  0.00  0.00    +0.000 N 
ATOM     30  C   UNL     1      48.995   3.905  16.892  0.00  0.00    +0.000 A 
ATOM     31  O   UNL     1      47.904   4.380  16.591  0.00  0.00    +0.000 OA
ATOM     32  C   UNL     1      50.187   4.696  17.136  0.00  0.00    +0.000 A 
ATOM     33  H   UNL     1      48.352   1.978  16.875  0.00  0.00    +0.000 HD
ENDBRANCH  20  23
ENDBRANCH  18  19
ENDBRANCH   4  18
TORSDOF 6
ENDMDL
MODEL 8
REMARK VINA RESULT:    -6.362      3.469      4.821
REMARK INTER + INTRA:          -9.799
REMARK INTER:                  -8.830
REMARK INTRA:                  -0.969
REMARK UNBOUND:                -1.206
REMARK  Name = 
REMARK  6 active torsions:
REMARK  status: ('A' for Active; 'I' for Inactive)
REMARK    1  A    between atoms: C_2  and  C_25
REMARK    2  A    between atoms: N_3  and  C_4
REMARK    3  A    between atoms: C_4  and  C_5
REMARK    4  A    between atoms: C_8  and  C_9
REMARK    5  A    between atoms: C_9  and  N_10
REMARK    6  A    between atoms: C_11  and  C_13
REMARK                            x       y       z     vdW  Elec       q    Type
REMARK                         _______ _______ _______ _____ _____    ______ ____
ROOT
ATOM      1  C   UNL     1      45.394   4.508  11.718  0.00  0.00    +0.000 A 
ATOM      2  C   UNL     1      45.853   5.797  11.412  0.00  0.00    +0.000 A 
ATOM      3  C   UNL     1      46.716   6.474  12.284  0.00  0.00    +0.000 A 
ATOM      4  C   UNL     1      47.152   5.868  13.470  0.00  0.00    +0.000 A 
ATOM      5  C   UNL     1      46.682   4.585  13.778  0.00  0.00    +0.000 A 
ATOM      6  C   UNL     1      45.823   3.907  12.908  0.00  0.00    +0.000 A 
ENDROOT
BRANCH   1   7
ATOM      7  C   UNL     1      44.445   3.791  10.798  0.00  0.00    +0.000 C 
BRANCH   7  10
ATOM      8  O   UNL     1      45.142   4.691   8.263  0.00  0.00    +0.000 OA
ATOM      9  C   UNL     1      45.422   3.535   8.572  0.00  0.00    +0.000 C 
ATOM     10  N   UNL     1      45.114   2.992   9.800  0.00  0.00    +0.000 N 
ATOM     11  H   UNL     1      45.368   2.027   9.982  0.00  0.00    +0.000 HD
BRANCH   9  12
ATOM     12  C   UNL     1      46.131   2.641   7.605  0.00  0.00    +0.000 A 
ATOM     13  C   UNL     1      46.438   1.355   7.998  0.00  0.00    +0.000 A 
ATOM     14  C   UNL     1      47.085   0.591   7.060  0.00  0.00    +0.000 A 
ATOM     15  N   UNL     1      47.411   1.049   5.835  0.00  0.00    +0.000 NA
ATOM     16  C   UNL     1      47.066   2.316   5.565  0.00  0.00    +0.000 A 
ATOM     17  N   UNL     1      46.429   3.159   6.390  0.00  0.00    +0.000 NA
ENDBRANCH   9  12
ENDBRANCH   7  10
ENDBRANCH   1   7
BRANCH   4  18
ATOM     18  C   UNL     1      48.087   6.579  14.422  0.00  0.00    +0.000 C 
BRANCH  18  19
ATOM     19  N   UNL     1      49.206   7.160  13.728  0.00  0.00    +0.000 N 
ATOM     20  C   UNL     1      49.299   8.514  13.517  0.00  0.00    +0.000 C 
ATOM     21  O   UNL     1      48.462   9.302  13.947  0.00  0.00    +0.000 OA
ATOM     22  H   UNL     1      49.748   6.536  13.141  0.00  0.00    +0.000 HD
BRANCH  20  23
ATOM     23  C   UNL     1      50.501   8.978  12.811  0.00  0.00    +0.000 A 
ATOM     24  C   UNL     1      50.383   9.655  11.605  0.00  0.00    +0.000 A 
ATOM     25  S   UNL     1      51.877  10.167  10.958  0.00  0.00    +0.000 S 
ATOM     26  C   UNL     1      52.740   9.454  12.241  0.00  0.00    +0.000 A 
ATOM     27  N   UNL     1      54.098   9.502  12.285  0.00  0.00    +0.000 NA
ATOM     28  C   UNL     1      54.620   8.892  13.296  0.00  0.00    +0.000 A 
ATOM     29  N   UNL     1      53.908   8.240  14.272  0.00  0.00    +0.000 N 
ATOM     30  C   UNL     1      52.536   8.196  14.284  0.00  0.00    +0.000 A 
ATOM     31  O   UNL     1      51.926   7.648  15.197  0.00  0.00    +0.000 OA
ATOM     32  C   UNL     1      51.898   8.852  13.158  0.00  0.00    +0.000 A 
ATOM     33  H   UNL     1      54.378   7.792  15.043  0.00  0.00    +0.000 HD
ENDBRANCH  20  23
ENDBRANCH  18  19
ENDBRANCH   4  18
TORSDOF 6
ENDMDL
MODEL 9
REMARK VINA RESULT:    -6.338      5.026      7.531
REMARK INTER + INTRA:          -9.767
REMARK INTER:                  -8.831
REMARK INTRA:                  -0.936
REMARK UNBOUND:                -1.206
REMARK  Name = 
REMARK  6 active torsions:
REMARK  status: ('A' for Active; 'I' for Inactive)
REMARK    1  A    between atoms: C_2  and  C_25
REMARK    2  A    between atoms: N_3  and  C_4
REMARK    3  A    between atoms: C_4  and  C_5
REMARK    4  A    between atoms: C_8  and  C_9
REMARK    5  A    between atoms: C_9  and  N_10
REMARK    6  A    between atoms: C_11  and  C_13
REMARK                            x       y       z     vdW  Elec       q    Type
REMARK                         _______ _______ _______ _____ _____    ______ ____
ROOT
ATOM      1  C   UNL     1      50.780   8.797  11.500  0.00  0.00    +0.000 A 
ATOM      2  C   UNL     1      50.246   7.529  11.768  0.00  0.00    +0.000 A 
ATOM      3  C   UNL     1      48.892   7.378  12.096  0.00  0.00    +0.000 A 
ATOM      4  C   UNL     1      48.041   8.491  12.146  0.00  0.00    +0.000 A 
ATOM      5  C   UNL     1      48.582   9.758  11.889  0.00  0.00    +0.000 A 
ATOM      6  C   UNL     1      49.931   9.909  11.559  0.00  0.00    +0.000 A 
ENDROOT
BRANCH   1   7
ATOM      7  C   UNL     1      52.239   8.965  11.175  0.00  0.00    +0.000 C 
BRANCH   7  10
ATOM      8  O   UNL     1      53.277   6.607  10.133  0.00  0.00    +0.000 OA
ATOM      9  C   UNL     1      53.048   7.538   9.364  0.00  0.00    +0.000 C 
ATOM     10  N   UNL     1      52.540   8.749   9.782  0.00  0.00    +0.000 N 
ATOM     11  H   UNL     1      52.385   9.475   9.090  0.00  0.00    +0.000 HD
BRANCH   9  12
ATOM     12  C   UNL     1      53.314   7.394   7.899  0.00  0.00    +0.000 A 
ATOM     13  C   UNL     1      52.978   8.438   7.062  0.00  0.00    +0.000 A 
ATOM     14  C   UNL     1      53.253   8.239   5.733  0.00  0.00    +0.000 A 
ATOM     15  N   UNL     1      53.810   7.107   5.257  0.00  0.00    +0.000 NA
ATOM     16  C   UNL     1      54.092   6.160   6.163  0.00  0.00    +0.000 A 
ATOM     17  N   UNL     1      53.878   6.235   7.484  0.00  0.00    +0.000 NA
ENDBRANCH   9  12
ENDBRANCH   7  10
ENDBRANCH   1   7
BRANCH   4  18
ATOM     18  C   UNL     1      46.577   8.349  12.494  0.00  0.00    +0.000 C 
BRANCH  18  19
ATOM     19  N   UNL     1      46.112   7.003  12.283  0.00  0.00    +0.000 N 
ATOM     20  C   UNL     1      44.929   6.743  11.634  0.00  0.00    +0.000 C 
ATOM     21  O   UNL     1      44.233   7.637  11.162  0.00  0.00    +0.000 OA
ATOM     22  H   UNL     1      46.509   6.288  12.882  0.00  0.00    +0.000 HD
BRANCH  20  23
ATOM     23  C   UNL     1      44.580   5.326  11.469  0.00  0.00    +0.000 A 
ATOM     24  C   UNL     1      43.876   4.662  12.464  0.00  0.00    +0.000 A 
ATOM     25  S   UNL     1      43.510   3.040  12.079  0.00  0.00    +0.000 S 
ATOM     26  C   UNL     1      44.327   3.152  10.589  0.00  0.00    +0.000 A 
ATOM     27  N   UNL     1      44.420   2.080   9.757  0.00  0.00    +0.000 NA
ATOM     28  C   UNL     1      45.096   2.299   8.679  0.00  0.00    +0.000 A 
ATOM     29  N   UNL     1      45.687   3.495   8.354  0.00  0.00    +0.000 N 
ATOM     30  C   UNL     1      45.591   4.610   9.148  0.00  0.00    +0.000 A 
ATOM     31  O   UNL     1      46.087   5.679   8.805  0.00  0.00    +0.000 OA
ATOM     32  C   UNL     1      44.855   4.414  10.383  0.00  0.00    +0.000 A 
ATOM     33  H   UNL     1      46.194   3.603   7.489  0.00  0.00    +0.000 HD
ENDBRANCH  20  23
ENDBRANCH  18  19
ENDBRANCH   4  18
TORSDOF 6
ENDMDL
