MODEL 1
REMARK VINA RESULT:    -7.855      0.000      0.000
REMARK INTER + INTRA:          -9.747
REMARK INTER:                  -9.233
REMARK INTRA:                  -0.514
REMARK UNBOUND:                -0.514
REMARK  Name = 
REMARK  3 active torsions:
REMARK  status: ('A' for Active; 'I' for Inactive)
REMARK    1  A    between atoms: N_6  and  C_7
REMARK    2  A    between atoms: C_7  and  C_8
REMARK    3  A    between atoms: C_13  and  C_14
REMARK                            x       y       z     vdW  Elec       q    Type
REMARK                         _______ _______ _______ _____ _____    ______ ____
ROOT
ATOM      1  C   UNL     1      44.770   4.095  11.334  0.00  0.00    +0.000 A 
ATOM      2  C   UNL     1      45.459   3.500  12.392  0.00  0.00    +0.000 A 
ATOM      3  C   UNL     1      46.198   4.290  13.263  0.00  0.00    +0.000 A 
ATOM      4  F   UNL     1      46.880   3.707  14.260  0.00  0.00    +0.000 F 
ATOM      5  C   UNL     1      46.255   5.671  13.118  0.00  0.00    +0.000 A 
ATOM      6  C   UNL     1      45.562   6.317  12.079  0.00  0.00    +0.000 A 
ATOM      7  C   UNL     1      44.823   5.498  11.192  0.00  0.00    +0.000 A 
ENDROOT
BRANCH   6   8
ATOM      8  C   UNL     1      45.600   7.789  11.924  0.00  0.00    +0.000 A 
ATOM      9  C   UNL     1      46.702   8.564  12.319  0.00  0.00    +0.000 A 
ATOM     10  C   UNL     1      46.697   9.951  12.162  0.00  0.00    +0.000 A 
ATOM     11  C   UNL     1      45.582  10.544  11.600  0.00  0.00    +0.000 A 
ATOM     12  N   UNL     1      44.496   9.854  11.204  0.00  0.00    +0.000 NA
ATOM     13  C   UNL     1      44.531   8.509  11.382  0.00  0.00    +0.000 A 
ENDBRANCH   6   8
BRANCH   1  14
ATOM     14  C   UNL     1      43.978   3.246  10.360  0.00  0.00    +0.000 C 
BRANCH  14  20
ATOM     15  F   UNL     1      47.966   2.500   5.534  0.00  0.00    +0.000 F 
ATOM     16  C   UNL     1      47.160   2.418   6.597  0.00  0.00    +0.000 A 
ATOM     17  C   UNL     1      46.456   3.497   7.064  0.00  0.00    +0.000 A 
ATOM     18  N   UNL     1      45.644   3.443   8.145  0.00  0.00    +0.000 NA
ATOM     19  C   UNL     1      45.535   2.257   8.770  0.00  0.00    +0.000 A 
ATOM     20  N   UNL     1      44.770   2.141   9.899  0.00  0.00    +0.000 N 
ATOM     21  N   UNL     1      46.171   1.145   8.368  0.00  0.00    +0.000 NA
ATOM     22  C   UNL     1      46.981   1.252   7.290  0.00  0.00    +0.000 A 
ATOM     23  H   UNL     1      44.598   1.196  10.203  0.00  0.00    +0.000 HD
ENDBRANCH  14  20
ENDBRANCH   1  14
TORSDOF 3
ENDMDL
MODEL 2
REMARK VINA RESULT:    -7.799      2.355      2.663
REMARK INTER + INTRA:          -9.681
REMARK INTER:                  -9.148
REMARK INTRA:                  -0.533
REMARK UNBOUND:                -0.514
REMARK  Name = 
REMARK  3 active torsions:
REMARK  status: ('A' for Active; 'I' for Inactive)
REMARK    1  A    between atoms: N_6  and  C_7
REMARK    2  A    between atoms: C_7  and  C_8
REMARK    3  A    between atoms: C_13  and  C_14
REMARK                            x       y       z     vdW  Elec       q    Type
REMARK                         _______ _______ _______ _____ _____    ______ ____
ROOT
ATOM      1  C   UNL     1      44.419   4.521  10.576  0.00  0.00    +0.000 A 
ATOM      2  C   UNL     1      43.355   4.574  11.478  0.00  0.00    +0.000 A 
ATOM      3  C   UNL     1      43.529   5.183  12.713  0.00  0.00    +0.000 A 
ATOM      4  F   UNL     1      42.509   5.205  13.584  0.00  0.00    +0.000 F 
ATOM      5  C   UNL     1      44.740   5.762  13.071  0.00  0.00    +0.000 A 
ATOM      6  C   UNL     1      45.836   5.751  12.189  0.00  0.00    +0.000 A 
ATOM      7  C   UNL     1      45.647   5.116  10.938  0.00  0.00    +0.000 A 
ENDROOT
BRANCH   6   8
ATOM      8  C   UNL     1      47.126   6.380  12.552  0.00  0.00    +0.000 A 
ATOM      9  C   UNL     1      47.800   7.270  11.702  0.00  0.00    +0.000 A 
ATOM     10  C   UNL     1      49.019   7.837  12.078  0.00  0.00    +0.000 A 
ATOM     11  C   UNL     1      49.544   7.505  13.313  0.00  0.00    +0.000 A 
ATOM     12  N   UNL     1      48.945   6.657  14.169  0.00  0.00    +0.000 NA
ATOM     13  C   UNL     1      47.766   6.117  13.767  0.00  0.00    +0.000 A 
ENDBRANCH   6   8
BRANCH   1  14
ATOM     14  C   UNL     1      44.255   3.840   9.232  0.00  0.00    +0.000 C 
BRANCH  14  20
ATOM     15  F   UNL     1      48.261   1.236   5.118  0.00  0.00    +0.000 F 
ATOM     16  C   UNL     1      47.433   1.574   6.111  0.00  0.00    +0.000 A 
ATOM     17  C   UNL     1      46.800   2.789   6.153  0.00  0.00    +0.000 A 
ATOM     18  N   UNL     1      45.969   3.160   7.153  0.00  0.00    +0.000 NA
ATOM     19  C   UNL     1      45.764   2.271   8.141  0.00  0.00    +0.000 A 
ATOM     20  N   UNL     1      44.973   2.597   9.209  0.00  0.00    +0.000 N 
ATOM     21  N   UNL     1      46.325   1.051   8.170  0.00  0.00    +0.000 NA
ATOM     22  C   UNL     1      47.159   0.731   7.153  0.00  0.00    +0.000 A 
ATOM     23  H   UNL     1      44.729   1.826   9.811  0.00  0.00    +0.000 HD
ENDBRANCH  14  20
ENDBRANCH   1  14
TORSDOF 3
ENDMDL
MODEL 3
REMARK VINA RESULT:    -7.709      1.232      1.674
REMARK INTER + INTRA:          -9.575
REMARK INTER:                  -9.016
REMARK INTRA:                  -0.559
REMARK UNBOUND:                -0.514
REMARK  Name = 
REMARK  3 active torsions:
REMARK  status: ('A' for Active; 'I' for Inactive)
REMARK    1  A    between atoms: N_6  and  C_7
REMARK    2  A    between atoms: C_7  and  C_8
REMARK    3  A    between atoms: C_13  and  C_14
REMARK                            x       y       z     vdW  Elec       q    Type
REMARK                         _______ _______ _______ _____ _____    ______ ____
ROOT
ATOM      1  C   UNL     1      45.106   4.624  11.263  0.00  0.00    +0.000 A 
ATOM      2  C   UNL     1      45.479   3.810  12.333  0.00  0.00    +0.000 A 
ATOM      3  C   UNL     1      46.368   4.289  13.286  0.00  0.00    +0.000 A 
ATOM      4  F   UNL     1      46.743   3.490  14.296  0.00  0.00    +0.000 F 
ATOM      5  C   UNL     1      46.886   5.576  13.211  0.00  0.00    +0.000 A 
ATOM      6  C   UNL     1      46.525   6.441  12.162  0.00  0.00    +0.000 A 
ATOM      7  C   UNL     1      45.627   5.933  11.192  0.00  0.00    +0.000 A 
ENDROOT
BRANCH   6   8
ATOM      8  C   UNL     1      47.057   7.820  12.079  0.00  0.00    +0.000 A 
ATOM      9  C   UNL     1      48.414   8.096  11.849  0.00  0.00    +0.000 A 
ATOM     10  C   UNL     1      48.877   9.411  11.785  0.00  0.00    +0.000 A 
ATOM     11  C   UNL     1      47.964  10.437  11.946  0.00  0.00    +0.000 A 
ATOM     12  N   UNL     1      46.653  10.235  12.171  0.00  0.00    +0.000 NA
ATOM     13  C   UNL     1      46.239   8.943  12.237  0.00  0.00    +0.000 A 
ENDBRANCH   6   8
BRANCH   1  14
ATOM     14  C   UNL     1      44.155   4.109  10.201  0.00  0.00    +0.000 C 
BRANCH  14  20
ATOM     15  F   UNL     1      47.676   0.846   6.114  0.00  0.00    +0.000 F 
ATOM     16  C   UNL     1      46.949   1.720   6.816  0.00  0.00    +0.000 A 
ATOM     17  C   UNL     1      46.417   1.411   8.041  0.00  0.00    +0.000 A 
ATOM     18  N   UNL     1      45.667   2.273   8.764  0.00  0.00    +0.000 NA
ATOM     19  C   UNL     1      45.454   3.492   8.236  0.00  0.00    +0.000 A 
ATOM     20  N   UNL     1      44.664   4.398   8.891  0.00  0.00    +0.000 N 
ATOM     21  N   UNL     1      45.955   3.887   7.054  0.00  0.00    +0.000 NA
ATOM     22  C   UNL     1      46.688   2.985   6.362  0.00  0.00    +0.000 A 
ATOM     23  H   UNL     1      44.697   5.336   8.523  0.00  0.00    +0.000 HD
ENDBRANCH  14  20
ENDBRANCH   1  14
TORSDOF 3
ENDMDL
MODEL 4
REMARK VINA RESULT:    -7.540      2.939      6.831
REMARK INTER + INTRA:          -9.376
REMARK INTER:                  -8.779
REMARK INTRA:                  -0.597
REMARK UNBOUND:                -0.514
REMARK  Name = 
REMARK  3 active torsions:
REMARK  status: ('A' for Active; 'I' for Inactive)
REMARK    1  A    between atoms: N_6  and  C_7
REMARK    2  A    between atoms: C_7  and  C_8
REMARK    3  A    between atoms: C_13  and  C_14
REMARK                            x       y       z     vdW  Elec       q    Type
REMARK                         _______ _______ _______ _____ _____    ______ ____
ROOT
ATOM      1  C   UNL     1      44.790   5.055  10.821  0.00  0.00    +0.000 A 
ATOM      2  C   UNL     1      43.913   4.214  11.508  0.00  0.00    +0.000 A 
ATOM      3  C   UNL     1      43.703   2.919  11.052  0.00  0.00    +0.000 A 
ATOM      4  F   UNL     1      42.837   2.127  11.702  0.00  0.00    +0.000 F 
ATOM      5  C   UNL     1      44.362   2.429   9.932  0.00  0.00    +0.000 A 
ATOM      6  C   UNL     1      45.269   3.233   9.218  0.00  0.00    +0.000 A 
ATOM      7  C   UNL     1      45.464   4.554   9.687  0.00  0.00    +0.000 A 
ENDROOT
BRANCH   6   8
ATOM      8  C   UNL     1      45.991   2.717   8.033  0.00  0.00    +0.000 A 
ATOM      9  C   UNL     1      46.222   3.497   6.889  0.00  0.00    +0.000 A 
ATOM     10  C   UNL     1      46.902   2.971   5.788  0.00  0.00    +0.000 A 
ATOM     11  C   UNL     1      47.348   1.664   5.855  0.00  0.00    +0.000 A 
ATOM     12  N   UNL     1      47.155   0.869   6.922  0.00  0.00    +0.000 NA
ATOM     13  C   UNL     1      46.482   1.409   7.971  0.00  0.00    +0.000 A 
ENDBRANCH   6   8
BRANCH   1  14
ATOM     14  C   UNL     1      45.014   6.479  11.290  0.00  0.00    +0.000 C 
BRANCH  14  20
ATOM     15  F   UNL     1      50.888   7.966  13.034  0.00  0.00    +0.000 F 
ATOM     16  C   UNL     1      49.613   7.586  12.900  0.00  0.00    +0.000 A 
ATOM     17  C   UNL     1      48.958   7.640  11.698  0.00  0.00    +0.000 A 
ATOM     18  N   UNL     1      47.665   7.273  11.540  0.00  0.00    +0.000 NA
ATOM     19  C   UNL     1      47.016   6.831  12.632  0.00  0.00    +0.000 A 
ATOM     20  N   UNL     1      45.693   6.489  12.555  0.00  0.00    +0.000 N 
ATOM     21  N   UNL     1      47.586   6.725  13.843  0.00  0.00    +0.000 NA
ATOM     22  C   UNL     1      48.877   7.115  13.953  0.00  0.00    +0.000 A 
ATOM     23  H   UNL     1      45.330   6.005  13.362  0.00  0.00    +0.000 HD
ENDBRANCH  14  20
ENDBRANCH   1  14
TORSDOF 3
ENDMDL
MODEL 5
REMARK VINA RESULT:    -7.477      3.619      7.248
REMARK INTER + INTRA:          -9.302
REMARK INTER:                  -8.872
REMARK INTRA:                  -0.430
REMARK UNBOUND:                -0.514
REMARK  Name = 
REMARK  3 active torsions:
REMARK  status: ('A' for Active; 'I' for Inactive)
REMARK    1  A    between atoms: N_6  and  C_7
REMARK    2  A    between atoms: C_7  and  C_8
REMARK    3  A    between atoms: C_13  and  C_14
REMARK                            x       y       z     vdW  Elec       q    Type
REMARK                         _______ _______ _______ _____ _____    ______ ____
ROOT
ATOM      1  C   UNL     1      45.120   4.951  12.798  0.00  0.00    +0.000 A 
ATOM      2  C   UNL     1      43.792   5.382  12.808  0.00  0.00    +0.000 A 
ATOM      3  C   UNL     1      43.010   5.230  11.671  0.00  0.00    +0.000 A 
ATOM      4  F   UNL     1      41.744   5.672  11.680  0.00  0.00    +0.000 F 
ATOM      5  C   UNL     1      43.514   4.637  10.519  0.00  0.00    +0.000 A 
ATOM      6  C   UNL     1      44.839   4.170  10.468  0.00  0.00    +0.000 A 
ATOM      7  C   UNL     1      45.628   4.343  11.630  0.00  0.00    +0.000 A 
ENDROOT
BRANCH   6   8
ATOM      8  C   UNL     1      45.383   3.521   9.252  0.00  0.00    +0.000 A 
ATOM      9  C   UNL     1      45.814   4.251   8.134  0.00  0.00    +0.000 A 
ATOM     10  C   UNL     1      46.314   3.601   7.004  0.00  0.00    +0.000 A 
ATOM     11  C   UNL     1      46.382   2.220   7.016  0.00  0.00    +0.000 A 
ATOM     12  N   UNL     1      45.982   1.468   8.058  0.00  0.00    +0.000 NA
ATOM     13  C   UNL     1      45.492   2.132   9.136  0.00  0.00    +0.000 A 
ENDBRANCH   6   8
BRANCH   1  14
ATOM     14  C   UNL     1      45.995   5.131  14.022  0.00  0.00    +0.000 C 
BRANCH  14  20
ATOM     15  F   UNL     1      50.242   3.477  18.379  0.00  0.00    +0.000 F 
ATOM     16  C   UNL     1      49.342   3.588  17.398  0.00  0.00    +0.000 A 
ATOM     17  C   UNL     1      48.789   4.792  17.046  0.00  0.00    +0.000 A 
ATOM     18  N   UNL     1      47.868   4.928  16.066  0.00  0.00    +0.000 NA
ATOM     19  C   UNL     1      47.497   3.812  15.414  0.00  0.00    +0.000 A 
ATOM     20  N   UNL     1      46.533   3.868  14.443  0.00  0.00    +0.000 N 
ATOM     21  N   UNL     1      48.002   2.596  15.677  0.00  0.00    +0.000 NA
ATOM     22  C   UNL     1      48.911   2.508  16.675  0.00  0.00    +0.000 A 
ATOM     23  H   UNL     1      46.439   3.033  13.886  0.00  0.00    +0.000 HD
ENDBRANCH  14  20
ENDBRANCH   1  14
TORSDOF 3
ENDMDL
MODEL 6
REMARK VINA RESULT:    -7.318      2.341      3.974
REMARK INTER + INTRA:          -9.116
REMARK INTER:                  -8.591
REMARK INTRA:                  -0.524
REMARK UNBOUND:                -0.514
REMARK  Name = 
REMARK  3 active torsions:
REMARK  status: ('A' for Active; 'I' for Inactive)
REMARK    1  A    between atoms: N_6  and  C_7
REMARK    2  A    between atoms: C_7  and  C_8
REMARK    3  A    between atoms: C_13  and  C_14
REMARK                            x       y       z     vdW  Elec       q    Type
REMARK                         _______ _______ _______ _____ _____    ______ ____
ROOT
ATOM      1  C   UNL     1      44.743   4.455  11.197  0.00  0.00    +0.000 A 
ATOM      2  C   UNL     1      44.746   5.807  10.850  0.00  0.00    +0.000 A 
ATOM      3  C   UNL     1      45.433   6.719  11.641  0.00  0.00    +0.000 A 
ATOM      4  F   UNL     1      45.407   8.019  11.316  0.00  0.00    +0.000 F 
ATOM      5  C   UNL     1      46.138   6.313  12.768  0.00  0.00    +0.000 A 
ATOM      6  C   UNL     1      46.180   4.960  13.146  0.00  0.00    +0.000 A 
ATOM      7  C   UNL     1      45.465   4.044  12.338  0.00  0.00    +0.000 A 
ENDROOT
BRANCH   6   8
ATOM      8  C   UNL     1      46.941   4.514  14.335  0.00  0.00    +0.000 A 
ATOM      9  C   UNL     1      47.376   5.400  15.333  0.00  0.00    +0.000 A 
ATOM     10  C   UNL     1      48.098   4.940  16.435  0.00  0.00    +0.000 A 
ATOM     11  C   UNL     1      48.369   3.587  16.525  0.00  0.00    +0.000 A 
ATOM     12  N   UNL     1      47.980   2.691  15.600  0.00  0.00    +0.000 NA
ATOM     13  C   UNL     1      47.289   3.174  14.536  0.00  0.00    +0.000 A 
ENDBRANCH   6   8
BRANCH   1  14
ATOM     14  C   UNL     1      43.979   3.448  10.359  0.00  0.00    +0.000 C 
BRANCH  14  20
ATOM     15  F   UNL     1      47.773   2.507   5.412  0.00  0.00    +0.000 F 
ATOM     16  C   UNL     1      47.030   2.476   6.522  0.00  0.00    +0.000 A 
ATOM     17  C   UNL     1      46.261   3.540   6.916  0.00  0.00    +0.000 A 
ATOM     18  N   UNL     1      45.511   3.538   8.042  0.00  0.00    +0.000 NA
ATOM     19  C   UNL     1      45.535   2.421   8.791  0.00  0.00    +0.000 A 
ATOM     20  N   UNL     1      44.838   2.367   9.969  0.00  0.00    +0.000 N 
ATOM     21  N   UNL     1      46.241   1.325   8.470  0.00  0.00    +0.000 NA
ATOM     22  C   UNL     1      46.985   1.380   7.341  0.00  0.00    +0.000 A 
ATOM     23  H   UNL     1      44.763   1.448  10.378  0.00  0.00    +0.000 HD
ENDBRANCH  14  20
ENDBRANCH   1  14
TORSDOF 3
ENDMDL
MODEL 7
REMARK VINA RESULT:    -6.987      3.685      7.195
REMARK INTER + INTRA:          -8.726
REMARK INTER:                  -8.256
REMARK INTRA:                  -0.470
REMARK UNBOUND:                -0.514
REMARK  Name = 
REMARK  3 active torsions:
REMARK  status: ('A' for Active; 'I' for Inactive)
REMARK    1  A    between atoms: N_6  and  C_7
REMARK    2  A    between atoms: C_7  and  C_8
REMARK    3  A    between atoms: C_13  and  C_14
REMARK                            x       y       z     vdW  Elec       q    Type
REMARK                         _______ _______ _______ _____ _____    ______ ____
ROOT
ATOM      1  C   UNL     1      47.454   7.094  13.219  0.00  0.00    +0.000 A 
ATOM      2  C   UNL     1      46.715   8.269  13.367  0.00  0.00    +0.000 A 
ATOM      3  C   UNL     1      45.556   8.451  12.624  0.00  0.00    +0.000 A 
ATOM      4  F   UNL     1      44.866   9.594  12.752  0.00  0.00    +0.000 F 
ATOM      5  C   UNL     1      45.100   7.478  11.744  0.00  0.00    +0.000 A 
ATOM      6  C   UNL     1      45.800   6.270  11.575  0.00  0.00    +0.000 A 
ATOM      7  C   UNL     1      46.986   6.104  12.330  0.00  0.00    +0.000 A 
ENDROOT
BRANCH   6   8
ATOM      8  C   UNL     1      45.315   5.218  10.652  0.00  0.00    +0.000 A 
ATOM      9  C   UNL     1      45.749   5.120   9.321  0.00  0.00    +0.000 A 
ATOM     10  C   UNL     1      45.263   4.117   8.481  0.00  0.00    +0.000 A 
ATOM     11  C   UNL     1      44.347   3.217   8.994  0.00  0.00    +0.000 A 
ATOM     12  N   UNL     1      43.893   3.262  10.260  0.00  0.00    +0.000 NA
ATOM     13  C   UNL     1      44.380   4.256  11.046  0.00  0.00    +0.000 A 
ENDBRANCH   6   8
BRANCH   1  14
ATOM     14  C   UNL     1      48.734   6.888  14.005  0.00  0.00    +0.000 C 
BRANCH  14  20
ATOM     15  F   UNL     1      46.893   2.260  17.870  0.00  0.00    +0.000 F 
ATOM     16  C   UNL     1      47.260   3.385  17.249  0.00  0.00    +0.000 A 
ATOM     17  C   UNL     1      47.584   3.412  15.918  0.00  0.00    +0.000 A 
ATOM     18  N   UNL     1      47.971   4.535  15.270  0.00  0.00    +0.000 NA
ATOM     19  C   UNL     1      48.026   5.670  15.991  0.00  0.00    +0.000 A 
ATOM     20  N   UNL     1      48.455   6.833  15.412  0.00  0.00    +0.000 N 
ATOM     21  N   UNL     1      47.706   5.739  17.293  0.00  0.00    +0.000 NA
ATOM     22  C   UNL     1      47.337   4.587  17.899  0.00  0.00    +0.000 A 
ATOM     23  H   UNL     1      48.301   7.665  15.961  0.00  0.00    +0.000 HD
ENDBRANCH  14  20
ENDBRANCH   1  14
TORSDOF 3
ENDMDL
MODEL 8
REMARK VINA RESULT:    -6.853      3.299      7.160
REMARK INTER + INTRA:          -8.569
REMARK INTER:                  -8.100
REMARK INTRA:                  -0.469
REMARK UNBOUND:                -0.514
REMARK  Name = 
REMARK  3 active torsions:
REMARK  status: ('A' for Active; 'I' for Inactive)
REMARK    1  A    between atoms: N_6  and  C_7
REMARK    2  A    between atoms: C_7  and  C_8
REMARK    3  A    between atoms: C_13  and  C_14
REMARK                            x       y       z     vdW  Elec       q    Type
REMARK                         _______ _______ _______ _____ _____    ______ ____
ROOT
ATOM      1  C   UNL     1      45.226   6.509  11.711  0.00  0.00    +0.000 A 
ATOM      2  C   UNL     1      43.863   6.442  12.008  0.00  0.00    +0.000 A 
ATOM      3  C   UNL     1      43.060   5.521  11.350  0.00  0.00    +0.000 A 
ATOM      4  F   UNL     1      41.747   5.482  11.622  0.00  0.00    +0.000 F 
ATOM      5  C   UNL     1      43.585   4.644  10.409  0.00  0.00    +0.000 A 
ATOM      6  C   UNL     1      44.954   4.660  10.091  0.00  0.00    +0.000 A 
ATOM      7  C   UNL     1      45.758   5.613  10.760  0.00  0.00    +0.000 A 
ENDROOT
BRANCH   6   8
ATOM      8  C   UNL     1      45.528   3.719   9.102  0.00  0.00    +0.000 A 
ATOM      9  C   UNL     1      46.158   4.150   7.924  0.00  0.00    +0.000 A 
ATOM     10  C   UNL     1      46.682   3.230   7.014  0.00  0.00    +0.000 A 
ATOM     11  C   UNL     1      46.571   1.883   7.304  0.00  0.00    +0.000 A 
ATOM     12  N   UNL     1      45.976   1.410   8.415  0.00  0.00    +0.000 NA
ATOM     13  C   UNL     1      45.470   2.333   9.273  0.00  0.00    +0.000 A 
ENDBRANCH   6   8
BRANCH   1  14
ATOM     14  C   UNL     1      46.114   7.525  12.402  0.00  0.00    +0.000 C 
BRANCH  14  20
ATOM     15  F   UNL     1      51.837   8.058  14.992  0.00  0.00    +0.000 F 
ATOM     16  C   UNL     1      50.585   7.777  14.619  0.00  0.00    +0.000 A 
ATOM     17  C   UNL     1      49.990   8.382  13.543  0.00  0.00    +0.000 A 
ATOM     18  N   UNL     1      48.721   8.125  13.154  0.00  0.00    +0.000 NA
ATOM     19  C   UNL     1      48.032   7.220  13.872  0.00  0.00    +0.000 A 
ATOM     20  N   UNL     1      46.726   6.946  13.564  0.00  0.00    +0.000 N 
ATOM     21  N   UNL     1      48.542   6.564  14.926  0.00  0.00    +0.000 NA
ATOM     22  C   UNL     1      49.811   6.864  15.284  0.00  0.00    +0.000 A 
ATOM     23  H   UNL     1      46.339   6.140  14.029  0.00  0.00    +0.000 HD
ENDBRANCH  14  20
ENDBRANCH   1  14
TORSDOF 3
ENDMDL
MODEL 9
REMARK VINA RESULT:    -6.502      4.073      6.519
REMARK INTER + INTRA:          -8.156
REMARK INTER:                  -7.595
REMARK INTRA:                  -0.561
REMARK UNBOUND:                -0.514
REMARK  Name = 
REMARK  3 active torsions:
REMARK  status: ('A' for Active; 'I' for Inactive)
REMARK    1  A    between atoms: N_6  and  C_7
REMARK    2  A    between atoms: C_7  and  C_8
REMARK    3  A    between atoms: C_13  and  C_14
REMARK                            x       y       z     vdW  Elec       q    Type
REMARK                         _______ _______ _______ _____ _____    ______ ____
ROOT
ATOM      1  C   UNL     1      45.901   4.813  12.879  0.00  0.00    +0.000 A 
ATOM      2  C   UNL     1      44.812   4.114  12.358  0.00  0.00    +0.000 A 
ATOM      3  C   UNL     1      43.816   4.800  11.675  0.00  0.00    +0.000 A 
ATOM      4  F   UNL     1      42.759   4.123  11.202  0.00  0.00    +0.000 F 
ATOM      5  C   UNL     1      43.886   6.173  11.480  0.00  0.00    +0.000 A 
ATOM      6  C   UNL     1      44.973   6.919  11.969  0.00  0.00    +0.000 A 
ATOM      7  C   UNL     1      45.974   6.207  12.674  0.00  0.00    +0.000 A 
ENDROOT
BRANCH   6   8
ATOM      8  C   UNL     1      45.068   8.380  11.753  0.00  0.00    +0.000 A 
ATOM      9  C   UNL     1      44.101   9.104  11.038  0.00  0.00    +0.000 A 
ATOM     10  C   UNL     1      44.230  10.481  10.850  0.00  0.00    +0.000 A 
ATOM     11  C   UNL     1      45.330  11.118  11.393  0.00  0.00    +0.000 A 
ATOM     12  N   UNL     1      46.290  10.477  12.086  0.00  0.00    +0.000 NA
ATOM     13  C   UNL     1      46.137   9.137  12.241  0.00  0.00    +0.000 A 
ENDBRANCH   6   8
BRANCH   1  14
ATOM     14  C   UNL     1      46.986   4.085  13.647  0.00  0.00    +0.000 C 
BRANCH  14  20
ATOM     15  F   UNL     1      49.374   6.146  19.106  0.00  0.00    +0.000 F 
ATOM     16  C   UNL     1      48.710   5.585  18.091  0.00  0.00    +0.000 A 
ATOM     17  C   UNL     1      49.052   5.807  16.783  0.00  0.00    +0.000 A 
ATOM     18  N   UNL     1      48.387   5.261  15.738  0.00  0.00    +0.000 NA
ATOM     19  C   UNL     1      47.346   4.459  16.026  0.00  0.00    +0.000 A 
ATOM     20  N   UNL     1      46.599   3.912  15.018  0.00  0.00    +0.000 N 
ATOM     21  N   UNL     1      46.956   4.170  17.278  0.00  0.00    +0.000 NA
ATOM     22  C   UNL     1      47.644   4.749  18.288  0.00  0.00    +0.000 A 
ATOM     23  H   UNL     1      45.956   3.192  15.307  0.00  0.00    +0.000 HD
ENDBRANCH  14  20
ENDBRANCH   1  14
TORSDOF 3
ENDMDL
