MODEL 1
REMARK VINA RESULT:    -7.619      0.000      0.000
REMARK INTER + INTRA:         -11.010
REMARK INTER:                 -10.736
REMARK INTRA:                  -0.274
REMARK UNBOUND:                -0.274
REMARK  Name = 
REMARK  7 active torsions:
REMARK  status: ('A' for Active; 'I' for Inactive)
REMARK    1  A    between atoms: C_2  and  C_4
REMARK    2  A    between atoms: C_7  and  O_8
REMARK    3  A    between atoms: O_8  and  C_9
REMARK    4  A    between atoms: C_9  and  C_10
REMARK    5  A    between atoms: C_11  and  C_12
REMARK    6  A    between atoms: C_16  and  C_17
REMARK    7  A    between atoms: C_17  and  C_18
REMARK                            x       y       z     vdW  Elec       q    Type
REMARK                         _______ _______ _______ _____ _____    ______ ____
ROOT
ATOM      1  C   UNL     1      43.773   3.998  11.256  0.00  0.00    +0.000 C 
ENDROOT
BRANCH   1   2
ATOM      2  C   UNL     1      44.715   4.613  12.243  0.00  0.00    +0.000 C 
ATOM      3  C   UNL     1      45.704   3.954  12.870  0.00  0.00    +0.000 C 
BRANCH   3   4
ATOM      4  C   UNL     1      46.589   4.580  13.862  0.00  0.00    +0.000 A 
ATOM      5  C   UNL     1      47.417   5.637  13.508  0.00  0.00    +0.000 A 
ATOM      6  C   UNL     1      48.241   6.194  14.483  0.00  0.00    +0.000 A 
ATOM      7  C   UNL     1      48.214   5.682  15.777  0.00  0.00    +0.000 A 
ATOM      8  C   UNL     1      47.353   4.627  16.061  0.00  0.00    +0.000 A 
ATOM      9  N   UNL     1      46.559   4.072  15.118  0.00  0.00    +0.000 NA
BRANCH   8  10
ATOM     10  C   UNL     1      47.244   4.042  17.445  0.00  0.00    +0.000 C 
BRANCH  10  11
ATOM     11  C   UNL     1      48.295   2.967  17.656  0.00  0.00    +0.000 C 
ATOM     12  C   UNL     1      49.768   3.389  17.762  0.00  0.00    +0.000 C 
ATOM     13  O   UNL     1      50.133   2.564  16.631  0.00  0.00    +0.000 OA
ATOM     14  C   UNL     1      48.747   2.256  16.372  0.00  0.00    +0.000 C 
ENDBRANCH  10  11
ENDBRANCH   8  10
ENDBRANCH   3   4
ENDBRANCH   1   2
BRANCH   1  15
ATOM     15  O   UNL     1      43.975   4.657  10.008  0.00  0.00    +0.000 OA
BRANCH  15  19
ATOM     16  C   UNL     1      46.537   2.547   7.680  0.00  0.00    +0.000 A 
ATOM     17  C   UNL     1      46.516   3.933   7.607  0.00  0.00    +0.000 A 
ATOM     18  N   UNL     1      45.672   4.689   8.357  0.00  0.00    +0.000 NA
ATOM     19  C   UNL     1      44.860   3.995   9.189  0.00  0.00    +0.000 A 
ATOM     20  C   UNL     1      44.887   2.606   9.264  0.00  0.00    +0.000 A 
ATOM     21  N   UNL     1      45.719   1.839   8.509  0.00  0.00    +0.000 NA
BRANCH  16  23
ATOM     22  N   UNL     1      48.560   2.475   6.357  0.00  0.00    +0.000 N 
ATOM     23  C   UNL     1      47.480   1.777   6.823  0.00  0.00    +0.000 C 
ATOM     24  O   UNL     1      47.306   0.595   6.556  0.00  0.00    +0.000 OA
ATOM     25  H   UNL     1      49.244   2.007   5.779  0.00  0.00    +0.000 HD
ATOM     26  H   UNL     1      48.680   3.450   6.606  0.00  0.00    +0.000 HD
ENDBRANCH  16  23
ENDBRANCH  15  19
ENDBRANCH   1  15
TORSDOF 7
ENDMDL
MODEL 2
REMARK VINA RESULT:    -7.550      1.307      1.754
REMARK INTER + INTRA:         -10.914
REMARK INTER:                 -10.366
REMARK INTRA:                  -0.547
REMARK UNBOUND:                -0.274
REMARK  Name = 
REMARK  7 active torsions:
REMARK  status: ('A' for Active; 'I' for Inactive)
REMARK    1  A    between atoms: C_2  and  C_4
REMARK    2  A    between atoms: C_7  and  O_8
REMARK    3  A    between atoms: O_8  and  C_9
REMARK    4  A    between atoms: C_9  and  C_10
REMARK    5  A    between atoms: C_11  and  C_12
REMARK    6  A    between atoms: C_16  and  C_17
REMARK    7  A    between atoms: C_17  and  C_18
REMARK                            x       y       z     vdW  Elec       q    Type
REMARK                         _______ _______ _______ _____ _____    ______ ____
ROOT
ATOM      1  C   UNL     1      43.505   2.752  11.443  0.00  0.00    +0.000 C 
ENDROOT
BRANCH   1   2
ATOM      2  C   UNL     1      44.588   3.279  12.331  0.00  0.00    +0.000 C 
ATOM      3  C   UNL     1      44.910   4.577  12.458  0.00  0.00    +0.000 C 
BRANCH   3   4
ATOM      4  C   UNL     1      46.005   5.057  13.312  0.00  0.00    +0.000 A 
ATOM      5  C   UNL     1      46.714   6.204  12.981  0.00  0.00    +0.000 A 
ATOM      6  C   UNL     1      47.746   6.617  13.819  0.00  0.00    +0.000 A 
ATOM      7  C   UNL     1      48.039   5.876  14.961  0.00  0.00    +0.000 A 
ATOM      8  C   UNL     1      47.281   4.743  15.235  0.00  0.00    +0.000 A 
ATOM      9  N   UNL     1      46.286   4.327  14.419  0.00  0.00    +0.000 NA
BRANCH   8  10
ATOM     10  C   UNL     1      47.516   3.909  16.467  0.00  0.00    +0.000 C 
BRANCH  10  11
ATOM     11  C   UNL     1      48.494   4.599  17.402  0.00  0.00    +0.000 C 
ATOM     12  C   UNL     1      49.340   3.735  18.350  0.00  0.00    +0.000 C 
ATOM     13  O   UNL     1      48.806   4.411  19.513  0.00  0.00    +0.000 OA
ATOM     14  C   UNL     1      47.867   5.140  18.694  0.00  0.00    +0.000 C 
ENDBRANCH  10  11
ENDBRANCH   8  10
ENDBRANCH   3   4
ENDBRANCH   1   2
BRANCH   1  15
ATOM     15  O   UNL     1      43.486   3.563  10.271  0.00  0.00    +0.000 OA
BRANCH  15  19
ATOM     16  C   UNL     1      46.406   2.770   7.573  0.00  0.00    +0.000 A 
ATOM     17  C   UNL     1      45.845   1.736   8.311  0.00  0.00    +0.000 A 
ATOM     18  N   UNL     1      44.870   1.946   9.233  0.00  0.00    +0.000 NA
ATOM     19  C   UNL     1      44.477   3.234   9.375  0.00  0.00    +0.000 A 
ATOM     20  C   UNL     1      45.039   4.267   8.632  0.00  0.00    +0.000 A 
ATOM     21  N   UNL     1      46.023   4.070   7.714  0.00  0.00    +0.000 NA
BRANCH  16  23
ATOM     22  N   UNL     1      47.357   3.097   5.373  0.00  0.00    +0.000 N 
ATOM     23  C   UNL     1      47.478   2.472   6.584  0.00  0.00    +0.000 C 
ATOM     24  O   UNL     1      48.413   1.723   6.836  0.00  0.00    +0.000 OA
ATOM     25  H   UNL     1      48.057   2.945   4.662  0.00  0.00    +0.000 HD
ATOM     26  H   UNL     1      46.576   3.720   5.200  0.00  0.00    +0.000 HD
ENDBRANCH  16  23
ENDBRANCH  15  19
ENDBRANCH   1  15
TORSDOF 7
ENDMDL
MODEL 3
REMARK VINA RESULT:    -6.998      3.509      5.645
REMARK INTER + INTRA:         -10.136
REMARK INTER:                  -9.299
REMARK INTRA:                  -0.836
REMARK UNBOUND:                -0.274
REMARK  Name = 
REMARK  7 active torsions:
REMARK  status: ('A' for Active; 'I' for Inactive)
REMARK    1  A    between atoms: C_2  and  C_4
REMARK    2  A    between atoms: C_7  and  O_8
REMARK    3  A    between atoms: O_8  and  C_9
REMARK    4  A    between atoms: C_9  and  C_10
REMARK    5  A    between atoms: C_11  and  C_12
REMARK    6  A    between atoms: C_16  and  C_17
REMARK    7  A    between atoms: C_17  and  C_18
REMARK                            x       y       z     vdW  Elec       q    Type
REMARK                         _______ _______ _______ _____ _____    ______ ____
ROOT
ATOM      1  C   UNL     1      44.138   4.042  11.299  0.00  0.00    +0.000 C 
ENDROOT
BRANCH   1   2
ATOM      2  C   UNL     1      44.644   5.388  11.713  0.00  0.00    +0.000 C 
ATOM      3  C   UNL     1      45.939   5.694  11.902  0.00  0.00    +0.000 C 
BRANCH   3   4
ATOM      4  C   UNL     1      46.399   7.017  12.345  0.00  0.00    +0.000 A 
ATOM      5  C   UNL     1      47.431   7.139  13.266  0.00  0.00    +0.000 A 
ATOM      6  C   UNL     1      47.828   8.414  13.659  0.00  0.00    +0.000 A 
ATOM      7  C   UNL     1      47.187   9.528  13.122  0.00  0.00    +0.000 A 
ATOM      8  C   UNL     1      46.167   9.330  12.198  0.00  0.00    +0.000 A 
ATOM      9  N   UNL     1      45.766   8.095  11.820  0.00  0.00    +0.000 NA
BRANCH   8  10
ATOM     10  C   UNL     1      45.449  10.485  11.549  0.00  0.00    +0.000 C 
BRANCH  10  11
ATOM     11  C   UNL     1      44.164  10.015  10.892  0.00  0.00    +0.000 C 
ATOM     12  C   UNL     1      43.785  10.593   9.520  0.00  0.00    +0.000 C 
ATOM     13  O   UNL     1      42.533  11.108  10.031  0.00  0.00    +0.000 OA
ATOM     14  C   UNL     1      42.899  10.737  11.378  0.00  0.00    +0.000 C 
ENDBRANCH  10  11
ENDBRANCH   8  10
ENDBRANCH   3   4
ENDBRANCH   1   2
BRANCH   1  15
ATOM     15  O   UNL     1      43.767   4.131   9.925  0.00  0.00    +0.000 OA
BRANCH  15  19
ATOM     16  C   UNL     1      46.543   2.409   7.523  0.00  0.00    +0.000 A 
ATOM     17  C   UNL     1      46.289   3.770   7.423  0.00  0.00    +0.000 A 
ATOM     18  N   UNL     1      45.364   4.397   8.197  0.00  0.00    +0.000 NA
ATOM     19  C   UNL     1      44.715   3.601   9.080  0.00  0.00    +0.000 A 
ATOM     20  C   UNL     1      44.975   2.238   9.181  0.00  0.00    +0.000 A 
ATOM     21  N   UNL     1      45.890   1.599   8.404  0.00  0.00    +0.000 NA
BRANCH  16  23
ATOM     22  N   UNL     1      48.674   2.539   6.387  0.00  0.00    +0.000 N 
ATOM     23  C   UNL     1      47.563   1.782   6.639  0.00  0.00    +0.000 C 
ATOM     24  O   UNL     1      47.423   0.660   6.170  0.00  0.00    +0.000 OA
ATOM     25  H   UNL     1      49.409   2.167   5.804  0.00  0.00    +0.000 HD
ATOM     26  H   UNL     1      48.764   3.461   6.801  0.00  0.00    +0.000 HD
ENDBRANCH  16  23
ENDBRANCH  15  19
ENDBRANCH   1  15
TORSDOF 7
ENDMDL
MODEL 4
REMARK VINA RESULT:    -6.959      2.225      3.690
REMARK INTER + INTRA:         -10.081
REMARK INTER:                  -9.258
REMARK INTRA:                  -0.823
REMARK UNBOUND:                -0.274
REMARK  Name = 
REMARK  7 active torsions:
REMARK  status: ('A' for Active; 'I' for Inactive)
REMARK    1  A    between atoms: C_2  and  C_4
REMARK    2  A    between atoms: C_7  and  O_8
REMARK    3  A    between atoms: O_8  and  C_9
REMARK    4  A    between atoms: C_9  and  C_10
REMARK    5  A    between atoms: C_11  and  C_12
REMARK    6  A    between atoms: C_16  and  C_17
REMARK    7  A    between atoms: C_17  and  C_18
REMARK                            x       y       z     vdW  Elec       q    Type
REMARK                         _______ _______ _______ _____ _____    ______ ____
ROOT
ATOM      1  C   UNL     1      44.075   4.369  11.131  0.00  0.00    +0.000 C 
ENDROOT
BRANCH   1   2
ATOM      2  C   UNL     1      45.103   4.928  12.064  0.00  0.00    +0.000 C 
ATOM      3  C   UNL     1      45.667   4.248  13.078  0.00  0.00    +0.000 C 
BRANCH   3   4
ATOM      4  C   UNL     1      46.646   4.840  13.999  0.00  0.00    +0.000 A 
ATOM      5  C   UNL     1      46.972   4.207  15.192  0.00  0.00    +0.000 A 
ATOM      6  C   UNL     1      47.902   4.809  16.035  0.00  0.00    +0.000 A 
ATOM      7  C   UNL     1      48.480   6.020  15.664  0.00  0.00    +0.000 A 
ATOM      8  C   UNL     1      48.112   6.592  14.451  0.00  0.00    +0.000 A 
ATOM      9  N   UNL     1      47.200   6.021  13.632  0.00  0.00    +0.000 NA
BRANCH   8  10
ATOM     10  C   UNL     1      48.718   7.883  13.967  0.00  0.00    +0.000 C 
BRANCH  10  11
ATOM     11  C   UNL     1      48.378   8.120  12.506  0.00  0.00    +0.000 C 
ATOM     12  C   UNL     1      49.490   8.598  11.560  0.00  0.00    +0.000 C 
ATOM     13  O   UNL     1      48.749   9.793  11.220  0.00  0.00    +0.000 OA
ATOM     14  C   UNL     1      47.746   9.488  12.212  0.00  0.00    +0.000 C 
ENDBRANCH  10  11
ENDBRANCH   8  10
ENDBRANCH   3   4
ENDBRANCH   1   2
BRANCH   1  15
ATOM     15  O   UNL     1      44.324   4.926   9.843  0.00  0.00    +0.000 OA
BRANCH  15  19
ATOM     16  C   UNL     1      46.571   2.395   7.611  0.00  0.00    +0.000 A 
ATOM     17  C   UNL     1      46.655   3.765   7.400  0.00  0.00    +0.000 A 
ATOM     18  N   UNL     1      45.919   4.657   8.113  0.00  0.00    +0.000 NA
ATOM     19  C   UNL     1      45.105   4.116   9.050  0.00  0.00    +0.000 A 
ATOM     20  C   UNL     1      45.026   2.744   9.262  0.00  0.00    +0.000 A 
ATOM     21  N   UNL     1      45.749   1.841   8.547  0.00  0.00    +0.000 NA
BRANCH  16  23
ATOM     22  N   UNL     1      48.543   2.007   6.264  0.00  0.00    +0.000 N 
ATOM     23  C   UNL     1      47.398   1.470   6.788  0.00  0.00    +0.000 C 
ATOM     24  O   UNL     1      47.082   0.304   6.596  0.00  0.00    +0.000 OA
ATOM     25  H   UNL     1      49.154   1.429   5.706  0.00  0.00    +0.000 HD
ATOM     26  H   UNL     1      48.781   2.974   6.452  0.00  0.00    +0.000 HD
ENDBRANCH  16  23
ENDBRANCH  15  19
ENDBRANCH   1  15
TORSDOF 7
ENDMDL
MODEL 5
REMARK VINA RESULT:    -6.639      3.183      4.802
REMARK INTER + INTRA:          -9.630
REMARK INTER:                  -9.083
REMARK INTRA:                  -0.547
REMARK UNBOUND:                -0.274
REMARK  Name = 
REMARK  7 active torsions:
REMARK  status: ('A' for Active; 'I' for Inactive)
REMARK    1  A    between atoms: C_2  and  C_4
REMARK    2  A    between atoms: C_7  and  O_8
REMARK    3  A    between atoms: O_8  and  C_9
REMARK    4  A    between atoms: C_9  and  C_10
REMARK    5  A    between atoms: C_11  and  C_12
REMARK    6  A    between atoms: C_16  and  C_17
REMARK    7  A    between atoms: C_17  and  C_18
REMARK                            x       y       z     vdW  Elec       q    Type
REMARK                         _______ _______ _______ _____ _____    ______ ____
ROOT
ATOM      1  C   UNL     1      43.538   4.860  10.614  0.00  0.00    +0.000 C 
ENDROOT
BRANCH   1   2
ATOM      2  C   UNL     1      44.654   5.253  11.531  0.00  0.00    +0.000 C 
ATOM      3  C   UNL     1      45.663   6.076  11.201  0.00  0.00    +0.000 C 
BRANCH   3   4
ATOM      4  C   UNL     1      46.763   6.411  12.115  0.00  0.00    +0.000 A 
ATOM      5  C   UNL     1      46.834   5.843  13.380  0.00  0.00    +0.000 A 
ATOM      6  C   UNL     1      47.893   6.196  14.212  0.00  0.00    +0.000 A 
ATOM      7  C   UNL     1      48.848   7.102  13.759  0.00  0.00    +0.000 A 
ATOM      8  C   UNL     1      48.718   7.624  12.477  0.00  0.00    +0.000 A 
ATOM      9  N   UNL     1      47.686   7.297  11.667  0.00  0.00    +0.000 NA
BRANCH   8  10
ATOM     10  C   UNL     1      49.729   8.583  11.905  0.00  0.00    +0.000 C 
BRANCH  10  11
ATOM     11  C   UNL     1      49.047   9.843  11.402  0.00  0.00    +0.000 C 
ATOM     12  C   UNL     1      49.920  10.996  10.885  0.00  0.00    +0.000 C 
ATOM     13  O   UNL     1      49.373  11.910  11.864  0.00  0.00    +0.000 OA
ATOM     14  C   UNL     1      48.650  10.836  12.504  0.00  0.00    +0.000 C 
ENDBRANCH  10  11
ENDBRANCH   8  10
ENDBRANCH   3   4
ENDBRANCH   1   2
BRANCH   1  15
ATOM     15  O   UNL     1      43.666   3.463  10.363  0.00  0.00    +0.000 OA
BRANCH  15  19
ATOM     16  C   UNL     1      46.281   2.778   7.342  0.00  0.00    +0.000 A 
ATOM     17  C   UNL     1      46.108   1.825   8.337  0.00  0.00    +0.000 A 
ATOM     18  N   UNL     1      45.252   2.007   9.377  0.00  0.00    +0.000 NA
ATOM     19  C   UNL     1      44.572   3.178   9.367  0.00  0.00    +0.000 A 
ATOM     20  C   UNL     1      44.745   4.128   8.366  0.00  0.00    +0.000 A 
ATOM     21  N   UNL     1      45.607   3.962   7.328  0.00  0.00    +0.000 NA
BRANCH  16  23
ATOM     22  N   UNL     1      48.368   1.821   6.578  0.00  0.00    +0.000 N 
ATOM     23  C   UNL     1      47.243   2.520   6.235  0.00  0.00    +0.000 C 
ATOM     24  O   UNL     1      47.041   2.902   5.090  0.00  0.00    +0.000 OA
ATOM     25  H   UNL     1      49.055   1.605   5.871  0.00  0.00    +0.000 HD
ATOM     26  H   UNL     1      48.499   1.510   7.534  0.00  0.00    +0.000 HD
ENDBRANCH  16  23
ENDBRANCH  15  19
ENDBRANCH   1  15
TORSDOF 7
ENDMDL
MODEL 6
REMARK VINA RESULT:    -6.589      3.021      4.353
REMARK INTER + INTRA:          -9.559
REMARK INTER:                  -8.642
REMARK INTRA:                  -0.917
REMARK UNBOUND:                -0.274
REMARK  Name = 
REMARK  7 active torsions:
REMARK  status: ('A' for Active; 'I' for Inactive)
REMARK    1  A    between atoms: C_2  and  C_4
REMARK    2  A    between atoms: C_7  and  O_8
REMARK    3  A    between atoms: O_8  and  C_9
REMARK    4  A    between atoms: C_9  and  C_10
REMARK    5  A    between atoms: C_11  and  C_12
REMARK    6  A    between atoms: C_16  and  C_17
REMARK    7  A    between atoms: C_17  and  C_18
REMARK                            x       y       z     vdW  Elec       q    Type
REMARK                         _______ _______ _______ _____ _____    ______ ____
ROOT
ATOM      1  C   UNL     1      47.112   8.078  12.247  0.00  0.00    +0.000 C 
ENDROOT
BRANCH   1   2
ATOM      2  C   UNL     1      47.981   7.569  13.353  0.00  0.00    +0.000 C 
ATOM      3  C   UNL     1      49.203   8.046  13.648  0.00  0.00    +0.000 C 
BRANCH   3   4
ATOM      4  C   UNL     1      50.046   7.497  14.718  0.00  0.00    +0.000 A 
ATOM      5  C   UNL     1      51.333   7.978  14.926  0.00  0.00    +0.000 A 
ATOM      6  C   UNL     1      52.095   7.423  15.950  0.00  0.00    +0.000 A 
ATOM      7  C   UNL     1      51.554   6.408  16.735  0.00  0.00    +0.000 A 
ATOM      8  C   UNL     1      50.256   5.982  16.474  0.00  0.00    +0.000 A 
ATOM      9  N   UNL     1      49.513   6.506  15.473  0.00  0.00    +0.000 NA
BRANCH   8  10
ATOM     10  C   UNL     1      49.591   4.912  17.300  0.00  0.00    +0.000 C 
BRANCH  10  11
ATOM     11  C   UNL     1      48.187   4.639  16.792  0.00  0.00    +0.000 C 
ATOM     12  C   UNL     1      47.045   4.523  17.813  0.00  0.00    +0.000 C 
ATOM     13  O   UNL     1      46.729   3.180  17.377  0.00  0.00    +0.000 OA
ATOM     14  C   UNL     1      47.887   3.159  16.514  0.00  0.00    +0.000 C 
ENDBRANCH  10  11
ENDBRANCH   8  10
ENDBRANCH   3   4
ENDBRANCH   1   2
BRANCH   1  15
ATOM     15  O   UNL     1      45.759   7.829  12.620  0.00  0.00    +0.000 OA
BRANCH  15  19
ATOM     16  C   UNL     1      44.339   4.209  11.474  0.00  0.00    +0.000 A 
ATOM     17  C   UNL     1      45.031   5.000  10.567  0.00  0.00    +0.000 A 
ATOM     18  N   UNL     1      45.520   6.225  10.895  0.00  0.00    +0.000 NA
ATOM     19  C   UNL     1      45.295   6.613  12.173  0.00  0.00    +0.000 A 
ATOM     20  C   UNL     1      44.605   5.816  13.080  0.00  0.00    +0.000 A 
ATOM     21  N   UNL     1      44.102   4.595  12.759  0.00  0.00    +0.000 NA
BRANCH  16  23
ATOM     22  N   UNL     1      44.429   2.330   9.953  0.00  0.00    +0.000 N 
ATOM     23  C   UNL     1      43.820   2.880  11.048  0.00  0.00    +0.000 C 
ATOM     24  O   UNL     1      42.913   2.311  11.639  0.00  0.00    +0.000 OA
ATOM     25  H   UNL     1      44.131   1.426   9.619  0.00  0.00    +0.000 HD
ATOM     26  H   UNL     1      45.186   2.824   9.492  0.00  0.00    +0.000 HD
ENDBRANCH  16  23
ENDBRANCH  15  19
ENDBRANCH   1  15
TORSDOF 7
ENDMDL
MODEL 7
REMARK VINA RESULT:    -6.574      2.906      9.100
REMARK INTER + INTRA:          -9.538
REMARK INTER:                  -8.987
REMARK INTRA:                  -0.551
REMARK UNBOUND:                -0.274
REMARK  Name = 
REMARK  7 active torsions:
REMARK  status: ('A' for Active; 'I' for Inactive)
REMARK    1  A    between atoms: C_2  and  C_4
REMARK    2  A    between atoms: C_7  and  O_8
REMARK    3  A    between atoms: O_8  and  C_9
REMARK    4  A    between atoms: C_9  and  C_10
REMARK    5  A    between atoms: C_11  and  C_12
REMARK    6  A    between atoms: C_16  and  C_17
REMARK    7  A    between atoms: C_17  and  C_18
REMARK                            x       y       z     vdW  Elec       q    Type
REMARK                         _______ _______ _______ _____ _____    ______ ____
ROOT
ATOM      1  C   UNL     1      46.749   7.787  12.344  0.00  0.00    +0.000 C 
ENDROOT
BRANCH   1   2
ATOM      2  C   UNL     1      46.523   6.544  11.542  0.00  0.00    +0.000 C 
ATOM      3  C   UNL     1      45.397   6.265  10.863  0.00  0.00    +0.000 C 
BRANCH   3   4
ATOM      4  C   UNL     1      45.194   5.017  10.116  0.00  0.00    +0.000 A 
ATOM      5  C   UNL     1      44.393   4.004  10.628  0.00  0.00    +0.000 A 
ATOM      6  C   UNL     1      44.235   2.838   9.885  0.00  0.00    +0.000 A 
ATOM      7  C   UNL     1      44.878   2.715   8.656  0.00  0.00    +0.000 A 
ATOM      8  C   UNL     1      45.657   3.774   8.202  0.00  0.00    +0.000 A 
ATOM      9  N   UNL     1      45.827   4.905   8.923  0.00  0.00    +0.000 NA
BRANCH   8  10
ATOM     10  C   UNL     1      46.356   3.729   6.868  0.00  0.00    +0.000 C 
BRANCH  10  11
ATOM     11  C   UNL     1      46.625   2.293   6.452  0.00  0.00    +0.000 C 
ATOM     12  C   UNL     1      47.958   1.647   6.860  0.00  0.00    +0.000 C 
ATOM     13  O   UNL     1      48.309   1.394   5.479  0.00  0.00    +0.000 OA
ATOM     14  C   UNL     1      47.157   2.133   5.021  0.00  0.00    +0.000 C 
ENDBRANCH  10  11
ENDBRANCH   8  10
ENDBRANCH   3   4
ENDBRANCH   1   2
BRANCH   1  15
ATOM     15  O   UNL     1      48.133   7.829  12.682  0.00  0.00    +0.000 OA
BRANCH  15  19
ATOM     16  C   UNL     1      48.789   7.484  16.668  0.00  0.00    +0.000 A 
ATOM     17  C   UNL     1      48.915   6.372  15.847  0.00  0.00    +0.000 A 
ATOM     18  N   UNL     1      48.698   6.429  14.507  0.00  0.00    +0.000 NA
ATOM     19  C   UNL     1      48.361   7.650  14.028  0.00  0.00    +0.000 A 
ATOM     20  C   UNL     1      48.241   8.763  14.852  0.00  0.00    +0.000 A 
ATOM     21  N   UNL     1      48.444   8.715  16.196  0.00  0.00    +0.000 NA
BRANCH  16  23
ATOM     22  N   UNL     1      47.985   6.860  18.863  0.00  0.00    +0.000 N 
ATOM     23  C   UNL     1      49.031   7.352  18.131  0.00  0.00    +0.000 C 
ATOM     24  O   UNL     1      50.097   7.657  18.649  0.00  0.00    +0.000 OA
ATOM     25  H   UNL     1      48.088   6.736  19.859  0.00  0.00    +0.000 HD
ATOM     26  H   UNL     1      47.118   6.607  18.401  0.00  0.00    +0.000 HD
ENDBRANCH  16  23
ENDBRANCH  15  19
ENDBRANCH   1  15
TORSDOF 7
ENDMDL
MODEL 8
REMARK VINA RESULT:    -6.524      3.290      8.560
REMARK INTER + INTRA:          -9.468
REMARK INTER:                  -9.316
REMARK INTRA:                  -0.152
REMARK UNBOUND:                -0.274
REMARK  Name = 
REMARK  7 active torsions:
REMARK  status: ('A' for Active; 'I' for Inactive)
REMARK    1  A    between atoms: C_2  and  C_4
REMARK    2  A    between atoms: C_7  and  O_8
REMARK    3  A    between atoms: O_8  and  C_9
REMARK    4  A    between atoms: C_9  and  C_10
REMARK    5  A    between atoms: C_11  and  C_12
REMARK    6  A    between atoms: C_16  and  C_17
REMARK    7  A    between atoms: C_17  and  C_18
REMARK                            x       y       z     vdW  Elec       q    Type
REMARK                         _______ _______ _______ _____ _____    ______ ____
ROOT
ATOM      1  C   UNL     1      48.175   3.726  16.907  0.00  0.00    +0.000 C 
ENDROOT
BRANCH   1   2
ATOM      2  C   UNL     1      47.472   4.582  15.901  0.00  0.00    +0.000 C 
ATOM      3  C   UNL     1      47.191   4.208  14.641  0.00  0.00    +0.000 C 
BRANCH   3   4
ATOM      4  C   UNL     1      46.532   5.088  13.667  0.00  0.00    +0.000 A 
ATOM      5  C   UNL     1      47.258   6.042  12.965  0.00  0.00    +0.000 A 
ATOM      6  C   UNL     1      46.587   6.855  12.056  0.00  0.00    +0.000 A 
ATOM      7  C   UNL     1      45.217   6.694  11.873  0.00  0.00    +0.000 A 
ATOM      8  C   UNL     1      44.556   5.713  12.604  0.00  0.00    +0.000 A 
ATOM      9  N   UNL     1      45.197   4.927  13.498  0.00  0.00    +0.000 NA
BRANCH   8  10
ATOM     10  C   UNL     1      43.081   5.457  12.436  0.00  0.00    +0.000 C 
BRANCH  10  11
ATOM     11  C   UNL     1      42.841   4.357  11.417  0.00  0.00    +0.000 C 
ATOM     12  C   UNL     1      43.365   2.945  11.722  0.00  0.00    +0.000 C 
ATOM     13  O   UNL     1      44.176   2.939  10.523  0.00  0.00    +0.000 OA
ATOM     14  C   UNL     1      43.855   4.323  10.265  0.00  0.00    +0.000 C 
ENDBRANCH  10  11
ENDBRANCH   8  10
ENDBRANCH   3   4
ENDBRANCH   1   2
BRANCH   1  15
ATOM     15  O   UNL     1      49.428   4.343  17.189  0.00  0.00    +0.000 OA
BRANCH  15  19
ATOM     16  C   UNL     1      52.300   1.527  17.698  0.00  0.00    +0.000 A 
ATOM     17  C   UNL     1      52.578   2.859  17.979  0.00  0.00    +0.000 A 
ATOM     18  N   UNL     1      51.656   3.844  17.818  0.00  0.00    +0.000 NA
ATOM     19  C   UNL     1      50.444   3.433  17.374  0.00  0.00    +0.000 A 
ATOM     20  C   UNL     1      50.168   2.099  17.098  0.00  0.00    +0.000 A 
ATOM     21  N   UNL     1      51.086   1.107  17.244  0.00  0.00    +0.000 NA
BRANCH  16  23
ATOM     22  N   UNL     1      52.958  -0.658  18.501  0.00  0.00    +0.000 N 
ATOM     23  C   UNL     1      53.359   0.498  17.887  0.00  0.00    +0.000 C 
ATOM     24  O   UNL     1      54.512   0.668  17.515  0.00  0.00    +0.000 OA
ATOM     25  H   UNL     1      53.626  -1.400  18.649  0.00  0.00    +0.000 HD
ATOM     26  H   UNL     1      51.992  -0.771  18.787  0.00  0.00    +0.000 HD
ENDBRANCH  16  23
ENDBRANCH  15  19
ENDBRANCH   1  15
TORSDOF 7
ENDMDL
MODEL 9
REMARK VINA RESULT:    -6.404      2.635      8.880
REMARK INTER + INTRA:          -9.298
REMARK INTER:                  -8.977
REMARK INTRA:                  -0.321
REMARK UNBOUND:                -0.274
REMARK  Name = 
REMARK  7 active torsions:
REMARK  status: ('A' for Active; 'I' for Inactive)
REMARK    1  A    between atoms: C_2  and  C_4
REMARK    2  A    between atoms: C_7  and  O_8
REMARK    3  A    between atoms: O_8  and  C_9
REMARK    4  A    between atoms: C_9  and  C_10
REMARK    5  A    between atoms: C_11  and  C_12
REMARK    6  A    between atoms: C_16  and  C_17
REMARK    7  A    between atoms: C_17  and  C_18
REMARK                            x       y       z     vdW  Elec       q    Type
REMARK                         _______ _______ _______ _____ _____    ______ ____
ROOT
ATOM      1  C   UNL     1      48.029   7.438  14.106  0.00  0.00    +0.000 C 
ENDROOT
BRANCH   1   2
ATOM      2  C   UNL     1      46.832   6.912  13.379  0.00  0.00    +0.000 C 
ATOM      3  C   UNL     1      46.418   5.634  13.409  0.00  0.00    +0.000 C 
BRANCH   3   4
ATOM      4  C   UNL     1      45.258   5.143  12.653  0.00  0.00    +0.000 A 
ATOM      5  C   UNL     1      43.975   5.579  12.957  0.00  0.00    +0.000 A 
ATOM      6  C   UNL     1      42.908   5.081  12.214  0.00  0.00    +0.000 A 
ATOM      7  C   UNL     1      43.150   4.167  11.193  0.00  0.00    +0.000 A 
ATOM      8  C   UNL     1      44.463   3.782  10.939  0.00  0.00    +0.000 A 
ATOM      9  N   UNL     1      45.504   4.250  11.663  0.00  0.00    +0.000 NA
BRANCH   8  10
ATOM     10  C   UNL     1      44.807   2.823   9.830  0.00  0.00    +0.000 C 
BRANCH  10  11
ATOM     11  C   UNL     1      44.894   3.551   8.500  0.00  0.00    +0.000 C 
ATOM     12  C   UNL     1      45.902   3.053   7.453  0.00  0.00    +0.000 C 
ATOM     13  O   UNL     1      46.571   4.336   7.422  0.00  0.00    +0.000 OA
ATOM     14  C   UNL     1      45.765   4.814   8.520  0.00  0.00    +0.000 C 
ENDBRANCH  10  11
ENDBRANCH   8  10
ENDBRANCH   3   4
ENDBRANCH   1   2
BRANCH   1  15
ATOM     15  O   UNL     1      48.830   6.317  14.473  0.00  0.00    +0.000 OA
BRANCH  15  19
ATOM     16  C   UNL     1      48.517   5.492  18.430  0.00  0.00    +0.000 A 
ATOM     17  C   UNL     1      48.289   4.492  17.494  0.00  0.00    +0.000 A 
ATOM     18  N   UNL     1      48.371   4.716  16.156  0.00  0.00    +0.000 NA
ATOM     19  C   UNL     1      48.702   5.980  15.801  0.00  0.00    +0.000 A 
ATOM     20  C   UNL     1      48.935   6.978  16.742  0.00  0.00    +0.000 A 
ATOM     21  N   UNL     1      48.844   6.769  18.082  0.00  0.00    +0.000 NA
BRANCH  16  23
ATOM     22  N   UNL     1      48.500   3.860  20.216  0.00  0.00    +0.000 N 
ATOM     23  C   UNL     1      48.401   5.184  19.882  0.00  0.00    +0.000 C 
ATOM     24  O   UNL     1      48.234   6.054  20.725  0.00  0.00    +0.000 OA
ATOM     25  H   UNL     1      48.441   3.585  21.185  0.00  0.00    +0.000 HD
ATOM     26  H   UNL     1      48.650   3.165  19.493  0.00  0.00    +0.000 HD
ENDBRANCH  16  23
ENDBRANCH  15  19
ENDBRANCH   1  15
TORSDOF 7
ENDMDL
