MODEL 1
REMARK VINA RESULT:    -8.739      0.000      0.000
REMARK INTER + INTRA:         -12.896
REMARK INTER:                 -11.805
REMARK INTRA:                  -1.092
REMARK UNBOUND:                -1.092
REMARK  Name = 
REMARK  6 active torsions:
REMARK  status: ('A' for Active; 'I' for Inactive)
REMARK    1  A    between atoms: C_2  and  C_4
REMARK    2  A    between atoms: C_7  and  O_8
REMARK    3  A    between atoms: O_8  and  C_9
REMARK    4  A    between atoms: C_9  and  C_10
REMARK    5  A    between atoms: C_10  and  C_13
REMARK    6  A    between atoms: C_17  and  C_18
REMARK                            x       y       z     vdW  Elec       q    Type
REMARK                         _______ _______ _______ _____ _____    ______ ____
ROOT
ATOM      1  C   UNL     1      43.462   5.067  11.730  0.00  0.00    +0.000 C 
ATOM      2  F   UNL     1      42.683   6.185  11.818  0.00  0.00    +0.000 F 
ATOM      3  F   UNL     1      42.758   4.093  12.390  0.00  0.00    +0.000 F 
ENDROOT
BRANCH   1   4
ATOM      4  C   UNL     1      44.825   5.286  12.357  0.00  0.00    +0.000 A 
ATOM      5  C   UNL     1      45.347   4.383  13.289  0.00  0.00    +0.000 A 
ATOM      6  C   UNL     1      46.614   4.589  13.828  0.00  0.00    +0.000 A 
ATOM      7  C   UNL     1      47.377   5.693  13.434  0.00  0.00    +0.000 A 
ATOM      8  C   UNL     1      46.883   6.641  12.518  0.00  0.00    +0.000 A 
ATOM      9  C   UNL     1      45.588   6.411  12.010  0.00  0.00    +0.000 A 
ATOM     10  F   UNL     1      45.041   7.296  11.161  0.00  0.00    +0.000 F 
BRANCH   8  11
ATOM     11  C   UNL     1      47.692   7.825  12.124  0.00  0.00    +0.000 A 
ATOM     12  C   UNL     1      47.172   9.131  12.179  0.00  0.00    +0.000 A 
ATOM     13  C   UNL     1      47.948  10.248  11.845  0.00  0.00    +0.000 A 
ATOM     14  C   UNL     1      49.261  10.082  11.422  0.00  0.00    +0.000 A 
ATOM     15  C   UNL     1      49.796   8.802  11.329  0.00  0.00    +0.000 A 
ATOM     16  C   UNL     1      49.022   7.690  11.681  0.00  0.00    +0.000 A 
ENDBRANCH   8  11
ENDBRANCH   1   4
BRANCH   1  17
ATOM     17  C   UNL     1      43.575   4.648  10.254  0.00  0.00    +0.000 C 
BRANCH  17  18
ATOM     18  O   UNL     1      43.731   3.221  10.125  0.00  0.00    +0.000 OA
BRANCH  18  22
ATOM     19  C   UNL     1      46.623   2.297   7.338  0.00  0.00    +0.000 A 
ATOM     20  C   UNL     1      46.173   3.613   7.454  0.00  0.00    +0.000 A 
ATOM     21  C   UNL     1      45.191   3.916   8.402  0.00  0.00    +0.000 A 
ATOM     22  C   UNL     1      44.698   2.890   9.195  0.00  0.00    +0.000 A 
ATOM     23  N   UNL     1      45.107   1.608   9.095  0.00  0.00    +0.000 NA
ATOM     24  C   UNL     1      46.054   1.337   8.164  0.00  0.00    +0.000 A 
BRANCH  19  26
ATOM     25  N   UNL     1      48.802   2.594   6.303  0.00  0.00    +0.000 N 
ATOM     26  C   UNL     1      47.649   1.861   6.369  0.00  0.00    +0.000 C 
ATOM     27  O   UNL     1      47.497   0.859   5.682  0.00  0.00    +0.000 OA
ATOM     28  H   UNL     1      49.538   2.210   5.724  0.00  0.00    +0.000 HD
ATOM     29  H   UNL     1      49.071   3.246   7.025  0.00  0.00    +0.000 HD
ENDBRANCH  19  26
ENDBRANCH  18  22
ENDBRANCH  17  18
ENDBRANCH   1  17
TORSDOF 6
ENDMDL
MODEL 2
REMARK VINA RESULT:    -8.180      1.914      3.132
REMARK INTER + INTRA:         -12.141
REMARK INTER:                 -11.134
REMARK INTRA:                  -1.007
REMARK UNBOUND:                -1.092
REMARK  Name = 
REMARK  6 active torsions:
REMARK  status: ('A' for Active; 'I' for Inactive)
REMARK    1  A    between atoms: C_2  and  C_4
REMARK    2  A    between atoms: C_7  and  O_8
REMARK    3  A    between atoms: O_8  and  C_9
REMARK    4  A    between atoms: C_9  and  C_10
REMARK    5  A    between atoms: C_10  and  C_13
REMARK    6  A    between atoms: C_17  and  C_18
REMARK                            x       y       z     vdW  Elec       q    Type
REMARK                         _______ _______ _______ _____ _____    ______ ____
ROOT
ATOM      1  C   UNL     1      44.196   4.859  12.137  0.00  0.00    +0.000 C 
ATOM      2  F   UNL     1      43.225   5.464  12.883  0.00  0.00    +0.000 F 
ATOM      3  F   UNL     1      44.208   3.555  12.561  0.00  0.00    +0.000 F 
ENDROOT
BRANCH   1   4
ATOM      4  C   UNL     1      45.546   5.518  12.338  0.00  0.00    +0.000 A 
ATOM      5  C   UNL     1      46.154   6.253  11.313  0.00  0.00    +0.000 A 
ATOM      6  C   UNL     1      47.380   6.876  11.532  0.00  0.00    +0.000 A 
ATOM      7  C   UNL     1      48.007   6.781  12.779  0.00  0.00    +0.000 A 
ATOM      8  C   UNL     1      47.444   6.034  13.832  0.00  0.00    +0.000 A 
ATOM      9  C   UNL     1      46.213   5.399  13.566  0.00  0.00    +0.000 A 
ATOM     10  F   UNL     1      45.641   4.638  14.514  0.00  0.00    +0.000 F 
BRANCH   8  11
ATOM     11  C   UNL     1      48.130   5.919  15.146  0.00  0.00    +0.000 A 
ATOM     12  C   UNL     1      48.975   6.933  15.633  0.00  0.00    +0.000 A 
ATOM     13  C   UNL     1      49.588   6.840  16.889  0.00  0.00    +0.000 A 
ATOM     14  C   UNL     1      49.391   5.715  17.680  0.00  0.00    +0.000 A 
ATOM     15  C   UNL     1      48.583   4.682  17.215  0.00  0.00    +0.000 A 
ATOM     16  C   UNL     1      47.958   4.787  15.967  0.00  0.00    +0.000 A 
ENDBRANCH   8  11
ENDBRANCH   1   4
BRANCH   1  17
ATOM     17  C   UNL     1      43.773   4.868  10.658  0.00  0.00    +0.000 C 
BRANCH  17  18
ATOM     18  O   UNL     1      43.544   3.531  10.171  0.00  0.00    +0.000 OA
BRANCH  18  22
ATOM     19  C   UNL     1      46.498   2.389   7.533  0.00  0.00    +0.000 A 
ATOM     20  C   UNL     1      46.119   3.730   7.605  0.00  0.00    +0.000 A 
ATOM     21  C   UNL     1      45.115   4.107   8.502  0.00  0.00    +0.000 A 
ATOM     22  C   UNL     1      44.530   3.128   9.291  0.00  0.00    +0.000 A 
ATOM     23  N   UNL     1      44.870   1.823   9.233  0.00  0.00    +0.000 NA
ATOM     24  C   UNL     1      45.840   1.480   8.350  0.00  0.00    +0.000 A 
BRANCH  19  26
ATOM     25  N   UNL     1      48.644   2.659   6.424  0.00  0.00    +0.000 N 
ATOM     26  C   UNL     1      47.539   1.876   6.619  0.00  0.00    +0.000 C 
ATOM     27  O   UNL     1      47.442   0.778   6.089  0.00  0.00    +0.000 OA
ATOM     28  H   UNL     1      49.397   2.238   5.894  0.00  0.00    +0.000 HD
ATOM     29  H   UNL     1      48.880   3.426   7.037  0.00  0.00    +0.000 HD
ENDBRANCH  19  26
ENDBRANCH  18  22
ENDBRANCH  17  18
ENDBRANCH   1  17
TORSDOF 6
ENDMDL
MODEL 3
REMARK VINA RESULT:    -7.531      2.797      3.567
REMARK INTER + INTRA:         -11.264
REMARK INTER:                 -10.684
REMARK INTRA:                  -0.580
REMARK UNBOUND:                -1.092
REMARK  Name = 
REMARK  6 active torsions:
REMARK  status: ('A' for Active; 'I' for Inactive)
REMARK    1  A    between atoms: C_2  and  C_4
REMARK    2  A    between atoms: C_7  and  O_8
REMARK    3  A    between atoms: O_8  and  C_9
REMARK    4  A    between atoms: C_9  and  C_10
REMARK    5  A    between atoms: C_10  and  C_13
REMARK    6  A    between atoms: C_17  and  C_18
REMARK                            x       y       z     vdW  Elec       q    Type
REMARK                         _______ _______ _______ _____ _____    ______ ____
ROOT
ATOM      1  C   UNL     1      43.875   4.749  12.288  0.00  0.00    +0.000 C 
ATOM      2  F   UNL     1      42.678   4.725  12.945  0.00  0.00    +0.000 F 
ATOM      3  F   UNL     1      44.699   3.938  13.026  0.00  0.00    +0.000 F 
ENDROOT
BRANCH   1   4
ATOM      4  C   UNL     1      44.428   6.156  12.189  0.00  0.00    +0.000 A 
ATOM      5  C   UNL     1      45.668   6.489  12.747  0.00  0.00    +0.000 A 
ATOM      6  C   UNL     1      46.169   7.781  12.616  0.00  0.00    +0.000 A 
ATOM      7  C   UNL     1      45.444   8.752  11.916  0.00  0.00    +0.000 A 
ATOM      8  C   UNL     1      44.183   8.469  11.359  0.00  0.00    +0.000 A 
ATOM      9  C   UNL     1      43.698   7.157  11.531  0.00  0.00    +0.000 A 
ATOM     10  F   UNL     1      42.484   6.830  11.057  0.00  0.00    +0.000 F 
BRANCH   8  11
ATOM     11  C   UNL     1      43.408   9.514  10.638  0.00  0.00    +0.000 A 
ATOM     12  C   UNL     1      42.063   9.788  10.949  0.00  0.00    +0.000 A 
ATOM     13  C   UNL     1      41.348  10.800  10.296  0.00  0.00    +0.000 A 
ATOM     14  C   UNL     1      41.955  11.548   9.295  0.00  0.00    +0.000 A 
ATOM     15  C   UNL     1      43.275  11.283   8.945  0.00  0.00    +0.000 A 
ATOM     16  C   UNL     1      43.992  10.283   9.612  0.00  0.00    +0.000 A 
ENDBRANCH   8  11
ENDBRANCH   1   4
BRANCH   1  17
ATOM     17  C   UNL     1      43.701   4.105  10.902  0.00  0.00    +0.000 C 
BRANCH  17  18
ATOM     18  O   UNL     1      44.379   4.865   9.883  0.00  0.00    +0.000 OA
BRANCH  18  22
ATOM     19  C   UNL     1      46.614   2.407   7.444  0.00  0.00    +0.000 A 
ATOM     20  C   UNL     1      45.805   1.846   8.434  0.00  0.00    +0.000 A 
ATOM     21  C   UNL     1      45.051   2.689   9.257  0.00  0.00    +0.000 A 
ATOM     22  C   UNL     1      45.138   4.059   9.057  0.00  0.00    +0.000 A 
ATOM     23  N   UNL     1      45.921   4.627   8.116  0.00  0.00    +0.000 NA
ATOM     24  C   UNL     1      46.648   3.790   7.336  0.00  0.00    +0.000 A 
BRANCH  19  26
ATOM     25  N   UNL     1      48.543   2.238   5.977  0.00  0.00    +0.000 N 
ATOM     26  C   UNL     1      47.457   1.615   6.524  0.00  0.00    +0.000 C 
ATOM     27  O   UNL     1      47.220   0.437   6.294  0.00  0.00    +0.000 OA
ATOM     28  H   UNL     1      49.174   1.646   5.449  0.00  0.00    +0.000 HD
ATOM     29  H   UNL     1      48.916   3.102   6.344  0.00  0.00    +0.000 HD
ENDBRANCH  19  26
ENDBRANCH  18  22
ENDBRANCH  17  18
ENDBRANCH   1  17
TORSDOF 6
ENDMDL
MODEL 4
REMARK VINA RESULT:    -7.493      5.550      7.278
REMARK INTER + INTRA:         -11.213
REMARK INTER:                 -10.347
REMARK INTRA:                  -0.867
REMARK UNBOUND:                -1.092
REMARK  Name = 
REMARK  6 active torsions:
REMARK  status: ('A' for Active; 'I' for Inactive)
REMARK    1  A    between atoms: C_2  and  C_4
REMARK    2  A    between atoms: C_7  and  O_8
REMARK    3  A    between atoms: O_8  and  C_9
REMARK    4  A    between atoms: C_9  and  C_10
REMARK    5  A    between atoms: C_10  and  C_13
REMARK    6  A    between atoms: C_17  and  C_18
REMARK                            x       y       z     vdW  Elec       q    Type
REMARK                         _______ _______ _______ _____ _____    ______ ____
ROOT
ATOM      1  C   UNL     1      47.948   3.143  16.927  0.00  0.00    +0.000 C 
ATOM      2  F   UNL     1      46.977   2.454  17.596  0.00  0.00    +0.000 F 
ATOM      3  F   UNL     1      48.729   2.177  16.345  0.00  0.00    +0.000 F 
ENDROOT
BRANCH   1   4
ATOM      4  C   UNL     1      48.756   4.019  17.862  0.00  0.00    +0.000 A 
ATOM      5  C   UNL     1      50.132   3.824  18.030  0.00  0.00    +0.000 A 
ATOM      6  C   UNL     1      50.859   4.662  18.871  0.00  0.00    +0.000 A 
ATOM      7  C   UNL     1      50.222   5.709  19.546  0.00  0.00    +0.000 A 
ATOM      8  C   UNL     1      48.836   5.927  19.427  0.00  0.00    +0.000 A 
ATOM      9  C   UNL     1      48.130   5.046  18.584  0.00  0.00    +0.000 A 
ATOM     10  F   UNL     1      46.799   5.174  18.455  0.00  0.00    +0.000 F 
BRANCH   8  11
ATOM     11  C   UNL     1      48.165   7.028  20.168  0.00  0.00    +0.000 A 
ATOM     12  C   UNL     1      47.878   6.931  21.543  0.00  0.00    +0.000 A 
ATOM     13  C   UNL     1      47.282   7.984  22.247  0.00  0.00    +0.000 A 
ATOM     14  C   UNL     1      46.931   9.155  21.585  0.00  0.00    +0.000 A 
ATOM     15  C   UNL     1      47.175   9.271  20.220  0.00  0.00    +0.000 A 
ATOM     16  C   UNL     1      47.788   8.223  19.525  0.00  0.00    +0.000 A 
ENDBRANCH   8  11
ENDBRANCH   1   4
BRANCH   1  17
ATOM     17  C   UNL     1      47.296   3.961  15.800  0.00  0.00    +0.000 C 
BRANCH  17  18
ATOM     18  O   UNL     1      47.496   3.338  14.516  0.00  0.00    +0.000 OA
BRANCH  18  22
ATOM     19  C   UNL     1      44.809   4.738  11.722  0.00  0.00    +0.000 A 
ATOM     20  C   UNL     1      45.579   5.644  12.452  0.00  0.00    +0.000 A 
ATOM     21  C   UNL     1      46.488   5.159  13.398  0.00  0.00    +0.000 A 
ATOM     22  C   UNL     1      46.588   3.788  13.577  0.00  0.00    +0.000 A 
ATOM     23  N   UNL     1      45.846   2.891  12.893  0.00  0.00    +0.000 NA
ATOM     24  C   UNL     1      44.967   3.385  11.988  0.00  0.00    +0.000 A 
BRANCH  19  26
ATOM     25  N   UNL     1      43.999   4.672   9.432  0.00  0.00    +0.000 N 
ATOM     26  C   UNL     1      43.814   5.136  10.705  0.00  0.00    +0.000 C 
ATOM     27  O   UNL     1      42.840   5.818  10.994  0.00  0.00    +0.000 OA
ATOM     28  H   UNL     1      43.245   4.854   8.781  0.00  0.00    +0.000 HD
ATOM     29  H   UNL     1      44.621   3.906   9.219  0.00  0.00    +0.000 HD
ENDBRANCH  19  26
ENDBRANCH  18  22
ENDBRANCH  17  18
ENDBRANCH   1  17
TORSDOF 6
ENDMDL
MODEL 5
REMARK VINA RESULT:    -7.398      3.151      7.001
REMARK INTER + INTRA:         -11.085
REMARK INTER:                 -10.491
REMARK INTRA:                  -0.594
REMARK UNBOUND:                -1.092
REMARK  Name = 
REMARK  6 active torsions:
REMARK  status: ('A' for Active; 'I' for Inactive)
REMARK    1  A    between atoms: C_2  and  C_4
REMARK    2  A    between atoms: C_7  and  O_8
REMARK    3  A    between atoms: O_8  and  C_9
REMARK    4  A    between atoms: C_9  and  C_10
REMARK    5  A    between atoms: C_10  and  C_13
REMARK    6  A    between atoms: C_17  and  C_18
REMARK                            x       y       z     vdW  Elec       q    Type
REMARK                         _______ _______ _______ _____ _____    ______ ____
ROOT
ATOM      1  C   UNL     1      43.877   3.158  11.251  0.00  0.00    +0.000 C 
ATOM      2  F   UNL     1      43.311   1.959  10.924  0.00  0.00    +0.000 F 
ATOM      3  F   UNL     1      42.818   3.987  11.521  0.00  0.00    +0.000 F 
ENDROOT
BRANCH   1   4
ATOM      4  C   UNL     1      44.729   3.699  10.120  0.00  0.00    +0.000 A 
ATOM      5  C   UNL     1      45.087   5.051  10.066  0.00  0.00    +0.000 A 
ATOM      6  C   UNL     1      45.896   5.518   9.033  0.00  0.00    +0.000 A 
ATOM      7  C   UNL     1      46.365   4.639   8.051  0.00  0.00    +0.000 A 
ATOM      8  C   UNL     1      46.010   3.277   8.052  0.00  0.00    +0.000 A 
ATOM      9  C   UNL     1      45.172   2.844   9.100  0.00  0.00    +0.000 A 
ATOM     10  F   UNL     1      44.764   1.565   9.139  0.00  0.00    +0.000 F 
BRANCH   8  11
ATOM     11  C   UNL     1      46.493   2.355   6.989  0.00  0.00    +0.000 A 
ATOM     12  C   UNL     1      46.854   1.024   7.269  0.00  0.00    +0.000 A 
ATOM     13  C   UNL     1      47.270   0.147   6.260  0.00  0.00    +0.000 A 
ATOM     14  C   UNL     1      47.361   0.588   4.946  0.00  0.00    +0.000 A 
ATOM     15  C   UNL     1      47.039   1.907   4.641  0.00  0.00    +0.000 A 
ATOM     16  C   UNL     1      46.606   2.775   5.649  0.00  0.00    +0.000 A 
ENDBRANCH   8  11
ENDBRANCH   1   4
BRANCH   1  17
ATOM     17  C   UNL     1      44.688   2.994  12.547  0.00  0.00    +0.000 C 
BRANCH  17  18
ATOM     18  O   UNL     1      44.395   4.048  13.486  0.00  0.00    +0.000 OA
BRANCH  18  22
ATOM     19  C   UNL     1      46.867   7.296  12.917  0.00  0.00    +0.000 A 
ATOM     20  C   UNL     1      47.423   6.049  13.209  0.00  0.00    +0.000 A 
ATOM     21  C   UNL     1      46.575   4.953  13.401  0.00  0.00    +0.000 A 
ATOM     22  C   UNL     1      45.206   5.149  13.295  0.00  0.00    +0.000 A 
ATOM     23  N   UNL     1      44.643   6.346  13.026  0.00  0.00    +0.000 NA
ATOM     24  C   UNL     1      45.484   7.395  12.852  0.00  0.00    +0.000 A 
BRANCH  19  26
ATOM     25  N   UNL     1      47.383   9.599  13.497  0.00  0.00    +0.000 N 
ATOM     26  C   UNL     1      47.663   8.522  12.703  0.00  0.00    +0.000 C 
ATOM     27  O   UNL     1      48.567   8.561  11.879  0.00  0.00    +0.000 OA
ATOM     28  H   UNL     1      48.018  10.384  13.418  0.00  0.00    +0.000 HD
ATOM     29  H   UNL     1      46.845   9.520  14.347  0.00  0.00    +0.000 HD
ENDBRANCH  19  26
ENDBRANCH  18  22
ENDBRANCH  17  18
ENDBRANCH   1  17
TORSDOF 6
ENDMDL
MODEL 6
REMARK VINA RESULT:    -7.111      3.840      7.380
REMARK INTER + INTRA:         -10.696
REMARK INTER:                 -10.033
REMARK INTRA:                  -0.664
REMARK UNBOUND:                -1.092
REMARK  Name = 
REMARK  6 active torsions:
REMARK  status: ('A' for Active; 'I' for Inactive)
REMARK    1  A    between atoms: C_2  and  C_4
REMARK    2  A    between atoms: C_7  and  O_8
REMARK    3  A    between atoms: O_8  and  C_9
REMARK    4  A    between atoms: C_9  and  C_10
REMARK    5  A    between atoms: C_10  and  C_13
REMARK    6  A    between atoms: C_17  and  C_18
REMARK                            x       y       z     vdW  Elec       q    Type
REMARK                         _______ _______ _______ _____ _____    ______ ____
ROOT
ATOM      1  C   UNL     1      45.705   7.498  12.388  0.00  0.00    +0.000 C 
ATOM      2  F   UNL     1      44.853   8.447  12.877  0.00  0.00    +0.000 F 
ATOM      3  F   UNL     1      46.460   8.151  11.449  0.00  0.00    +0.000 F 
ENDROOT
BRANCH   1   4
ATOM      4  C   UNL     1      44.950   6.333  11.778  0.00  0.00    +0.000 A 
ATOM      5  C   UNL     1      43.655   6.009  12.198  0.00  0.00    +0.000 A 
ATOM      6  C   UNL     1      42.970   4.953  11.602  0.00  0.00    +0.000 A 
ATOM      7  C   UNL     1      43.567   4.218  10.572  0.00  0.00    +0.000 A 
ATOM      8  C   UNL     1      44.876   4.492  10.133  0.00  0.00    +0.000 A 
ATOM      9  C   UNL     1      45.546   5.554  10.776  0.00  0.00    +0.000 A 
ATOM     10  F   UNL     1      46.812   5.844  10.432  0.00  0.00    +0.000 F 
BRANCH   8  11
ATOM     11  C   UNL     1      45.511   3.689   9.055  0.00  0.00    +0.000 A 
ATOM     12  C   UNL     1      45.592   2.285   9.125  0.00  0.00    +0.000 A 
ATOM     13  C   UNL     1      46.155   1.528   8.090  0.00  0.00    +0.000 A 
ATOM     14  C   UNL     1      46.675   2.160   6.967  0.00  0.00    +0.000 A 
ATOM     15  C   UNL     1      46.635   3.548   6.880  0.00  0.00    +0.000 A 
ATOM     16  C   UNL     1      46.056   4.300   7.909  0.00  0.00    +0.000 A 
ENDBRANCH   8  11
ENDBRANCH   1   4
BRANCH   1  17
ATOM     17  C   UNL     1      46.647   7.040  13.514  0.00  0.00    +0.000 C 
BRANCH  17  18
ATOM     18  O   UNL     1      46.677   5.603  13.620  0.00  0.00    +0.000 OA
BRANCH  18  22
ATOM     19  C   UNL     1      48.549   4.413  17.093  0.00  0.00    +0.000 A 
ATOM     20  C   UNL     1      48.867   5.648  16.527  0.00  0.00    +0.000 A 
ATOM     21  C   UNL     1      48.227   6.042  15.348  0.00  0.00    +0.000 A 
ATOM     22  C   UNL     1      47.295   5.185  14.782  0.00  0.00    +0.000 A 
ATOM     23  N   UNL     1      46.978   3.981  15.303  0.00  0.00    +0.000 NA
ATOM     24  C   UNL     1      47.617   3.617  16.442  0.00  0.00    +0.000 A 
BRANCH  19  26
ATOM     25  N   UNL     1      48.366   3.176  19.178  0.00  0.00    +0.000 N 
ATOM     26  C   UNL     1      49.166   3.892  18.331  0.00  0.00    +0.000 C 
ATOM     27  O   UNL     1      50.355   4.055  18.570  0.00  0.00    +0.000 OA
ATOM     28  H   UNL     1      48.835   2.726  19.955  0.00  0.00    +0.000 HD
ATOM     29  H   UNL     1      47.474   2.799  18.892  0.00  0.00    +0.000 HD
ENDBRANCH  19  26
ENDBRANCH  18  22
ENDBRANCH  17  18
ENDBRANCH   1  17
TORSDOF 6
ENDMDL
MODEL 7
REMARK VINA RESULT:    -7.011      5.751      7.734
REMARK INTER + INTRA:         -10.562
REMARK INTER:                  -9.755
REMARK INTRA:                  -0.807
REMARK UNBOUND:                -1.092
REMARK  Name = 
REMARK  6 active torsions:
REMARK  status: ('A' for Active; 'I' for Inactive)
REMARK    1  A    between atoms: C_2  and  C_4
REMARK    2  A    between atoms: C_7  and  O_8
REMARK    3  A    between atoms: O_8  and  C_9
REMARK    4  A    between atoms: C_9  and  C_10
REMARK    5  A    between atoms: C_10  and  C_13
REMARK    6  A    between atoms: C_17  and  C_18
REMARK                            x       y       z     vdW  Elec       q    Type
REMARK                         _______ _______ _______ _____ _____    ______ ____
ROOT
ATOM      1  C   UNL     1      47.594   4.029  17.147  0.00  0.00    +0.000 C 
ATOM      2  F   UNL     1      46.563   4.603  17.835  0.00  0.00    +0.000 F 
ATOM      3  F   UNL     1      47.284   2.695  17.093  0.00  0.00    +0.000 F 
ENDROOT
BRANCH   1   4
ATOM      4  C   UNL     1      48.923   4.261  17.838  0.00  0.00    +0.000 A 
ATOM      5  C   UNL     1      49.081   5.284  18.780  0.00  0.00    +0.000 A 
ATOM      6  C   UNL     1      50.303   5.458  19.424  0.00  0.00    +0.000 A 
ATOM      7  C   UNL     1      51.377   4.606  19.143  0.00  0.00    +0.000 A 
ATOM      8  C   UNL     1      51.271   3.579  18.186  0.00  0.00    +0.000 A 
ATOM      9  C   UNL     1      50.026   3.447  17.538  0.00  0.00    +0.000 A 
ATOM     10  F   UNL     1      49.868   2.513  16.586  0.00  0.00    +0.000 F 
BRANCH   8  11
ATOM     11  C   UNL     1      52.425   2.695  17.876  0.00  0.00    +0.000 A 
ATOM     12  C   UNL     1      53.730   3.201  17.725  0.00  0.00    +0.000 A 
ATOM     13  C   UNL     1      54.821   2.362  17.473  0.00  0.00    +0.000 A 
ATOM     14  C   UNL     1      54.631   0.991  17.339  0.00  0.00    +0.000 A 
ATOM     15  C   UNL     1      53.349   0.463  17.455  0.00  0.00    +0.000 A 
ATOM     16  C   UNL     1      52.264   1.304  17.725  0.00  0.00    +0.000 A 
ENDBRANCH   8  11
ENDBRANCH   1   4
BRANCH   1  17
ATOM     17  C   UNL     1      47.599   4.569  15.707  0.00  0.00    +0.000 C 
BRANCH  17  18
ATOM     18  O   UNL     1      47.319   3.523  14.755  0.00  0.00    +0.000 OA
BRANCH  18  22
ATOM     19  C   UNL     1      44.676   4.815  11.869  0.00  0.00    +0.000 A 
ATOM     20  C   UNL     1      45.224   5.736  12.763  0.00  0.00    +0.000 A 
ATOM     21  C   UNL     1      46.120   5.287  13.739  0.00  0.00    +0.000 A 
ATOM     22  C   UNL     1      46.429   3.936  13.782  0.00  0.00    +0.000 A 
ATOM     23  N   UNL     1      45.904   3.024  12.938  0.00  0.00    +0.000 NA
ATOM     24  C   UNL     1      45.032   3.481  12.005  0.00  0.00    +0.000 A 
BRANCH  19  26
ATOM     25  N   UNL     1      43.940   4.660   9.558  0.00  0.00    +0.000 N 
ATOM     26  C   UNL     1      43.716   5.175  10.805  0.00  0.00    +0.000 C 
ATOM     27  O   UNL     1      42.735   5.869  11.035  0.00  0.00    +0.000 OA
ATOM     28  H   UNL     1      43.208   4.817   8.876  0.00  0.00    +0.000 HD
ATOM     29  H   UNL     1      44.568   3.885   9.396  0.00  0.00    +0.000 HD
ENDBRANCH  19  26
ENDBRANCH  18  22
ENDBRANCH  17  18
ENDBRANCH   1  17
TORSDOF 6
ENDMDL
MODEL 8
REMARK VINA RESULT:    -6.648      3.935      6.537
REMARK INTER + INTRA:         -10.072
REMARK INTER:                  -8.640
REMARK INTRA:                  -1.432
REMARK UNBOUND:                -1.092
REMARK  Name = 
REMARK  6 active torsions:
REMARK  status: ('A' for Active; 'I' for Inactive)
REMARK    1  A    between atoms: C_2  and  C_4
REMARK    2  A    between atoms: C_7  and  O_8
REMARK    3  A    between atoms: O_8  and  C_9
REMARK    4  A    between atoms: C_9  and  C_10
REMARK    5  A    between atoms: C_10  and  C_13
REMARK    6  A    between atoms: C_17  and  C_18
REMARK                            x       y       z     vdW  Elec       q    Type
REMARK                         _______ _______ _______ _____ _____    ______ ____
ROOT
ATOM      1  C   UNL     1      48.412   9.078  13.898  0.00  0.00    +0.000 C 
ATOM      2  F   UNL     1      49.548   8.784  13.200  0.00  0.00    +0.000 F 
ATOM      3  F   UNL     1      48.343  10.447  13.901  0.00  0.00    +0.000 F 
ENDROOT
BRANCH   1   4
ATOM      4  C   UNL     1      48.464   8.523  15.307  0.00  0.00    +0.000 A 
ATOM      5  C   UNL     1      48.124   9.314  16.411  0.00  0.00    +0.000 A 
ATOM      6  C   UNL     1      48.150   8.773  17.693  0.00  0.00    +0.000 A 
ATOM      7  C   UNL     1      48.505   7.434  17.887  0.00  0.00    +0.000 A 
ATOM      8  C   UNL     1      48.878   6.608  16.810  0.00  0.00    +0.000 A 
ATOM      9  C   UNL     1      48.861   7.196  15.529  0.00  0.00    +0.000 A 
ATOM     10  F   UNL     1      49.242   6.475  14.462  0.00  0.00    +0.000 F 
BRANCH   8  11
ATOM     11  C   UNL     1      49.278   5.192  17.029  0.00  0.00    +0.000 A 
ATOM     12  C   UNL     1      48.370   4.130  16.860  0.00  0.00    +0.000 A 
ATOM     13  C   UNL     1      48.759   2.795  17.028  0.00  0.00    +0.000 A 
ATOM     14  C   UNL     1      50.064   2.491  17.395  0.00  0.00    +0.000 A 
ATOM     15  C   UNL     1      50.978   3.519  17.597  0.00  0.00    +0.000 A 
ATOM     16  C   UNL     1      50.590   4.851  17.410  0.00  0.00    +0.000 A 
ENDBRANCH   8  11
ENDBRANCH   1   4
BRANCH   1  17
ATOM     17  C   UNL     1      47.194   8.549  13.122  0.00  0.00    +0.000 C 
BRANCH  17  18
ATOM     18  O   UNL     1      47.588   7.596  12.114  0.00  0.00    +0.000 OA
BRANCH  18  22
ATOM     19  C   UNL     1      45.075   4.330  12.071  0.00  0.00    +0.000 A 
ATOM     20  C   UNL     1      45.759   4.658  13.243  0.00  0.00    +0.000 A 
ATOM     21  C   UNL     1      46.610   5.768  13.247  0.00  0.00    +0.000 A 
ATOM     22  C   UNL     1      46.744   6.504  12.078  0.00  0.00    +0.000 A 
ATOM     23  N   UNL     1      46.104   6.201  10.930  0.00  0.00    +0.000 NA
ATOM     24  C   UNL     1      45.290   5.117  10.947  0.00  0.00    +0.000 A 
BRANCH  19  26
ATOM     25  N   UNL     1      44.043   2.596  10.718  0.00  0.00    +0.000 N 
ATOM     26  C   UNL     1      44.158   3.178  11.949  0.00  0.00    +0.000 C 
ATOM     27  O   UNL     1      43.558   2.733  12.918  0.00  0.00    +0.000 OA
ATOM     28  H   UNL     1      43.507   1.737  10.682  0.00  0.00    +0.000 HD
ATOM     29  H   UNL     1      44.709   2.758   9.977  0.00  0.00    +0.000 HD
ENDBRANCH  19  26
ENDBRANCH  18  22
ENDBRANCH  17  18
ENDBRANCH   1  17
TORSDOF 6
ENDMDL
MODEL 9
REMARK VINA RESULT:    -6.590      4.422      7.670
REMARK INTER + INTRA:          -9.993
REMARK INTER:                  -8.757
REMARK INTRA:                  -1.236
REMARK UNBOUND:                -1.092
REMARK  Name = 
REMARK  6 active torsions:
REMARK  status: ('A' for Active; 'I' for Inactive)
REMARK    1  A    between atoms: C_2  and  C_4
REMARK    2  A    between atoms: C_7  and  O_8
REMARK    3  A    between atoms: O_8  and  C_9
REMARK    4  A    between atoms: C_9  and  C_10
REMARK    5  A    between atoms: C_10  and  C_13
REMARK    6  A    between atoms: C_17  and  C_18
REMARK                            x       y       z     vdW  Elec       q    Type
REMARK                         _______ _______ _______ _____ _____    ______ ____
ROOT
ATOM      1  C   UNL     1      48.588   8.687  12.585  0.00  0.00    +0.000 C 
ATOM      2  F   UNL     1      49.020   9.934  12.232  0.00  0.00    +0.000 F 
ATOM      3  F   UNL     1      49.425   7.824  11.926  0.00  0.00    +0.000 F 
ENDROOT
BRANCH   1   4
ATOM      4  C   UNL     1      47.142   8.466  12.191  0.00  0.00    +0.000 A 
ATOM      5  C   UNL     1      46.216   9.515  12.212  0.00  0.00    +0.000 A 
ATOM      6  C   UNL     1      44.900   9.295  11.816  0.00  0.00    +0.000 A 
ATOM      7  C   UNL     1      44.496   8.027  11.384  0.00  0.00    +0.000 A 
ATOM      8  C   UNL     1      45.386   6.936  11.369  0.00  0.00    +0.000 A 
ATOM      9  C   UNL     1      46.705   7.192  11.798  0.00  0.00    +0.000 A 
ATOM     10  F   UNL     1      47.594   6.188  11.845  0.00  0.00    +0.000 F 
BRANCH   8  11
ATOM     11  C   UNL     1      44.941   5.586  10.932  0.00  0.00    +0.000 A 
ATOM     12  C   UNL     1      45.355   5.029   9.707  0.00  0.00    +0.000 A 
ATOM     13  C   UNL     1      44.967   3.742   9.316  0.00  0.00    +0.000 A 
ATOM     14  C   UNL     1      44.131   2.987  10.130  0.00  0.00    +0.000 A 
ATOM     15  C   UNL     1      43.682   3.521  11.334  0.00  0.00    +0.000 A 
ATOM     16  C   UNL     1      44.087   4.800  11.730  0.00  0.00    +0.000 A 
ENDBRANCH   8  11
ENDBRANCH   1   4
BRANCH   1  17
ATOM     17  C   UNL     1      48.804   8.490  14.095  0.00  0.00    +0.000 C 
BRANCH  17  18
ATOM     18  O   UNL     1      49.732   7.418  14.356  0.00  0.00    +0.000 OA
BRANCH  18  22
ATOM     19  C   UNL     1      48.076   4.554  16.814  0.00  0.00    +0.000 A 
ATOM     20  C   UNL     1      47.404   4.937  15.652  0.00  0.00    +0.000 A 
ATOM     21  C   UNL     1      47.974   5.911  14.825  0.00  0.00    +0.000 A 
ATOM     22  C   UNL     1      49.192   6.462  15.194  0.00  0.00    +0.000 A 
ATOM     23  N   UNL     1      49.857   6.117  16.317  0.00  0.00    +0.000 NA
ATOM     24  C   UNL     1      49.281   5.178  17.107  0.00  0.00    +0.000 A 
BRANCH  19  26
ATOM     25  N   UNL     1      48.162   3.481  18.993  0.00  0.00    +0.000 N 
ATOM     26  C   UNL     1      47.567   3.543  17.763  0.00  0.00    +0.000 C 
ATOM     27  O   UNL     1      46.622   2.819  17.480  0.00  0.00    +0.000 OA
ATOM     28  H   UNL     1      47.720   2.868  19.668  0.00  0.00    +0.000 HD
ATOM     29  H   UNL     1      48.745   4.222  19.351  0.00  0.00    +0.000 HD
ENDBRANCH  19  26
ENDBRANCH  18  22
ENDBRANCH  17  18
ENDBRANCH   1  17
TORSDOF 6
ENDMDL
