MODEL 1
REMARK VINA RESULT:    -7.900      0.000      0.000
REMARK INTER + INTRA:         -12.299
REMARK INTER:                 -10.902
REMARK INTRA:                  -1.397
REMARK UNBOUND:                -1.397
REMARK  Name = 
REMARK  7 active torsions:
REMARK  status: ('A' for Active; 'I' for Inactive)
REMARK    1  A    between atoms: N_1  and  C_2
REMARK    2  A    between atoms: C_2  and  N_3
REMARK    3  A    between atoms: C_2  and  C_16
REMARK    4  A    between atoms: C_4  and  C_6
REMARK    5  A    between atoms: N_20  and  C_21
REMARK    6  A    between atoms: C_21  and  C_22
REMARK    7  A    between atoms: C_27  and  C_28
REMARK                            x       y       z     vdW  Elec       q    Type
REMARK                         _______ _______ _______ _____ _____    ______ ____
ROOT
ATOM      1  C   UNL     1      48.601   6.124  16.473  0.00  0.00    +0.000 C 
ENDROOT
BRANCH   1   2
ATOM      2  C   UNL     1      48.092   6.143  15.056  0.00  0.00    +0.000 A 
ATOM      3  C   UNL     1      48.689   6.980  14.110  0.00  0.00    +0.000 A 
ATOM      4  C   UNL     1      48.197   7.015  12.806  0.00  0.00    +0.000 A 
ATOM      5  C   UNL     1      47.091   6.241  12.460  0.00  0.00    +0.000 A 
ATOM      6  N   UNL     1      46.589   6.343  11.167  0.00  0.00    +0.000 N 
ATOM      7  N   UNL     1      46.500   5.429  13.355  0.00  0.00    +0.000 NA
ATOM      8  C   UNL     1      47.017   5.385  14.609  0.00  0.00    +0.000 A 
ATOM      9  H   UNL     1      47.245   5.984  10.475  0.00  0.00    +0.000 HD
BRANCH   6  10
ATOM     10  C   UNL     1      45.226   5.863  10.926  0.00  0.00    +0.000 C 
BRANCH  10  11
ATOM     11  C   UNL     1      45.220   4.697   9.931  0.00  0.00    +0.000 A 
ATOM     12  N   UNL     1      45.908   4.906   8.766  0.00  0.00    +0.000 NA
ATOM     13  C   UNL     1      45.910   3.938   7.827  0.00  0.00    +0.000 A 
ATOM     14  C   UNL     1      45.282   2.721   7.984  0.00  0.00    +0.000 A 
ATOM     15  C   UNL     1      44.609   2.491   9.174  0.00  0.00    +0.000 A 
ATOM     16  C   UNL     1      44.561   3.481  10.176  0.00  0.00    +0.000 A 
BRANCH  16  17
ATOM     17  C   UNL     1      43.801   3.155  11.429  0.00  0.00    +0.000 C 
ATOM     18  F   UNL     1      44.546   3.085  12.562  0.00  0.00    +0.000 F 
ATOM     19  F   UNL     1      42.821   4.070  11.686  0.00  0.00    +0.000 F 
ATOM     20  F   UNL     1      43.157   1.956  11.338  0.00  0.00    +0.000 F 
ENDBRANCH  16  17
ENDBRANCH  10  11
ENDBRANCH   6  10
ENDBRANCH   1   2
BRANCH   1  21
ATOM     21  N   UNL     1      49.812   5.396  16.667  0.00  0.00    +0.000 N 
ATOM     22  C   UNL     1      50.492   5.443  17.859  0.00  0.00    +0.000 C 
ATOM     23  O   UNL     1      50.097   6.098  18.819  0.00  0.00    +0.000 OA
ATOM     24  H   UNL     1      50.329   5.148  15.831  0.00  0.00    +0.000 HD
BRANCH  22  25
ATOM     25  C   UNL     1      51.691   4.603  17.955  0.00  0.00    +0.000 A 
ATOM     26  C   UNL     1      52.913   5.182  18.268  0.00  0.00    +0.000 A 
ATOM     27  S   UNL     1      54.194   4.060  18.373  0.00  0.00    +0.000 S 
ATOM     28  C   UNL     1      53.168   2.769  17.953  0.00  0.00    +0.000 A 
ATOM     29  N   UNL     1      53.650   1.502  17.819  0.00  0.00    +0.000 NA
ATOM     30  C   UNL     1      52.772   0.630  17.470  0.00  0.00    +0.000 A 
ATOM     31  N   UNL     1      51.442   0.903  17.250  0.00  0.00    +0.000 N 
ATOM     32  C   UNL     1      50.896   2.155  17.415  0.00  0.00    +0.000 A 
ATOM     33  O   UNL     1      49.696   2.358  17.290  0.00  0.00    +0.000 OA
ATOM     34  C   UNL     1      51.860   3.181  17.772  0.00  0.00    +0.000 A 
ATOM     35  H   UNL     1      50.802   0.166  16.996  0.00  0.00    +0.000 HD
ENDBRANCH  22  25
ENDBRANCH   1  21
BRANCH   1  36
ATOM     36  N   UNL     1      47.660   5.446  17.342  0.00  0.00    +0.000 NA
ATOM     37  H   UNL     1      47.645   4.463  17.090  0.00  0.00    +0.000 HD
ATOM     38  H   UNL     1      46.729   5.814  17.169  0.00  0.00    +0.000 HD
ENDBRANCH   1  36
TORSDOF 7
ENDMDL
MODEL 2
REMARK VINA RESULT:    -7.790      3.780      8.355
REMARK INTER + INTRA:         -12.148
REMARK INTER:                 -10.933
REMARK INTRA:                  -1.215
REMARK UNBOUND:                -1.397
REMARK  Name = 
REMARK  7 active torsions:
REMARK  status: ('A' for Active; 'I' for Inactive)
REMARK    1  A    between atoms: N_1  and  C_2
REMARK    2  A    between atoms: C_2  and  N_3
REMARK    3  A    between atoms: C_2  and  C_16
REMARK    4  A    between atoms: C_4  and  C_6
REMARK    5  A    between atoms: N_20  and  C_21
REMARK    6  A    between atoms: C_21  and  C_22
REMARK    7  A    between atoms: C_27  and  C_28
REMARK                            x       y       z     vdW  Elec       q    Type
REMARK                         _______ _______ _______ _____ _____    ______ ____
ROOT
ATOM      1  C   UNL     1      48.567   7.769  12.286  0.00  0.00    +0.000 C 
ENDROOT
BRANCH   1   2
ATOM      2  C   UNL     1      49.032   7.517  13.696  0.00  0.00    +0.000 A 
ATOM      3  C   UNL     1      50.332   7.863  14.076  0.00  0.00    +0.000 A 
ATOM      4  C   UNL     1      50.767   7.603  15.375  0.00  0.00    +0.000 A 
ATOM      5  C   UNL     1      49.917   6.968  16.278  0.00  0.00    +0.000 A 
ATOM      6  N   UNL     1      50.401   6.671  17.547  0.00  0.00    +0.000 N 
ATOM      7  N   UNL     1      48.663   6.624  15.933  0.00  0.00    +0.000 NA
ATOM      8  C   UNL     1      48.249   6.918  14.674  0.00  0.00    +0.000 A 
ATOM      9  H   UNL     1      50.593   7.513  18.088  0.00  0.00    +0.000 HD
BRANCH   6  10
ATOM     10  C   UNL     1      49.678   5.670  18.335  0.00  0.00    +0.000 C 
BRANCH  10  11
ATOM     11  C   UNL     1      50.097   4.248  17.940  0.00  0.00    +0.000 A 
ATOM     12  N   UNL     1      51.428   3.961  18.079  0.00  0.00    +0.000 NA
ATOM     13  C   UNL     1      51.874   2.742  17.711  0.00  0.00    +0.000 A 
ATOM     14  C   UNL     1      51.055   1.744  17.229  0.00  0.00    +0.000 A 
ATOM     15  C   UNL     1      49.701   2.019  17.115  0.00  0.00    +0.000 A 
ATOM     16  C   UNL     1      49.192   3.285  17.467  0.00  0.00    +0.000 A 
BRANCH  16  17
ATOM     17  C   UNL     1      47.715   3.503  17.301  0.00  0.00    +0.000 C 
ATOM     18  F   UNL     1      47.202   4.560  17.979  0.00  0.00    +0.000 F 
ATOM     19  F   UNL     1      47.370   3.697  15.995  0.00  0.00    +0.000 F 
ATOM     20  F   UNL     1      46.991   2.420  17.706  0.00  0.00    +0.000 F 
ENDBRANCH  16  17
ENDBRANCH  10  11
ENDBRANCH   6  10
ENDBRANCH   1   2
BRANCH   1  21
ATOM     21  N   UNL     1      47.789   6.720  11.713  0.00  0.00    +0.000 N 
ATOM     22  C   UNL     1      46.434   6.849  11.536  0.00  0.00    +0.000 C 
ATOM     23  O   UNL     1      45.821   7.866  11.849  0.00  0.00    +0.000 OA
ATOM     24  H   UNL     1      48.177   5.786  11.773  0.00  0.00    +0.000 HD
BRANCH  22  25
ATOM     25  C   UNL     1      45.755   5.726  10.880  0.00  0.00    +0.000 A 
ATOM     26  C   UNL     1      45.845   5.579   9.502  0.00  0.00    +0.000 A 
ATOM     27  S   UNL     1      45.028   4.206   8.907  0.00  0.00    +0.000 S 
ATOM     28  C   UNL     1      44.482   3.790  10.463  0.00  0.00    +0.000 A 
ATOM     29  N   UNL     1      43.674   2.711  10.661  0.00  0.00    +0.000 NA
ATOM     30  C   UNL     1      43.313   2.530  11.882  0.00  0.00    +0.000 A 
ATOM     31  N   UNL     1      43.695   3.325  12.937  0.00  0.00    +0.000 N 
ATOM     32  C   UNL     1      44.544   4.399  12.799  0.00  0.00    +0.000 A 
ATOM     33  O   UNL     1      44.933   5.044  13.764  0.00  0.00    +0.000 OA
ATOM     34  C   UNL     1      44.947   4.665  11.429  0.00  0.00    +0.000 A 
ATOM     35  H   UNL     1      43.390   3.114  13.875  0.00  0.00    +0.000 HD
ENDBRANCH  22  25
ENDBRANCH   1  21
BRANCH   1  36
ATOM     36  N   UNL     1      49.700   7.875  11.388  0.00  0.00    +0.000 NA
ATOM     37  H   UNL     1      49.744   7.028  10.831  0.00  0.00    +0.000 HD
ATOM     38  H   UNL     1      50.553   7.916  11.939  0.00  0.00    +0.000 HD
ENDBRANCH   1  36
TORSDOF 7
ENDMDL
MODEL 3
REMARK VINA RESULT:    -7.583      3.133      5.139
REMARK INTER + INTRA:         -11.862
REMARK INTER:                 -10.736
REMARK INTRA:                  -1.126
REMARK UNBOUND:                -1.397
REMARK  Name = 
REMARK  7 active torsions:
REMARK  status: ('A' for Active; 'I' for Inactive)
REMARK    1  A    between atoms: N_1  and  C_2
REMARK    2  A    between atoms: C_2  and  N_3
REMARK    3  A    between atoms: C_2  and  C_16
REMARK    4  A    between atoms: C_4  and  C_6
REMARK    5  A    between atoms: N_20  and  C_21
REMARK    6  A    between atoms: C_21  and  C_22
REMARK    7  A    between atoms: C_27  and  C_28
REMARK                            x       y       z     vdW  Elec       q    Type
REMARK                         _______ _______ _______ _____ _____    ______ ____
ROOT
ATOM      1  C   UNL     1      48.544   5.701  16.289  0.00  0.00    +0.000 C 
ENDROOT
BRANCH   1   2
ATOM      2  C   UNL     1      47.978   5.840  14.901  0.00  0.00    +0.000 A 
ATOM      3  C   UNL     1      48.473   6.822  14.038  0.00  0.00    +0.000 A 
ATOM      4  C   UNL     1      47.929   6.964  12.763  0.00  0.00    +0.000 A 
ATOM      5  C   UNL     1      46.870   6.149  12.366  0.00  0.00    +0.000 A 
ATOM      6  N   UNL     1      46.311   6.355  11.109  0.00  0.00    +0.000 N 
ATOM      7  N   UNL     1      46.377   5.199  13.179  0.00  0.00    +0.000 NA
ATOM      8  C   UNL     1      46.945   5.055  14.404  0.00  0.00    +0.000 A 
ATOM      9  H   UNL     1      46.964   6.129  10.360  0.00  0.00    +0.000 HD
BRANCH   6  10
ATOM     10  C   UNL     1      44.979   5.801  10.857  0.00  0.00    +0.000 C 
BRANCH  10  11
ATOM     11  C   UNL     1      45.053   4.591   9.918  0.00  0.00    +0.000 A 
ATOM     12  N   UNL     1      45.743   4.786   8.751  0.00  0.00    +0.000 NA
ATOM     13  C   UNL     1      45.814   3.777   7.859  0.00  0.00    +0.000 A 
ATOM     14  C   UNL     1      45.257   2.534   8.068  0.00  0.00    +0.000 A 
ATOM     15  C   UNL     1      44.583   2.320   9.260  0.00  0.00    +0.000 A 
ATOM     16  C   UNL     1      44.465   3.351  10.214  0.00  0.00    +0.000 A 
BRANCH  16  17
ATOM     17  C   UNL     1      43.709   3.039  11.474  0.00  0.00    +0.000 C 
ATOM     18  F   UNL     1      42.774   3.954  11.835  0.00  0.00    +0.000 F 
ATOM     19  F   UNL     1      43.050   1.847  11.392  0.00  0.00    +0.000 F 
ATOM     20  F   UNL     1      44.538   2.917  12.549  0.00  0.00    +0.000 F 
ENDBRANCH  16  17
ENDBRANCH  10  11
ENDBRANCH   6  10
ENDBRANCH   1   2
BRANCH   1  21
ATOM     21  N   UNL     1      48.073   6.665  17.229  0.00  0.00    +0.000 N 
ATOM     22  C   UNL     1      48.503   6.662  18.533  0.00  0.00    +0.000 C 
ATOM     23  O   UNL     1      49.316   5.847  18.958  0.00  0.00    +0.000 OA
ATOM     24  H   UNL     1      47.182   7.102  17.019  0.00  0.00    +0.000 HD
BRANCH  22  25
ATOM     25  C   UNL     1      47.993   7.742  19.386  0.00  0.00    +0.000 A 
ATOM     26  C   UNL     1      47.677   7.479  20.712  0.00  0.00    +0.000 A 
ATOM     27  S   UNL     1      47.132   8.848  21.569  0.00  0.00    +0.000 S 
ATOM     28  C   UNL     1      47.249   9.829  20.184  0.00  0.00    +0.000 A 
ATOM     29  N   UNL     1      46.882  11.140  20.216  0.00  0.00    +0.000 NA
ATOM     30  C   UNL     1      46.994  11.754  19.091  0.00  0.00    +0.000 A 
ATOM     31  N   UNL     1      47.453  11.181  17.929  0.00  0.00    +0.000 N 
ATOM     32  C   UNL     1      47.878   9.875  17.853  0.00  0.00    +0.000 A 
ATOM     33  O   UNL     1      48.357   9.409  16.827  0.00  0.00    +0.000 OA
ATOM     34  C   UNL     1      47.733   9.130  19.092  0.00  0.00    +0.000 A 
ATOM     35  H   UNL     1      47.534  11.728  17.085  0.00  0.00    +0.000 HD
ENDBRANCH  22  25
ENDBRANCH   1  21
BRANCH   1  36
ATOM     36  N   UNL     1      49.977   5.917  16.279  0.00  0.00    +0.000 NA
ATOM     37  H   UNL     1      50.311   5.784  15.329  0.00  0.00    +0.000 HD
ATOM     38  H   UNL     1      50.420   5.206  16.854  0.00  0.00    +0.000 HD
ENDBRANCH   1  36
TORSDOF 7
ENDMDL
MODEL 4
REMARK VINA RESULT:    -7.221      2.622      3.213
REMARK INTER + INTRA:         -11.362
REMARK INTER:                 -10.538
REMARK INTRA:                  -0.824
REMARK UNBOUND:                -1.397
REMARK  Name = 
REMARK  7 active torsions:
REMARK  status: ('A' for Active; 'I' for Inactive)
REMARK    1  A    between atoms: N_1  and  C_2
REMARK    2  A    between atoms: C_2  and  N_3
REMARK    3  A    between atoms: C_2  and  C_16
REMARK    4  A    between atoms: C_4  and  C_6
REMARK    5  A    between atoms: N_20  and  C_21
REMARK    6  A    between atoms: C_21  and  C_22
REMARK    7  A    between atoms: C_27  and  C_28
REMARK                            x       y       z     vdW  Elec       q    Type
REMARK                         _______ _______ _______ _____ _____    ______ ____
ROOT
ATOM      1  C   UNL     1      47.991   8.443  14.109  0.00  0.00    +0.000 C 
ENDROOT
BRANCH   1   2
ATOM      2  C   UNL     1      46.847   8.030  13.221  0.00  0.00    +0.000 A 
ATOM      3  C   UNL     1      46.067   9.001  12.588  0.00  0.00    +0.000 A 
ATOM      4  C   UNL     1      44.992   8.615  11.789  0.00  0.00    +0.000 A 
ATOM      5  C   UNL     1      44.679   7.264  11.653  0.00  0.00    +0.000 A 
ATOM      6  N   UNL     1      43.566   6.915  10.895  0.00  0.00    +0.000 N 
ATOM      7  N   UNL     1      45.414   6.312  12.254  0.00  0.00    +0.000 NA
ATOM      8  C   UNL     1      46.477   6.710  12.999  0.00  0.00    +0.000 A 
ATOM      9  H   UNL     1      43.690   7.140   9.910  0.00  0.00    +0.000 HD
BRANCH   6  10
ATOM     10  C   UNL     1      43.008   5.573  11.082  0.00  0.00    +0.000 C 
BRANCH  10  11
ATOM     11  C   UNL     1      43.795   4.532  10.276  0.00  0.00    +0.000 A 
ATOM     12  N   UNL     1      43.953   4.808   8.944  0.00  0.00    +0.000 NA
ATOM     13  C   UNL     1      44.599   3.915   8.165  0.00  0.00    +0.000 A 
ATOM     14  C   UNL     1      45.147   2.744   8.642  0.00  0.00    +0.000 A 
ATOM     15  C   UNL     1      45.017   2.474   9.995  0.00  0.00    +0.000 A 
ATOM     16  C   UNL     1      44.331   3.366  10.844  0.00  0.00    +0.000 A 
BRANCH  16  17
ATOM     17  C   UNL     1      44.226   2.992  12.294  0.00  0.00    +0.000 C 
ATOM     18  F   UNL     1      43.803   3.980  13.123  0.00  0.00    +0.000 F 
ATOM     19  F   UNL     1      43.368   1.949  12.492  0.00  0.00    +0.000 F 
ATOM     20  F   UNL     1      45.421   2.574  12.802  0.00  0.00    +0.000 F 
ENDBRANCH  16  17
ENDBRANCH  10  11
ENDBRANCH   6  10
ENDBRANCH   1   2
BRANCH   1  21
ATOM     21  N   UNL     1      48.218   7.595  15.231  0.00  0.00    +0.000 N 
ATOM     22  C   UNL     1      49.403   6.918  15.389  0.00  0.00    +0.000 C 
ATOM     23  O   UNL     1      50.328   7.012  14.588  0.00  0.00    +0.000 OA
ATOM     24  H   UNL     1      47.394   7.231  15.697  0.00  0.00    +0.000 HD
BRANCH  22  25
ATOM     25  C   UNL     1      49.539   6.126  16.616  0.00  0.00    +0.000 A 
ATOM     26  C   UNL     1      50.517   6.458  17.544  0.00  0.00    +0.000 A 
ATOM     27  S   UNL     1      50.517   5.458  18.926  0.00  0.00    +0.000 S 
ATOM     28  C   UNL     1      49.243   4.514  18.307  0.00  0.00    +0.000 A 
ATOM     29  N   UNL     1      48.771   3.434  18.990  0.00  0.00    +0.000 NA
ATOM     30  C   UNL     1      47.828   2.794  18.394  0.00  0.00    +0.000 A 
ATOM     31  N   UNL     1      47.299   3.140  17.173  0.00  0.00    +0.000 N 
ATOM     32  C   UNL     1      47.708   4.246  16.463  0.00  0.00    +0.000 A 
ATOM     33  O   UNL     1      47.167   4.578  15.417  0.00  0.00    +0.000 OA
ATOM     34  C   UNL     1      48.799   4.978  17.081  0.00  0.00    +0.000 A 
ATOM     35  H   UNL     1      46.545   2.604  16.770  0.00  0.00    +0.000 HD
ENDBRANCH  22  25
ENDBRANCH   1  21
BRANCH   1  36
ATOM     36  N   UNL     1      47.725   9.734  14.713  0.00  0.00    +0.000 NA
ATOM     37  H   UNL     1      48.609  10.130  15.018  0.00  0.00    +0.000 HD
ATOM     38  H   UNL     1      47.156   9.597  15.543  0.00  0.00    +0.000 HD
ENDBRANCH   1  36
TORSDOF 7
ENDMDL
MODEL 5
REMARK VINA RESULT:    -7.184      4.147      5.293
REMARK INTER + INTRA:         -11.312
REMARK INTER:                 -10.311
REMARK INTRA:                  -1.001
REMARK UNBOUND:                -1.397
REMARK  Name = 
REMARK  7 active torsions:
REMARK  status: ('A' for Active; 'I' for Inactive)
REMARK    1  A    between atoms: N_1  and  C_2
REMARK    2  A    between atoms: C_2  and  N_3
REMARK    3  A    between atoms: C_2  and  C_16
REMARK    4  A    between atoms: C_4  and  C_6
REMARK    5  A    between atoms: N_20  and  C_21
REMARK    6  A    between atoms: C_21  and  C_22
REMARK    7  A    between atoms: C_27  and  C_28
REMARK                            x       y       z     vdW  Elec       q    Type
REMARK                         _______ _______ _______ _____ _____    ______ ____
ROOT
ATOM      1  C   UNL     1      46.234   4.323  14.336  0.00  0.00    +0.000 C 
ENDROOT
BRANCH   1   2
ATOM      2  C   UNL     1      45.808   5.448  13.431  0.00  0.00    +0.000 A 
ATOM      3  C   UNL     1      46.725   6.437  13.064  0.00  0.00    +0.000 A 
ATOM      4  C   UNL     1      46.319   7.492  12.248  0.00  0.00    +0.000 A 
ATOM      5  C   UNL     1      44.991   7.574  11.830  0.00  0.00    +0.000 A 
ATOM      6  N   UNL     1      44.605   8.670  11.065  0.00  0.00    +0.000 N 
ATOM      7  N   UNL     1      44.092   6.635  12.172  0.00  0.00    +0.000 NA
ATOM      8  C   UNL     1      44.518   5.599  12.939  0.00  0.00    +0.000 A 
ATOM      9  H   UNL     1      45.052   8.671  10.149  0.00  0.00    +0.000 HD
BRANCH   6  10
ATOM     10  C   UNL     1      43.174   8.966  10.974  0.00  0.00    +0.000 C 
BRANCH  10  11
ATOM     11  C   UNL     1      42.918  10.187  10.082  0.00  0.00    +0.000 A 
ATOM     12  N   UNL     1      43.844  10.407   9.097  0.00  0.00    +0.000 NA
ATOM     13  C   UNL     1      43.704  11.487   8.301  0.00  0.00    +0.000 A 
ATOM     14  C   UNL     1      42.655  12.375   8.397  0.00  0.00    +0.000 A 
ATOM     15  C   UNL     1      41.698  12.140   9.373  0.00  0.00    +0.000 A 
ATOM     16  C   UNL     1      41.812  11.037  10.242  0.00  0.00    +0.000 A 
BRANCH  16  17
ATOM     17  C   UNL     1      40.739  10.863  11.277  0.00  0.00    +0.000 C 
ATOM     18  F   UNL     1      40.153   9.639  11.309  0.00  0.00    +0.000 F 
ATOM     19  F   UNL     1      41.206  11.083  12.540  0.00  0.00    +0.000 F 
ATOM     20  F   UNL     1      39.720  11.754  11.111  0.00  0.00    +0.000 F 
ENDBRANCH  16  17
ENDBRANCH  10  11
ENDBRANCH   6  10
ENDBRANCH   1   2
BRANCH   1  21
ATOM     21  N   UNL     1      47.286   4.646  15.242  0.00  0.00    +0.000 N 
ATOM     22  C   UNL     1      47.352   4.082  16.492  0.00  0.00    +0.000 C 
ATOM     23  O   UNL     1      46.524   3.269  16.894  0.00  0.00    +0.000 OA
ATOM     24  H   UNL     1      47.756   5.531  15.091  0.00  0.00    +0.000 HD
BRANCH  22  25
ATOM     25  C   UNL     1      48.515   4.447  17.309  0.00  0.00    +0.000 A 
ATOM     26  C   UNL     1      48.513   5.644  18.013  0.00  0.00    +0.000 A 
ATOM     27  S   UNL     1      49.925   5.896  18.934  0.00  0.00    +0.000 S 
ATOM     28  C   UNL     1      50.610   4.439  18.384  0.00  0.00    +0.000 A 
ATOM     29  N   UNL     1      51.861   4.061  18.765  0.00  0.00    +0.000 NA
ATOM     30  C   UNL     1      52.266   2.953  18.251  0.00  0.00    +0.000 A 
ATOM     31  N   UNL     1      51.527   2.174  17.393  0.00  0.00    +0.000 N 
ATOM     32  C   UNL     1      50.242   2.487  17.011  0.00  0.00    +0.000 A 
ATOM     33  O   UNL     1      49.576   1.738  16.309  0.00  0.00    +0.000 OA
ATOM     34  C   UNL     1      49.758   3.751  17.538  0.00  0.00    +0.000 A 
ATOM     35  H   UNL     1      51.899   1.305  17.041  0.00  0.00    +0.000 HD
ENDBRANCH  22  25
ENDBRANCH   1  21
BRANCH   1  36
ATOM     36  N   UNL     1      46.784   3.228  13.561  0.00  0.00    +0.000 NA
ATOM     37  H   UNL     1      47.377   2.673  14.171  0.00  0.00    +0.000 HD
ATOM     38  H   UNL     1      47.379   3.609  12.830  0.00  0.00    +0.000 HD
ENDBRANCH   1  36
TORSDOF 7
ENDMDL
MODEL 6
REMARK VINA RESULT:    -7.098      2.068      3.184
REMARK INTER + INTRA:         -11.192
REMARK INTER:                  -9.899
REMARK INTRA:                  -1.293
REMARK UNBOUND:                -1.397
REMARK  Name = 
REMARK  7 active torsions:
REMARK  status: ('A' for Active; 'I' for Inactive)
REMARK    1  A    between atoms: N_1  and  C_2
REMARK    2  A    between atoms: C_2  and  N_3
REMARK    3  A    between atoms: C_2  and  C_16
REMARK    4  A    between atoms: C_4  and  C_6
REMARK    5  A    between atoms: N_20  and  C_21
REMARK    6  A    between atoms: C_21  and  C_22
REMARK    7  A    between atoms: C_27  and  C_28
REMARK                            x       y       z     vdW  Elec       q    Type
REMARK                         _______ _______ _______ _____ _____    ______ ____
ROOT
ATOM      1  C   UNL     1      49.660   5.112  19.099  0.00  0.00    +0.000 C 
ENDROOT
BRANCH   1   2
ATOM      2  C   UNL     1      48.780   4.837  17.909  0.00  0.00    +0.000 A 
ATOM      3  C   UNL     1      47.790   3.853  17.984  0.00  0.00    +0.000 A 
ATOM      4  C   UNL     1      46.995   3.583  16.871  0.00  0.00    +0.000 A 
ATOM      5  C   UNL     1      47.213   4.271  15.679  0.00  0.00    +0.000 A 
ATOM      6  N   UNL     1      46.442   3.937  14.571  0.00  0.00    +0.000 N 
ATOM      7  N   UNL     1      48.161   5.221  15.583  0.00  0.00    +0.000 NA
ATOM      8  C   UNL     1      48.900   5.491  16.690  0.00  0.00    +0.000 A 
ATOM      9  H   UNL     1      45.460   4.176  14.704  0.00  0.00    +0.000 HD
BRANCH   6  10
ATOM     10  C   UNL     1      46.928   4.350  13.252  0.00  0.00    +0.000 C 
BRANCH  10  11
ATOM     11  C   UNL     1      46.012   5.414  12.634  0.00  0.00    +0.000 A 
ATOM     12  N   UNL     1      46.378   6.714  12.856  0.00  0.00    +0.000 NA
ATOM     13  C   UNL     1      45.596   7.703  12.376  0.00  0.00    +0.000 A 
ATOM     14  C   UNL     1      44.454   7.481  11.637  0.00  0.00    +0.000 A 
ATOM     15  C   UNL     1      44.095   6.166  11.384  0.00  0.00    +0.000 A 
ATOM     16  C   UNL     1      44.870   5.099  11.882  0.00  0.00    +0.000 A 
BRANCH  16  17
ATOM     17  C   UNL     1      44.403   3.706  11.571  0.00  0.00    +0.000 C 
ATOM     18  F   UNL     1      44.055   2.954  12.645  0.00  0.00    +0.000 F 
ATOM     19  F   UNL     1      43.314   3.704  10.748  0.00  0.00    +0.000 F 
ATOM     20  F   UNL     1      45.354   2.986  10.910  0.00  0.00    +0.000 F 
ENDBRANCH  16  17
ENDBRANCH  10  11
ENDBRANCH   6  10
ENDBRANCH   1   2
BRANCH   1  21
ATOM     21  N   UNL     1      50.753   4.210  19.260  0.00  0.00    +0.000 N 
ATOM     22  C   UNL     1      51.998   4.498  18.757  0.00  0.00    +0.000 C 
ATOM     23  O   UNL     1      52.243   5.540  18.156  0.00  0.00    +0.000 OA
ATOM     24  H   UNL     1      50.516   3.238  19.424  0.00  0.00    +0.000 HD
BRANCH  22  25
ATOM     25  C   UNL     1      53.054   3.520  19.041  0.00  0.00    +0.000 A 
ATOM     26  C   UNL     1      54.092   3.859  19.898  0.00  0.00    +0.000 A 
ATOM     27  S   UNL     1      55.214   2.598  20.145  0.00  0.00    +0.000 S 
ATOM     28  C   UNL     1      54.379   1.573  19.074  0.00  0.00    +0.000 A 
ATOM     29  N   UNL     1      54.841   0.324  18.790  0.00  0.00    +0.000 NA
ATOM     30  C   UNL     1      54.128  -0.331  17.942  0.00  0.00    +0.000 A 
ATOM     31  N   UNL     1      52.980   0.144  17.355  0.00  0.00    +0.000 N 
ATOM     32  C   UNL     1      52.446   1.380  17.640  0.00  0.00    +0.000 A 
ATOM     33  O   UNL     1      51.380   1.749  17.164  0.00  0.00    +0.000 OA
ATOM     34  C   UNL     1      53.240   2.171  18.564  0.00  0.00    +0.000 A 
ATOM     35  H   UNL     1      52.457  -0.431  16.711  0.00  0.00    +0.000 HD
ENDBRANCH  22  25
ENDBRANCH   1  21
BRANCH   1  36
ATOM     36  N   UNL     1      48.913   4.956  20.331  0.00  0.00    +0.000 NA
ATOM     37  H   UNL     1      49.306   5.586  21.023  0.00  0.00    +0.000 HD
ATOM     38  H   UNL     1      49.045   4.010  20.678  0.00  0.00    +0.000 HD
ENDBRANCH   1  36
TORSDOF 7
ENDMDL
MODEL 7
REMARK VINA RESULT:    -6.799      3.999      6.220
REMARK INTER + INTRA:         -10.781
REMARK INTER:                  -9.574
REMARK INTRA:                  -1.206
REMARK UNBOUND:                -1.397
REMARK  Name = 
REMARK  7 active torsions:
REMARK  status: ('A' for Active; 'I' for Inactive)
REMARK    1  A    between atoms: N_1  and  C_2
REMARK    2  A    between atoms: C_2  and  N_3
REMARK    3  A    between atoms: C_2  and  C_16
REMARK    4  A    between atoms: C_4  and  C_6
REMARK    5  A    between atoms: N_20  and  C_21
REMARK    6  A    between atoms: C_21  and  C_22
REMARK    7  A    between atoms: C_27  and  C_28
REMARK                            x       y       z     vdW  Elec       q    Type
REMARK                         _______ _______ _______ _____ _____    ______ ____
ROOT
ATOM      1  C   UNL     1      49.544   5.456  18.851  0.00  0.00    +0.000 C 
ENDROOT
BRANCH   1   2
ATOM      2  C   UNL     1      48.826   4.877  17.661  0.00  0.00    +0.000 A 
ATOM      3  C   UNL     1      48.568   3.505  17.600  0.00  0.00    +0.000 A 
ATOM      4  C   UNL     1      47.927   2.968  16.484  0.00  0.00    +0.000 A 
ATOM      5  C   UNL     1      47.578   3.797  15.420  0.00  0.00    +0.000 A 
ATOM      6  N   UNL     1      46.992   3.221  14.297  0.00  0.00    +0.000 N 
ATOM      7  N   UNL     1      47.817   5.120  15.456  0.00  0.00    +0.000 NA
ATOM      8  C   UNL     1      48.411   5.626  16.567  0.00  0.00    +0.000 A 
ATOM      9  H   UNL     1      46.069   2.842  14.502  0.00  0.00    +0.000 HD
BRANCH   6  10
ATOM     10  C   UNL     1      47.000   3.994  13.053  0.00  0.00    +0.000 C 
BRANCH  10  11
ATOM     11  C   UNL     1      45.577   4.194  12.518  0.00  0.00    +0.000 A 
ATOM     12  N   UNL     1      44.757   3.100  12.590  0.00  0.00    +0.000 NA
ATOM     13  C   UNL     1      43.503   3.191  12.099  0.00  0.00    +0.000 A 
ATOM     14  C   UNL     1      42.980   4.344  11.554  0.00  0.00    +0.000 A 
ATOM     15  C   UNL     1      43.796   5.464  11.507  0.00  0.00    +0.000 A 
ATOM     16  C   UNL     1      45.120   5.410  11.988  0.00  0.00    +0.000 A 
BRANCH  16  17
ATOM     17  C   UNL     1      45.938   6.665  11.888  0.00  0.00    +0.000 C 
ATOM     18  F   UNL     1      46.431   7.135  13.062  0.00  0.00    +0.000 F 
ATOM     19  F   UNL     1      47.019   6.507  11.069  0.00  0.00    +0.000 F 
ATOM     20  F   UNL     1      45.228   7.697  11.348  0.00  0.00    +0.000 F 
ENDBRANCH  16  17
ENDBRANCH  10  11
ENDBRANCH   6  10
ENDBRANCH   1   2
BRANCH   1  21
ATOM     21  N   UNL     1      49.099   6.750  19.251  0.00  0.00    +0.000 N 
ATOM     22  C   UNL     1      47.893   6.928  19.883  0.00  0.00    +0.000 C 
ATOM     23  O   UNL     1      47.142   5.994  20.148  0.00  0.00    +0.000 OA
ATOM     24  H   UNL     1      49.501   7.539  18.757  0.00  0.00    +0.000 HD
BRANCH  22  25
ATOM     25  C   UNL     1      47.575   8.299  20.300  0.00  0.00    +0.000 A 
ATOM     26  C   UNL     1      47.259   8.558  21.627  0.00  0.00    +0.000 A 
ATOM     27  S   UNL     1      46.949  10.204  21.946  0.00  0.00    +0.000 S 
ATOM     28  C   UNL     1      47.176  10.619  20.312  0.00  0.00    +0.000 A 
ATOM     29  N   UNL     1      47.012  11.901  19.882  0.00  0.00    +0.000 NA
ATOM     30  C   UNL     1      47.185  12.068  18.618  0.00  0.00    +0.000 A 
ATOM     31  N   UNL     1      47.522  11.068  17.737  0.00  0.00    +0.000 N 
ATOM     32  C   UNL     1      47.743   9.767  18.125  0.00  0.00    +0.000 A 
ATOM     33  O   UNL     1      48.119   8.911  17.335  0.00  0.00    +0.000 OA
ATOM     34  C   UNL     1      47.520   9.524  19.540  0.00  0.00    +0.000 A 
ATOM     35  H   UNL     1      47.662  11.273  16.758  0.00  0.00    +0.000 HD
ENDBRANCH  22  25
ENDBRANCH   1  21
BRANCH   1  36
ATOM     36  N   UNL     1      50.947   5.664  18.547  0.00  0.00    +0.000 NA
ATOM     37  H   UNL     1      51.426   5.908  19.408  0.00  0.00    +0.000 HD
ATOM     38  H   UNL     1      51.033   6.460  17.921  0.00  0.00    +0.000 HD
ENDBRANCH   1  36
TORSDOF 7
ENDMDL
MODEL 8
REMARK VINA RESULT:    -6.713      2.988      3.981
REMARK INTER + INTRA:         -10.662
REMARK INTER:                  -9.728
REMARK INTRA:                  -0.934
REMARK UNBOUND:                -1.397
REMARK  Name = 
REMARK  7 active torsions:
REMARK  status: ('A' for Active; 'I' for Inactive)
REMARK    1  A    between atoms: N_1  and  C_2
REMARK    2  A    between atoms: C_2  and  N_3
REMARK    3  A    between atoms: C_2  and  C_16
REMARK    4  A    between atoms: C_4  and  C_6
REMARK    5  A    between atoms: N_20  and  C_21
REMARK    6  A    between atoms: C_21  and  C_22
REMARK    7  A    between atoms: C_27  and  C_28
REMARK                            x       y       z     vdW  Elec       q    Type
REMARK                         _______ _______ _______ _____ _____    ______ ____
ROOT
ATOM      1  C   UNL     1      48.548   8.328  14.972  0.00  0.00    +0.000 C 
ENDROOT
BRANCH   1   2
ATOM      2  C   UNL     1      47.654   7.931  13.827  0.00  0.00    +0.000 A 
ATOM      3  C   UNL     1      47.290   8.876  12.864  0.00  0.00    +0.000 A 
ATOM      4  C   UNL     1      46.441   8.512  11.820  0.00  0.00    +0.000 A 
ATOM      5  C   UNL     1      45.931   7.216  11.761  0.00  0.00    +0.000 A 
ATOM      6  N   UNL     1      45.041   6.901  10.740  0.00  0.00    +0.000 N 
ATOM      7  N   UNL     1      46.267   6.291  12.677  0.00  0.00    +0.000 NA
ATOM      8  C   UNL     1      47.123   6.658  13.665  0.00  0.00    +0.000 A 
ATOM      9  H   UNL     1      45.486   6.929   9.824  0.00  0.00    +0.000 HD
BRANCH   6  10
ATOM     10  C   UNL     1      44.211   5.705  10.905  0.00  0.00    +0.000 C 
BRANCH  10  11
ATOM     11  C   UNL     1      44.700   4.564  10.005  0.00  0.00    +0.000 A 
ATOM     12  N   UNL     1      45.444   4.942   8.920  0.00  0.00    +0.000 NA
ATOM     13  C   UNL     1      45.873   3.993   8.062  0.00  0.00    +0.000 A 
ATOM     14  C   UNL     1      45.635   2.647   8.232  0.00  0.00    +0.000 A 
ATOM     15  C   UNL     1      44.908   2.256   9.346  0.00  0.00    +0.000 A 
ATOM     16  C   UNL     1      44.420   3.212  10.259  0.00  0.00    +0.000 A 
BRANCH  16  17
ATOM     17  C   UNL     1      43.632   2.704  11.432  0.00  0.00    +0.000 C 
ATOM     18  F   UNL     1      43.120   1.455  11.293  0.00  0.00    +0.000 F 
ATOM     19  F   UNL     1      44.378   2.674  12.574  0.00  0.00    +0.000 F 
ATOM     20  F   UNL     1      42.569   3.508  11.719  0.00  0.00    +0.000 F 
ENDBRANCH  16  17
ENDBRANCH  10  11
ENDBRANCH   6  10
ENDBRANCH   1   2
BRANCH   1  21
ATOM     21  N   UNL     1      48.354   7.583  16.171  0.00  0.00    +0.000 N 
ATOM     22  C   UNL     1      49.242   6.611  16.561  0.00  0.00    +0.000 C 
ATOM     23  O   UNL     1      50.247   6.336  15.912  0.00  0.00    +0.000 OA
ATOM     24  H   UNL     1      47.405   7.533  16.524  0.00  0.00    +0.000 HD
BRANCH  22  25
ATOM     25  C   UNL     1      48.967   5.957  17.846  0.00  0.00    +0.000 A 
ATOM     26  C   UNL     1      49.190   4.594  17.986  0.00  0.00    +0.000 A 
ATOM     27  S   UNL     1      48.851   4.003  19.549  0.00  0.00    +0.000 S 
ATOM     28  C   UNL     1      48.344   5.539  20.078  0.00  0.00    +0.000 A 
ATOM     29  N   UNL     1      47.873   5.729  21.342  0.00  0.00    +0.000 NA
ATOM     30  C   UNL     1      47.497   6.932  21.598  0.00  0.00    +0.000 A 
ATOM     31  N   UNL     1      47.558   7.977  20.706  0.00  0.00    +0.000 N 
ATOM     32  C   UNL     1      48.065   7.849  19.434  0.00  0.00    +0.000 A 
ATOM     33  O   UNL     1      48.182   8.811  18.685  0.00  0.00    +0.000 OA
ATOM     34  C   UNL     1      48.467   6.497  19.087  0.00  0.00    +0.000 A 
ATOM     35  H   UNL     1      47.263   8.902  20.980  0.00  0.00    +0.000 HD
ENDBRANCH  22  25
ENDBRANCH   1  21
BRANCH   1  36
ATOM     36  N   UNL     1      48.278   9.693  15.378  0.00  0.00    +0.000 NA
ATOM     37  H   UNL     1      48.934  10.303  14.899  0.00  0.00    +0.000 HD
ATOM     38  H   UNL     1      48.460   9.781  16.374  0.00  0.00    +0.000 HD
ENDBRANCH   1  36
TORSDOF 7
ENDMDL
MODEL 9
REMARK VINA RESULT:    -6.614      1.849      2.108
REMARK INTER + INTRA:         -10.525
REMARK INTER:                  -9.841
REMARK INTRA:                  -0.684
REMARK UNBOUND:                -1.397
REMARK  Name = 
REMARK  7 active torsions:
REMARK  status: ('A' for Active; 'I' for Inactive)
REMARK    1  A    between atoms: N_1  and  C_2
REMARK    2  A    between atoms: C_2  and  N_3
REMARK    3  A    between atoms: C_2  and  C_16
REMARK    4  A    between atoms: C_4  and  C_6
REMARK    5  A    between atoms: N_20  and  C_21
REMARK    6  A    between atoms: C_21  and  C_22
REMARK    7  A    between atoms: C_27  and  C_28
REMARK                            x       y       z     vdW  Elec       q    Type
REMARK                         _______ _______ _______ _____ _____    ______ ____
ROOT
ATOM      1  C   UNL     1      47.672   4.636  16.782  0.00  0.00    +0.000 C 
ENDROOT
BRANCH   1   2
ATOM      2  C   UNL     1      47.361   5.012  15.357  0.00  0.00    +0.000 A 
ATOM      3  C   UNL     1      48.071   6.042  14.734  0.00  0.00    +0.000 A 
ATOM      4  C   UNL     1      47.762   6.404  13.424  0.00  0.00    +0.000 A 
ATOM      5  C   UNL     1      46.723   5.762  12.753  0.00  0.00    +0.000 A 
ATOM      6  N   UNL     1      46.401   6.187  11.469  0.00  0.00    +0.000 N 
ATOM      7  N   UNL     1      46.025   4.769  13.333  0.00  0.00    +0.000 NA
ATOM      8  C   UNL     1      46.367   4.409  14.597  0.00  0.00    +0.000 A 
ATOM      9  H   UNL     1      47.150   5.994  10.806  0.00  0.00    +0.000 HD
BRANCH   6  10
ATOM     10  C   UNL     1      45.090   5.810  10.935  0.00  0.00    +0.000 C 
BRANCH  10  11
ATOM     11  C   UNL     1      45.221   4.705   9.880  0.00  0.00    +0.000 A 
ATOM     12  N   UNL     1      45.963   5.024   8.774  0.00  0.00    +0.000 NA
ATOM     13  C   UNL     1      46.086   4.114   7.786  0.00  0.00    +0.000 A 
ATOM     14  C   UNL     1      45.532   2.853   7.838  0.00  0.00    +0.000 A 
ATOM     15  C   UNL     1      44.805   2.513   8.968  0.00  0.00    +0.000 A 
ATOM     16  C   UNL     1      44.631   3.438  10.017  0.00  0.00    +0.000 A 
BRANCH  16  17
ATOM     17  C   UNL     1      43.820   2.993  11.199  0.00  0.00    +0.000 C 
ATOM     18  F   UNL     1      44.513   2.833  12.355  0.00  0.00    +0.000 F 
ATOM     19  F   UNL     1      42.814   3.869  11.488  0.00  0.00    +0.000 F 
ATOM     20  F   UNL     1      43.201   1.799  10.974  0.00  0.00    +0.000 F 
ENDBRANCH  16  17
ENDBRANCH  10  11
ENDBRANCH   6  10
ENDBRANCH   1   2
BRANCH   1  21
ATOM     21  N   UNL     1      49.061   4.543  17.090  0.00  0.00    +0.000 N 
ATOM     22  C   UNL     1      49.709   5.538  17.780  0.00  0.00    +0.000 C 
ATOM     23  O   UNL     1      49.135   6.548  18.176  0.00  0.00    +0.000 OA
ATOM     24  H   UNL     1      49.614   3.931  16.501  0.00  0.00    +0.000 HD
BRANCH  22  25
ATOM     25  C   UNL     1      51.123   5.297  18.090  0.00  0.00    +0.000 A 
ATOM     26  C   UNL     1      52.073   5.390  17.081  0.00  0.00    +0.000 A 
ATOM     27  S   UNL     1      53.668   5.115  17.618  0.00  0.00    +0.000 S 
ATOM     28  C   UNL     1      53.138   4.811  19.206  0.00  0.00    +0.000 A 
ATOM     29  N   UNL     1      54.016   4.461  20.187  0.00  0.00    +0.000 NA
ATOM     30  C   UNL     1      53.477   4.232  21.332  0.00  0.00    +0.000 A 
ATOM     31  N   UNL     1      52.131   4.329  21.595  0.00  0.00    +0.000 N 
ATOM     32  C   UNL     1      51.208   4.721  20.653  0.00  0.00    +0.000 A 
ATOM     33  O   UNL     1      50.026   4.877  20.932  0.00  0.00    +0.000 OA
ATOM     34  C   UNL     1      51.768   4.953  19.334  0.00  0.00    +0.000 A 
ATOM     35  H   UNL     1      51.776   4.153  22.524  0.00  0.00    +0.000 HD
ENDBRANCH  22  25
ENDBRANCH   1  21
BRANCH   1  36
ATOM     36  N   UNL     1      47.174   3.308  17.078  0.00  0.00    +0.000 NA
ATOM     37  H   UNL     1      47.704   2.936  17.859  0.00  0.00    +0.000 HD
ATOM     38  H   UNL     1      47.353   2.704  16.280  0.00  0.00    +0.000 HD
ENDBRANCH   1  36
TORSDOF 7
ENDMDL
