MODEL 1
REMARK VINA RESULT:    -7.391      0.000      0.000
REMARK INTER + INTRA:          -9.874
REMARK INTER:                  -9.120
REMARK INTRA:                  -0.755
REMARK UNBOUND:                -0.755
REMARK  Name = 
REMARK  6 active torsions:
REMARK  status: ('A' for Active; 'I' for Inactive)
REMARK    1  A    between atoms: C_1  and  C_2
REMARK    2  A    between atoms: C_4  and  C_5
REMARK    3  A    between atoms: C_7  and  O_8
REMARK    4  A    between atoms: O_8  and  C_9
REMARK    5  A    between atoms: C_9  and  C_10
REMARK    6  A    between atoms: C_14  and  C_15
REMARK                            x       y       z     vdW  Elec       q    Type
REMARK                         _______ _______ _______ _____ _____    ______ ____
ROOT
ATOM      1  C   UNL     1      45.157   6.349  11.515  0.00  0.00    +0.000 A 
ATOM      2  C   UNL     1      43.787   6.164  11.734  0.00  0.00    +0.000 A 
ATOM      3  C   UNL     1      43.104   5.190  11.029  0.00  0.00    +0.000 A 
ATOM      4  N   UNL     1      43.680   4.390  10.111  0.00  0.00    +0.000 NA
ATOM      5  C   UNL     1      45.009   4.539   9.897  0.00  0.00    +0.000 A 
ATOM      6  C   UNL     1      45.761   5.493  10.584  0.00  0.00    +0.000 A 
ENDROOT
BRANCH   5   7
ATOM      7  C   UNL     1      45.599   3.662   8.871  0.00  0.00    +0.000 A 
ATOM      8  C   UNL     1      46.231   4.197   7.739  0.00  0.00    +0.000 A 
ATOM      9  C   UNL     1      46.799   3.342   6.807  0.00  0.00    +0.000 A 
ATOM     10  N   UNL     1      46.782   1.998   6.915  0.00  0.00    +0.000 NA
ATOM     11  C   UNL     1      46.161   1.498   7.997  0.00  0.00    +0.000 A 
ATOM     12  F   UNL     1      46.125   0.164   8.131  0.00  0.00    +0.000 F 
ATOM     13  C   UNL     1      45.565   2.266   8.981  0.00  0.00    +0.000 A 
ENDBRANCH   5   7
BRANCH   1  14
ATOM     14  C   UNL     1      45.934   7.452  12.213  0.00  0.00    +0.000 C 
ATOM     15  C   UNL     1      46.953   7.091  13.293  0.00  0.00    +0.000 C 
ATOM     16  C   UNL     1      47.423   7.525  11.948  0.00  0.00    +0.000 C 
BRANCH  14  17
ATOM     17  O   UNL     1      45.203   8.634  12.619  0.00  0.00    +0.000 OA
BRANCH  17  24
ATOM     18  C   UNL     1      42.876  10.842   8.977  0.00  0.00    +0.000 C 
ATOM     19  C   UNL     1      44.013  10.784   9.951  0.00  0.00    +0.000 A 
ATOM     20  C   UNL     1      45.000  11.771   9.982  0.00  0.00    +0.000 A 
ATOM     21  C   UNL     1      46.040  11.664  10.904  0.00  0.00    +0.000 A 
ATOM     22  C   UNL     1      47.133  12.688  10.957  0.00  0.00    +0.000 C 
ATOM     23  N   UNL     1      46.131  10.649  11.794  0.00  0.00    +0.000 NA
ATOM     24  C   UNL     1      45.172   9.704  11.744  0.00  0.00    +0.000 A 
ATOM     25  C   UNL     1      44.103   9.732  10.862  0.00  0.00    +0.000 A 
ENDBRANCH  17  24
ENDBRANCH  14  17
ENDBRANCH   1  14
TORSDOF 4
ENDMDL
MODEL 2
REMARK VINA RESULT:    -7.337      0.554      1.724
REMARK INTER + INTRA:          -9.807
REMARK INTER:                  -9.135
REMARK INTRA:                  -0.673
REMARK UNBOUND:                -0.755
REMARK  Name = 
REMARK  6 active torsions:
REMARK  status: ('A' for Active; 'I' for Inactive)
REMARK    1  A    between atoms: C_1  and  C_2
REMARK    2  A    between atoms: C_4  and  C_5
REMARK    3  A    between atoms: C_7  and  O_8
REMARK    4  A    between atoms: O_8  and  C_9
REMARK    5  A    between atoms: C_9  and  C_10
REMARK    6  A    between atoms: C_14  and  C_15
REMARK                            x       y       z     vdW  Elec       q    Type
REMARK                         _______ _______ _______ _____ _____    ______ ____
ROOT
ATOM      1  C   UNL     1      45.180   6.297  11.523  0.00  0.00    +0.000 A 
ATOM      2  C   UNL     1      43.806   6.131  11.734  0.00  0.00    +0.000 A 
ATOM      3  C   UNL     1      43.112   5.177  11.014  0.00  0.00    +0.000 A 
ATOM      4  N   UNL     1      43.679   4.378  10.089  0.00  0.00    +0.000 NA
ATOM      5  C   UNL     1      45.011   4.510   9.883  0.00  0.00    +0.000 A 
ATOM      6  C   UNL     1      45.775   5.443  10.585  0.00  0.00    +0.000 A 
ENDROOT
BRANCH   5   7
ATOM      7  C   UNL     1      45.593   3.636   8.848  0.00  0.00    +0.000 A 
ATOM      8  C   UNL     1      46.209   4.175   7.710  0.00  0.00    +0.000 A 
ATOM      9  C   UNL     1      46.769   3.323   6.770  0.00  0.00    +0.000 A 
ATOM     10  N   UNL     1      46.759   1.979   6.876  0.00  0.00    +0.000 NA
ATOM     11  C   UNL     1      46.153   1.475   7.965  0.00  0.00    +0.000 A 
ATOM     12  F   UNL     1      46.124   0.141   8.098  0.00  0.00    +0.000 F 
ATOM     13  C   UNL     1      45.566   2.240   8.957  0.00  0.00    +0.000 A 
ENDBRANCH   5   7
BRANCH   1  14
ATOM     14  C   UNL     1      45.971   7.379  12.239  0.00  0.00    +0.000 C 
ATOM     15  C   UNL     1      46.993   6.987  13.304  0.00  0.00    +0.000 C 
ATOM     16  C   UNL     1      47.459   7.445  11.965  0.00  0.00    +0.000 C 
BRANCH  14  17
ATOM     17  O   UNL     1      45.252   8.558  12.674  0.00  0.00    +0.000 OA
BRANCH  17  24
ATOM     18  C   UNL     1      47.143  12.713  11.026  0.00  0.00    +0.000 C 
ATOM     19  C   UNL     1      46.084  11.654  10.977  0.00  0.00    +0.000 A 
ATOM     20  C   UNL     1      45.028  11.718  10.066  0.00  0.00    +0.000 A 
ATOM     21  C   UNL     1      44.066  10.708  10.068  0.00  0.00    +0.000 A 
ATOM     22  C   UNL     1      42.903  10.749   9.124  0.00  0.00    +0.000 C 
ATOM     23  N   UNL     1      44.116   9.648  10.907  0.00  0.00    +0.000 NA
ATOM     24  C   UNL     1      45.139   9.608  11.783  0.00  0.00    +0.000 A 
ATOM     25  C   UNL     1      46.139  10.566  11.848  0.00  0.00    +0.000 A 
ENDBRANCH  17  24
ENDBRANCH  14  17
ENDBRANCH   1  14
TORSDOF 4
ENDMDL
MODEL 3
REMARK VINA RESULT:    -7.102      2.234      4.748
REMARK INTER + INTRA:          -9.518
REMARK INTER:                  -8.769
REMARK INTRA:                  -0.749
REMARK UNBOUND:                -0.755
REMARK  Name = 
REMARK  6 active torsions:
REMARK  status: ('A' for Active; 'I' for Inactive)
REMARK    1  A    between atoms: C_1  and  C_2
REMARK    2  A    between atoms: C_4  and  C_5
REMARK    3  A    between atoms: C_7  and  O_8
REMARK    4  A    between atoms: O_8  and  C_9
REMARK    5  A    between atoms: C_9  and  C_10
REMARK    6  A    between atoms: C_14  and  C_15
REMARK                            x       y       z     vdW  Elec       q    Type
REMARK                         _______ _______ _______ _____ _____    ______ ____
ROOT
ATOM      1  C   UNL     1      45.375   6.416  11.534  0.00  0.00    +0.000 A 
ATOM      2  C   UNL     1      43.996   6.332  11.757  0.00  0.00    +0.000 A 
ATOM      3  C   UNL     1      43.240   5.420  11.045  0.00  0.00    +0.000 A 
ATOM      4  N   UNL     1      43.750   4.588  10.117  0.00  0.00    +0.000 NA
ATOM      5  C   UNL     1      45.086   4.640   9.899  0.00  0.00    +0.000 A 
ATOM      6  C   UNL     1      45.910   5.527  10.593  0.00  0.00    +0.000 A 
ENDROOT
BRANCH   5   7
ATOM      7  C   UNL     1      45.606   3.732   8.861  0.00  0.00    +0.000 A 
ATOM      8  C   UNL     1      46.200   4.232   7.694  0.00  0.00    +0.000 A 
ATOM      9  C   UNL     1      46.702   3.348   6.752  0.00  0.00    +0.000 A 
ATOM     10  N   UNL     1      46.655   2.007   6.881  0.00  0.00    +0.000 NA
ATOM     11  C   UNL     1      46.069   1.540   7.998  0.00  0.00    +0.000 A 
ATOM     12  F   UNL     1      46.003   0.210   8.155  0.00  0.00    +0.000 F 
ATOM     13  C   UNL     1      45.540   2.339   8.995  0.00  0.00    +0.000 A 
ENDBRANCH   5   7
BRANCH   1  14
ATOM     14  C   UNL     1      46.235   7.450  12.241  0.00  0.00    +0.000 C 
ATOM     15  C   UNL     1      46.156   8.916  11.815  0.00  0.00    +0.000 C 
ATOM     16  C   UNL     1      45.522   8.481  13.091  0.00  0.00    +0.000 C 
BRANCH  14  17
ATOM     17  O   UNL     1      47.614   7.103  12.511  0.00  0.00    +0.000 OA
BRANCH  17  24
ATOM     18  C   UNL     1      49.832   8.094  16.714  0.00  0.00    +0.000 C 
ATOM     19  C   UNL     1      49.024   7.170  15.853  0.00  0.00    +0.000 A 
ATOM     20  C   UNL     1      48.601   5.923  16.316  0.00  0.00    +0.000 A 
ATOM     21  C   UNL     1      47.858   5.101  15.470  0.00  0.00    +0.000 A 
ATOM     22  C   UNL     1      47.403   3.744  15.916  0.00  0.00    +0.000 C 
ATOM     23  N   UNL     1      47.508   5.463  14.214  0.00  0.00    +0.000 NA
ATOM     24  C   UNL     1      47.930   6.668  13.785  0.00  0.00    +0.000 A 
ATOM     25  C   UNL     1      48.670   7.549  14.558  0.00  0.00    +0.000 A 
ENDBRANCH  17  24
ENDBRANCH  14  17
ENDBRANCH   1  14
TORSDOF 4
ENDMDL
MODEL 4
REMARK VINA RESULT:    -6.795      3.641      6.337
REMARK INTER + INTRA:          -9.139
REMARK INTER:                  -8.344
REMARK INTRA:                  -0.795
REMARK UNBOUND:                -0.755
REMARK  Name = 
REMARK  6 active torsions:
REMARK  status: ('A' for Active; 'I' for Inactive)
REMARK    1  A    between atoms: C_1  and  C_2
REMARK    2  A    between atoms: C_4  and  C_5
REMARK    3  A    between atoms: C_7  and  O_8
REMARK    4  A    between atoms: O_8  and  C_9
REMARK    5  A    between atoms: C_9  and  C_10
REMARK    6  A    between atoms: C_14  and  C_15
REMARK                            x       y       z     vdW  Elec       q    Type
REMARK                         _______ _______ _______ _____ _____    ______ ____
ROOT
ATOM      1  C   UNL     1      47.716   7.636  13.464  0.00  0.00    +0.000 A 
ATOM      2  C   UNL     1      46.849   8.733  13.521  0.00  0.00    +0.000 A 
ATOM      3  C   UNL     1      45.612   8.662  12.908  0.00  0.00    +0.000 A 
ATOM      4  N   UNL     1      45.173   7.584  12.231  0.00  0.00    +0.000 NA
ATOM      5  C   UNL     1      45.989   6.504  12.179  0.00  0.00    +0.000 A 
ATOM      6  C   UNL     1      47.245   6.502  12.788  0.00  0.00    +0.000 A 
ENDROOT
BRANCH   5   7
ATOM      7  C   UNL     1      45.486   5.352  11.410  0.00  0.00    +0.000 A 
ATOM      8  C   UNL     1      44.980   4.216  12.059  0.00  0.00    +0.000 A 
ATOM      9  C   UNL     1      44.490   3.162  11.303  0.00  0.00    +0.000 A 
ATOM     10  N   UNL     1      44.468   3.152   9.955  0.00  0.00    +0.000 NA
ATOM     11  C   UNL     1      44.970   4.241   9.346  0.00  0.00    +0.000 A 
ATOM     12  F   UNL     1      44.965   4.259   8.005  0.00  0.00    +0.000 F 
ATOM     13  C   UNL     1      45.480   5.341  10.010  0.00  0.00    +0.000 A 
ENDBRANCH   5   7
BRANCH   1  14
ATOM     14  C   UNL     1      49.112   7.691  14.062  0.00  0.00    +0.000 C 
ATOM     15  C   UNL     1      50.263   8.268  13.239  0.00  0.00    +0.000 C 
ATOM     16  C   UNL     1      49.684   9.060  14.360  0.00  0.00    +0.000 C 
BRANCH  14  17
ATOM     17  O   UNL     1      49.577   6.527  14.787  0.00  0.00    +0.000 OA
BRANCH  17  24
ATOM     18  C   UNL     1      48.040   7.970  19.159  0.00  0.00    +0.000 C 
ATOM     19  C   UNL     1      48.158   6.913  18.103  0.00  0.00    +0.000 A 
ATOM     20  C   UNL     1      47.618   5.638  18.282  0.00  0.00    +0.000 A 
ATOM     21  C   UNL     1      47.763   4.691  17.269  0.00  0.00    +0.000 A 
ATOM     22  C   UNL     1      47.219   3.303  17.427  0.00  0.00    +0.000 C 
ATOM     23  N   UNL     1      48.394   4.954  16.102  0.00  0.00    +0.000 NA
ATOM     24  C   UNL     1      48.914   6.188  15.952  0.00  0.00    +0.000 A 
ATOM     25  C   UNL     1      48.814   7.190  16.904  0.00  0.00    +0.000 A 
ENDBRANCH  17  24
ENDBRANCH  14  17
ENDBRANCH   1  14
TORSDOF 4
ENDMDL
MODEL 5
REMARK VINA RESULT:    -6.469      3.219      5.710
REMARK INTER + INTRA:          -8.737
REMARK INTER:                  -7.921
REMARK INTRA:                  -0.816
REMARK UNBOUND:                -0.755
REMARK  Name = 
REMARK  6 active torsions:
REMARK  status: ('A' for Active; 'I' for Inactive)
REMARK    1  A    between atoms: C_1  and  C_2
REMARK    2  A    between atoms: C_4  and  C_5
REMARK    3  A    between atoms: C_7  and  O_8
REMARK    4  A    between atoms: O_8  and  C_9
REMARK    5  A    between atoms: C_9  and  C_10
REMARK    6  A    between atoms: C_14  and  C_15
REMARK                            x       y       z     vdW  Elec       q    Type
REMARK                         _______ _______ _______ _____ _____    ______ ____
ROOT
ATOM      1  C   UNL     1      47.575   7.595  12.633  0.00  0.00    +0.000 A 
ATOM      2  C   UNL     1      46.767   8.738  12.633  0.00  0.00    +0.000 A 
ATOM      3  C   UNL     1      45.421   8.627  12.336  0.00  0.00    +0.000 A 
ATOM      4  N   UNL     1      44.817   7.464  12.027  0.00  0.00    +0.000 NA
ATOM      5  C   UNL     1      45.577   6.342  12.040  0.00  0.00    +0.000 A 
ATOM      6  C   UNL     1      46.938   6.380  12.344  0.00  0.00    +0.000 A 
ENDROOT
BRANCH   5   7
ATOM      7  C   UNL     1      44.887   5.092  11.675  0.00  0.00    +0.000 A 
ATOM      8  C   UNL     1      44.180   4.351  12.632  0.00  0.00    +0.000 A 
ATOM      9  C   UNL     1      43.520   3.193  12.247  0.00  0.00    +0.000 A 
ATOM     10  N   UNL     1      43.514   2.718  10.986  0.00  0.00    +0.000 NA
ATOM     11  C   UNL     1      44.208   3.431  10.081  0.00  0.00    +0.000 A 
ATOM     12  F   UNL     1      44.223   2.982   8.817  0.00  0.00    +0.000 F 
ATOM     13  C   UNL     1      44.897   4.596  10.365  0.00  0.00    +0.000 A 
ENDBRANCH   5   7
BRANCH   1  14
ATOM     14  C   UNL     1      49.071   7.676  12.884  0.00  0.00    +0.000 C 
ATOM     15  C   UNL     1      50.040   7.583  11.706  0.00  0.00    +0.000 C 
ATOM     16  C   UNL     1      49.796   8.898  12.361  0.00  0.00    +0.000 C 
BRANCH  14  17
ATOM     17  O   UNL     1      49.604   6.930  14.004  0.00  0.00    +0.000 OA
BRANCH  17  24
ATOM     18  C   UNL     1      48.201   5.413  18.396  0.00  0.00    +0.000 C 
ATOM     19  C   UNL     1      48.497   6.524  17.435  0.00  0.00    +0.000 A 
ATOM     20  C   UNL     1      48.360   7.864  17.802  0.00  0.00    +0.000 A 
ATOM     21  C   UNL     1      48.642   8.858  16.865  0.00  0.00    +0.000 A 
ATOM     22  C   UNL     1      48.487  10.308  17.208  0.00  0.00    +0.000 C 
ATOM     23  N   UNL     1      49.063   8.584  15.609  0.00  0.00    +0.000 NA
ATOM     24  C   UNL     1      49.183   7.285  15.272  0.00  0.00    +0.000 A 
ATOM     25  C   UNL     1      48.926   6.235  16.140  0.00  0.00    +0.000 A 
ENDBRANCH  17  24
ENDBRANCH  14  17
ENDBRANCH   1  14
TORSDOF 4
ENDMDL
MODEL 6
REMARK VINA RESULT:    -6.354      5.523      7.917
REMARK INTER + INTRA:          -8.595
REMARK INTER:                  -7.914
REMARK INTRA:                  -0.681
REMARK UNBOUND:                -0.755
REMARK  Name = 
REMARK  6 active torsions:
REMARK  status: ('A' for Active; 'I' for Inactive)
REMARK    1  A    between atoms: C_1  and  C_2
REMARK    2  A    between atoms: C_4  and  C_5
REMARK    3  A    between atoms: C_7  and  O_8
REMARK    4  A    between atoms: O_8  and  C_9
REMARK    5  A    between atoms: C_9  and  C_10
REMARK    6  A    between atoms: C_14  and  C_15
REMARK                            x       y       z     vdW  Elec       q    Type
REMARK                         _______ _______ _______ _____ _____    ______ ____
ROOT
ATOM      1  C   UNL     1      47.675   4.903  15.708  0.00  0.00    +0.000 A 
ATOM      2  C   UNL     1      48.395   5.996  15.212  0.00  0.00    +0.000 A 
ATOM      3  C   UNL     1      48.017   6.581  14.017  0.00  0.00    +0.000 A 
ATOM      4  N   UNL     1      46.981   6.154  13.270  0.00  0.00    +0.000 NA
ATOM      5  C   UNL     1      46.260   5.108  13.742  0.00  0.00    +0.000 A 
ATOM      6  C   UNL     1      46.577   4.481  14.947  0.00  0.00    +0.000 A 
ENDROOT
BRANCH   5   7
ATOM      7  C   UNL     1      45.149   4.654  12.887  0.00  0.00    +0.000 A 
ATOM      8  C   UNL     1      45.218   3.435  12.199  0.00  0.00    +0.000 A 
ATOM      9  C   UNL     1      44.142   3.026  11.425  0.00  0.00    +0.000 A 
ATOM     10  N   UNL     1      43.007   3.740  11.282  0.00  0.00    +0.000 NA
ATOM     11  C   UNL     1      42.960   4.915  11.936  0.00  0.00    +0.000 A 
ATOM     12  F   UNL     1      41.845   5.650  11.811  0.00  0.00    +0.000 F 
ATOM     13  C   UNL     1      43.979   5.408  12.731  0.00  0.00    +0.000 A 
ENDBRANCH   5   7
BRANCH   1  14
ATOM     14  C   UNL     1      48.094   4.184  16.979  0.00  0.00    +0.000 C 
ATOM     15  C   UNL     1      48.549   2.727  16.907  0.00  0.00    +0.000 C 
ATOM     16  C   UNL     1      49.555   3.807  17.112  0.00  0.00    +0.000 C 
BRANCH  14  17
ATOM     17  O   UNL     1      47.275   4.373  18.158  0.00  0.00    +0.000 OA
BRANCH  17  24
ATOM     18  C   UNL     1      47.233   8.994  19.643  0.00  0.00    +0.000 C 
ATOM     19  C   UNL     1      47.671   7.572  19.822  0.00  0.00    +0.000 A 
ATOM     20  C   UNL     1      48.475   7.185  20.896  0.00  0.00    +0.000 A 
ATOM     21  C   UNL     1      48.859   5.849  21.010  0.00  0.00    +0.000 A 
ATOM     22  C   UNL     1      49.740   5.393  22.134  0.00  0.00    +0.000 C 
ATOM     23  N   UNL     1      48.473   4.896  20.131  0.00  0.00    +0.000 NA
ATOM     24  C   UNL     1      47.703   5.291  19.098  0.00  0.00    +0.000 A 
ATOM     25  C   UNL     1      47.274   6.595  18.909  0.00  0.00    +0.000 A 
ENDBRANCH  17  24
ENDBRANCH  14  17
ENDBRANCH   1  14
TORSDOF 4
ENDMDL
MODEL 7
REMARK VINA RESULT:    -6.199      3.481      5.896
REMARK INTER + INTRA:          -8.403
REMARK INTER:                  -7.654
REMARK INTRA:                  -0.749
REMARK UNBOUND:                -0.755
REMARK  Name = 
REMARK  6 active torsions:
REMARK  status: ('A' for Active; 'I' for Inactive)
REMARK    1  A    between atoms: C_1  and  C_2
REMARK    2  A    between atoms: C_4  and  C_5
REMARK    3  A    between atoms: C_7  and  O_8
REMARK    4  A    between atoms: O_8  and  C_9
REMARK    5  A    between atoms: C_9  and  C_10
REMARK    6  A    between atoms: C_14  and  C_15
REMARK                            x       y       z     vdW  Elec       q    Type
REMARK                         _______ _______ _______ _____ _____    ______ ____
ROOT
ATOM      1  C   UNL     1      47.521   7.582  12.340  0.00  0.00    +0.000 A 
ATOM      2  C   UNL     1      46.717   8.723  12.236  0.00  0.00    +0.000 A 
ATOM      3  C   UNL     1      45.379   8.593  11.913  0.00  0.00    +0.000 A 
ATOM      4  N   UNL     1      44.779   7.411  11.675  0.00  0.00    +0.000 NA
ATOM      5  C   UNL     1      45.534   6.292  11.789  0.00  0.00    +0.000 A 
ATOM      6  C   UNL     1      46.888   6.351  12.125  0.00  0.00    +0.000 A 
ENDROOT
BRANCH   5   7
ATOM      7  C   UNL     1      44.850   5.020  11.499  0.00  0.00    +0.000 A 
ATOM      8  C   UNL     1      44.140   4.337  12.497  0.00  0.00    +0.000 A 
ATOM      9  C   UNL     1      43.486   3.156  12.182  0.00  0.00    +0.000 A 
ATOM     10  N   UNL     1      43.487   2.604  10.952  0.00  0.00    +0.000 NA
ATOM     11  C   UNL     1      44.183   3.261  10.008  0.00  0.00    +0.000 A 
ATOM     12  F   UNL     1      44.206   2.735   8.774  0.00  0.00    +0.000 F 
ATOM     13  C   UNL     1      44.867   4.443  10.223  0.00  0.00    +0.000 A 
ENDBRANCH   5   7
BRANCH   1  14
ATOM     14  C   UNL     1      49.010   7.679  12.622  0.00  0.00    +0.000 C 
ATOM     15  C   UNL     1      50.000   7.700  11.458  0.00  0.00    +0.000 C 
ATOM     16  C   UNL     1      49.712   8.955  12.207  0.00  0.00    +0.000 C 
BRANCH  14  17
ATOM     17  O   UNL     1      49.545   6.862  13.691  0.00  0.00    +0.000 OA
BRANCH  17  24
ATOM     18  C   UNL     1      52.892   8.203  16.941  0.00  0.00    +0.000 C 
ATOM     19  C   UNL     1      51.463   8.135  16.495  0.00  0.00    +0.000 A 
ATOM     20  C   UNL     1      50.430   8.674  17.265  0.00  0.00    +0.000 A 
ATOM     21  C   UNL     1      49.118   8.576  16.806  0.00  0.00    +0.000 A 
ATOM     22  C   UNL     1      47.976   9.120  17.611  0.00  0.00    +0.000 C 
ATOM     23  N   UNL     1      48.792   7.995  15.628  0.00  0.00    +0.000 NA
ATOM     24  C   UNL     1      49.802   7.476  14.903  0.00  0.00    +0.000 A 
ATOM     25  C   UNL     1      51.134   7.530  15.282  0.00  0.00    +0.000 A 
ENDBRANCH  17  24
ENDBRANCH  14  17
ENDBRANCH   1  14
TORSDOF 4
ENDMDL
MODEL 8
REMARK VINA RESULT:    -6.197      5.430      7.956
REMARK INTER + INTRA:          -8.401
REMARK INTER:                  -7.784
REMARK INTRA:                  -0.618
REMARK UNBOUND:                -0.755
REMARK  Name = 
REMARK  6 active torsions:
REMARK  status: ('A' for Active; 'I' for Inactive)
REMARK    1  A    between atoms: C_1  and  C_2
REMARK    2  A    between atoms: C_4  and  C_5
REMARK    3  A    between atoms: C_7  and  O_8
REMARK    4  A    between atoms: O_8  and  C_9
REMARK    5  A    between atoms: C_9  and  C_10
REMARK    6  A    between atoms: C_14  and  C_15
REMARK                            x       y       z     vdW  Elec       q    Type
REMARK                         _______ _______ _______ _____ _____    ______ ____
ROOT
ATOM      1  C   UNL     1      47.701   4.927  15.676  0.00  0.00    +0.000 A 
ATOM      2  C   UNL     1      48.422   6.008  15.157  0.00  0.00    +0.000 A 
ATOM      3  C   UNL     1      48.032   6.583  13.961  0.00  0.00    +0.000 A 
ATOM      4  N   UNL     1      46.981   6.156  13.235  0.00  0.00    +0.000 NA
ATOM      5  C   UNL     1      46.258   5.123  13.729  0.00  0.00    +0.000 A 
ATOM      6  C   UNL     1      46.589   4.505  14.936  0.00  0.00    +0.000 A 
ENDROOT
BRANCH   5   7
ATOM      7  C   UNL     1      45.131   4.669  12.896  0.00  0.00    +0.000 A 
ATOM      8  C   UNL     1      45.178   3.439  12.223  0.00  0.00    +0.000 A 
ATOM      9  C   UNL     1      44.087   3.032  11.470  0.00  0.00    +0.000 A 
ATOM     10  N   UNL     1      42.958   3.756  11.333  0.00  0.00    +0.000 NA
ATOM     11  C   UNL     1      42.932   4.939  11.972  0.00  0.00    +0.000 A 
ATOM     12  F   UNL     1      41.823   5.685  11.853  0.00  0.00    +0.000 F 
ATOM     13  C   UNL     1      43.966   5.432  12.746  0.00  0.00    +0.000 A 
ENDBRANCH   5   7
BRANCH   1  14
ATOM     14  C   UNL     1      48.133   4.218  16.948  0.00  0.00    +0.000 C 
ATOM     15  C   UNL     1      48.588   2.760  16.883  0.00  0.00    +0.000 C 
ATOM     16  C   UNL     1      49.595   3.842  17.070  0.00  0.00    +0.000 C 
BRANCH  14  17
ATOM     17  O   UNL     1      47.325   4.416  18.133  0.00  0.00    +0.000 OA
BRANCH  17  24
ATOM     18  C   UNL     1      49.683   5.498  22.236  0.00  0.00    +0.000 C 
ATOM     19  C   UNL     1      48.884   5.924  21.042  0.00  0.00    +0.000 A 
ATOM     20  C   UNL     1      48.549   7.261  20.826  0.00  0.00    +0.000 A 
ATOM     21  C   UNL     1      47.797   7.601  19.702  0.00  0.00    +0.000 A 
ATOM     22  C   UNL     1      47.394   9.021  19.442  0.00  0.00    +0.000 C 
ATOM     23  N   UNL     1      47.386   6.689  18.790  0.00  0.00    +0.000 NA
ATOM     24  C   UNL     1      47.715   5.403  19.019  0.00  0.00    +0.000 A 
ATOM     25  C   UNL     1      48.460   4.978  20.108  0.00  0.00    +0.000 A 
ENDBRANCH  17  24
ENDBRANCH  14  17
ENDBRANCH   1  14
TORSDOF 4
ENDMDL
MODEL 9
REMARK VINA RESULT:    -6.098      3.487      5.967
REMARK INTER + INTRA:          -8.279
REMARK INTER:                  -7.635
REMARK INTRA:                  -0.644
REMARK UNBOUND:                -0.755
REMARK  Name = 
REMARK  6 active torsions:
REMARK  status: ('A' for Active; 'I' for Inactive)
REMARK    1  A    between atoms: C_1  and  C_2
REMARK    2  A    between atoms: C_4  and  C_5
REMARK    3  A    between atoms: C_7  and  O_8
REMARK    4  A    between atoms: O_8  and  C_9
REMARK    5  A    between atoms: C_9  and  C_10
REMARK    6  A    between atoms: C_14  and  C_15
REMARK                            x       y       z     vdW  Elec       q    Type
REMARK                         _______ _______ _______ _____ _____    ______ ____
ROOT
ATOM      1  C   UNL     1      47.041   7.781  12.879  0.00  0.00    +0.000 A 
ATOM      2  C   UNL     1      46.168   8.864  12.720  0.00  0.00    +0.000 A 
ATOM      3  C   UNL     1      45.011   8.711  11.978  0.00  0.00    +0.000 A 
ATOM      4  N   UNL     1      44.659   7.561  11.371  0.00  0.00    +0.000 NA
ATOM      5  C   UNL     1      45.481   6.495  11.527  0.00  0.00    +0.000 A 
ATOM      6  C   UNL     1      46.657   6.577  12.274  0.00  0.00    +0.000 A 
ENDROOT
BRANCH   5   7
ATOM      7  C   UNL     1      45.075   5.262  10.830  0.00  0.00    +0.000 A 
ATOM      8  C   UNL     1      45.481   5.010   9.512  0.00  0.00    +0.000 A 
ATOM      9  C   UNL     1      45.103   3.826   8.897  0.00  0.00    +0.000 A 
ATOM     10  N   UNL     1      44.351   2.879   9.492  0.00  0.00    +0.000 NA
ATOM     11  C   UNL     1      43.957   3.140  10.751  0.00  0.00    +0.000 A 
ATOM     12  F   UNL     1      43.204   2.217  11.369  0.00  0.00    +0.000 F 
ATOM     13  C   UNL     1      44.281   4.288  11.449  0.00  0.00    +0.000 A 
ENDBRANCH   5   7
BRANCH   1  14
ATOM     14  C   UNL     1      48.357   7.920  13.625  0.00  0.00    +0.000 C 
ATOM     15  C   UNL     1      49.311   9.059  13.266  0.00  0.00    +0.000 C 
ATOM     16  C   UNL     1      48.519   9.126  14.526  0.00  0.00    +0.000 C 
BRANCH  14  17
ATOM     17  O   UNL     1      49.120   6.714  13.869  0.00  0.00    +0.000 OA
BRANCH  17  24
ATOM     18  C   UNL     1      47.027   4.200  17.455  0.00  0.00    +0.000 C 
ATOM     19  C   UNL     1      48.169   5.018  16.931  0.00  0.00    +0.000 A 
ATOM     20  C   UNL     1      49.282   5.310  17.722  0.00  0.00    +0.000 A 
ATOM     21  C   UNL     1      50.312   6.081  17.186  0.00  0.00    +0.000 A 
ATOM     22  C   UNL     1      51.515   6.439  18.006  0.00  0.00    +0.000 C 
ATOM     23  N   UNL     1      50.295   6.551  15.917  0.00  0.00    +0.000 NA
ATOM     24  C   UNL     1      49.209   6.263  15.173  0.00  0.00    +0.000 A 
ATOM     25  C   UNL     1      48.142   5.503  15.624  0.00  0.00    +0.000 A 
ENDBRANCH  17  24
ENDBRANCH  14  17
ENDBRANCH   1  14
TORSDOF 4
ENDMDL
