MODEL 1
REMARK VINA RESULT:    -7.780      0.000      0.000
REMARK INTER + INTRA:         -10.842
REMARK INTER:                  -9.826
REMARK INTRA:                  -1.016
REMARK UNBOUND:                -1.016
REMARK  Name = 
REMARK  5 active torsions:
REMARK  status: ('A' for Active; 'I' for Inactive)
REMARK    1  A    between atoms: C_2  and  C_13
REMARK    2  A    between atoms: N_3  and  CA_4
REMARK    3  A    between atoms: CA_4  and  C_5
REMARK    4  A    between atoms: CA_4  and  C_7
REMARK    5  A    between atoms: C_5  and  O_6
REMARK                            x       y       z     vdW  Elec       q    Type
REMARK                         _______ _______ _______ _____ _____    ______ ____
ROOT
ATOM      1  O   UNL     1      42.825   6.001  11.349  0.00  0.00    +0.000 OA
ATOM      2  C   UNL     1      44.051   5.982  11.275  0.00  0.00    +0.000 C 
ATOM      3  N   UNL     1      44.737   4.985  10.644  0.00  0.00    +0.000 N 
ATOM      4  H   UNL     1      45.748   4.977  10.680  0.00  0.00    +0.000 HD
ENDROOT
BRANCH   2   5
ATOM      5  C   UNL     1      44.879   7.066  11.817  0.00  0.00    +0.000 A 
ATOM      6  C   UNL     1      44.630   8.385  11.464  0.00  0.00    +0.000 A 
ATOM      7  S   UNL     1      45.711   9.494  12.181  0.00  0.00    +0.000 S 
ATOM      8  C   UNL     1      46.519   8.254  13.023  0.00  0.00    +0.000 A 
ATOM      9  N   UNL     1      47.551   8.529  13.862  0.00  0.00    +0.000 NA
ATOM     10  C   UNL     1      48.055   7.497  14.452  0.00  0.00    +0.000 A 
ATOM     11  N   UNL     1      47.619   6.207  14.273  0.00  0.00    +0.000 N 
ATOM     12  C   UNL     1      46.585   5.879  13.429  0.00  0.00    +0.000 A 
ATOM     13  O   UNL     1      46.230   4.713  13.275  0.00  0.00    +0.000 OA
ATOM     14  C   UNL     1      45.985   7.009  12.745  0.00  0.00    +0.000 A 
ATOM     15  H   UNL     1      48.061   5.443  14.763  0.00  0.00    +0.000 HD
ENDBRANCH   2   5
BRANCH   3  16
ATOM     16  CA  UNL     1      44.112   3.798  10.083  0.00  0.00    +0.000 C 
BRANCH  16  17
ATOM     17  C   UNL     1      45.032   3.225   9.016  0.00  0.00    +0.000 A 
ATOM     18  C   UNL     1      45.678   4.088   8.116  0.00  0.00    +0.000 A 
ATOM     19  C   UNL     1      46.599   3.593   7.191  0.00  0.00    +0.000 A 
ATOM     20  C   UNL     1      46.895   2.232   7.155  0.00  0.00    +0.000 A 
ATOM     21  C   UNL     1      46.259   1.361   8.034  0.00  0.00    +0.000 A 
ATOM     22  C   UNL     1      45.330   1.852   8.953  0.00  0.00    +0.000 A 
ENDBRANCH  16  17
BRANCH  16  23
ATOM     23  C   UNL     1      43.717   2.795  11.194  0.00  0.00    +0.000 C 
BRANCH  23  24
ATOM     24  O   UNL     1      44.651   2.745  12.277  0.00  0.00    +0.000 OA
ATOM     25  H   UNL     1      44.207   2.289  13.019  0.00  0.00    +0.000 HD
ENDBRANCH  23  24
ENDBRANCH  16  23
ENDBRANCH   3  16
TORSDOF 5
ENDMDL
MODEL 2
REMARK VINA RESULT:    -7.600      1.438      1.753
REMARK INTER + INTRA:         -10.615
REMARK INTER:                  -9.555
REMARK INTRA:                  -1.060
REMARK UNBOUND:                -1.016
REMARK  Name = 
REMARK  5 active torsions:
REMARK  status: ('A' for Active; 'I' for Inactive)
REMARK    1  A    between atoms: C_2  and  C_13
REMARK    2  A    between atoms: N_3  and  CA_4
REMARK    3  A    between atoms: CA_4  and  C_5
REMARK    4  A    between atoms: CA_4  and  C_7
REMARK    5  A    between atoms: C_5  and  O_6
REMARK                            x       y       z     vdW  Elec       q    Type
REMARK                         _______ _______ _______ _____ _____    ______ ____
ROOT
ATOM      1  O   UNL     1      44.647   6.823  11.116  0.00  0.00    +0.000 OA
ATOM      2  C   UNL     1      45.524   6.038  11.469  0.00  0.00    +0.000 C 
ATOM      3  N   UNL     1      45.583   4.750  11.022  0.00  0.00    +0.000 N 
ATOM      4  H   UNL     1      46.280   4.123  11.404  0.00  0.00    +0.000 HD
ENDROOT
BRANCH   2   5
ATOM      5  C   UNL     1      46.615   6.443  12.362  0.00  0.00    +0.000 A 
ATOM      6  C   UNL     1      47.407   7.540  12.053  0.00  0.00    +0.000 A 
ATOM      7  S   UNL     1      48.633   7.837  13.204  0.00  0.00    +0.000 S 
ATOM      8  C   UNL     1      48.116   6.539  14.176  0.00  0.00    +0.000 A 
ATOM      9  N   UNL     1      48.731   6.253  15.353  0.00  0.00    +0.000 NA
ATOM     10  C   UNL     1      48.221   5.257  15.999  0.00  0.00    +0.000 A 
ATOM     11  N   UNL     1      47.148   4.516  15.569  0.00  0.00    +0.000 N 
ATOM     12  C   UNL     1      46.501   4.762  14.382  0.00  0.00    +0.000 A 
ATOM     13  O   UNL     1      45.556   4.068  14.013  0.00  0.00    +0.000 OA
ATOM     14  C   UNL     1      47.038   5.875  13.621  0.00  0.00    +0.000 A 
ATOM     15  H   UNL     1      46.802   3.746  16.121  0.00  0.00    +0.000 HD
ENDBRANCH   2   5
BRANCH   3  16
ATOM     16  CA  UNL     1      44.576   4.137  10.171  0.00  0.00    +0.000 C 
BRANCH  16  17
ATOM     17  C   UNL     1      45.279   3.426   9.025  0.00  0.00    +0.000 A 
ATOM     18  C   UNL     1      45.842   4.175   7.980  0.00  0.00    +0.000 A 
ATOM     19  C   UNL     1      46.573   3.549   6.968  0.00  0.00    +0.000 A 
ATOM     20  C   UNL     1      46.760   2.168   6.989  0.00  0.00    +0.000 A 
ATOM     21  C   UNL     1      46.202   1.409   8.012  0.00  0.00    +0.000 A 
ATOM     22  C   UNL     1      45.462   2.031   9.020  0.00  0.00    +0.000 A 
ENDBRANCH  16  17
BRANCH  16  23
ATOM     23  C   UNL     1      43.620   3.239  10.992  0.00  0.00    +0.000 C 
BRANCH  23  24
ATOM     24  O   UNL     1      44.246   2.621  12.121  0.00  0.00    +0.000 OA
ATOM     25  H   UNL     1      45.154   2.381  11.850  0.00  0.00    +0.000 HD
ENDBRANCH  23  24
ENDBRANCH  16  23
ENDBRANCH   3  16
TORSDOF 5
ENDMDL
MODEL 3
REMARK VINA RESULT:    -6.884      2.145      3.315
REMARK INTER + INTRA:          -9.711
REMARK INTER:                  -9.014
REMARK INTRA:                  -0.696
REMARK UNBOUND:                -1.016
REMARK  Name = 
REMARK  5 active torsions:
REMARK  status: ('A' for Active; 'I' for Inactive)
REMARK    1  A    between atoms: C_2  and  C_13
REMARK    2  A    between atoms: N_3  and  CA_4
REMARK    3  A    between atoms: CA_4  and  C_5
REMARK    4  A    between atoms: CA_4  and  C_7
REMARK    5  A    between atoms: C_5  and  O_6
REMARK                            x       y       z     vdW  Elec       q    Type
REMARK                         _______ _______ _______ _____ _____    ______ ____
ROOT
ATOM      1  O   UNL     1      47.013   7.004  11.298  0.00  0.00    +0.000 OA
ATOM      2  C   UNL     1      46.564   6.512  12.330  0.00  0.00    +0.000 C 
ATOM      3  N   UNL     1      45.334   5.922  12.391  0.00  0.00    +0.000 N 
ATOM      4  H   UNL     1      44.980   5.603  13.284  0.00  0.00    +0.000 HD
ENDROOT
BRANCH   2   5
ATOM      5  C   UNL     1      47.341   6.472  13.573  0.00  0.00    +0.000 A 
ATOM      6  C   UNL     1      48.031   7.594  14.009  0.00  0.00    +0.000 A 
ATOM      7  S   UNL     1      48.889   7.341  15.463  0.00  0.00    +0.000 S 
ATOM      8  C   UNL     1      48.330   5.737  15.583  0.00  0.00    +0.000 A 
ATOM      9  N   UNL     1      48.673   4.949  16.634  0.00  0.00    +0.000 NA
ATOM     10  C   UNL     1      48.160   3.764  16.609  0.00  0.00    +0.000 A 
ATOM     11  N   UNL     1      47.333   3.294  15.619  0.00  0.00    +0.000 N 
ATOM     12  C   UNL     1      46.966   4.051  14.532  0.00  0.00    +0.000 A 
ATOM     13  O   UNL     1      46.240   3.595  13.651  0.00  0.00    +0.000 OA
ATOM     14  C   UNL     1      47.518   5.393  14.518  0.00  0.00    +0.000 A 
ATOM     15  H   UNL     1      46.969   2.354  15.658  0.00  0.00    +0.000 HD
ENDBRANCH   2   5
BRANCH   3  16
ATOM     16  CA  UNL     1      44.389   5.897  11.287  0.00  0.00    +0.000 C 
BRANCH  16  17
ATOM     17  C   UNL     1      44.746   4.736  10.371  0.00  0.00    +0.000 A 
ATOM     18  C   UNL     1      44.289   3.444  10.673  0.00  0.00    +0.000 A 
ATOM     19  C   UNL     1      44.525   2.382   9.798  0.00  0.00    +0.000 A 
ATOM     20  C   UNL     1      45.213   2.595   8.606  0.00  0.00    +0.000 A 
ATOM     21  C   UNL     1      45.681   3.868   8.294  0.00  0.00    +0.000 A 
ATOM     22  C   UNL     1      45.455   4.929   9.172  0.00  0.00    +0.000 A 
ENDBRANCH  16  17
BRANCH  16  23
ATOM     23  C   UNL     1      42.929   5.882  11.801  0.00  0.00    +0.000 C 
BRANCH  23  24
ATOM     24  O   UNL     1      42.824   5.718  13.219  0.00  0.00    +0.000 OA
ATOM     25  H   UNL     1      43.085   6.567  13.627  0.00  0.00    +0.000 HD
ENDBRANCH  23  24
ENDBRANCH  16  23
ENDBRANCH   3  16
TORSDOF 5
ENDMDL
MODEL 4
REMARK VINA RESULT:    -6.802      3.008      7.318
REMARK INTER + INTRA:          -9.607
REMARK INTER:                  -8.540
REMARK INTRA:                  -1.067
REMARK UNBOUND:                -1.016
REMARK  Name = 
REMARK  5 active torsions:
REMARK  status: ('A' for Active; 'I' for Inactive)
REMARK    1  A    between atoms: C_2  and  C_13
REMARK    2  A    between atoms: N_3  and  CA_4
REMARK    3  A    between atoms: CA_4  and  C_5
REMARK    4  A    between atoms: CA_4  and  C_7
REMARK    5  A    between atoms: C_5  and  O_6
REMARK                            x       y       z     vdW  Elec       q    Type
REMARK                         _______ _______ _______ _____ _____    ______ ____
ROOT
ATOM      1  O   UNL     1      48.653   6.190  13.794  0.00  0.00    +0.000 OA
ATOM      2  C   UNL     1      47.526   5.765  14.033  0.00  0.00    +0.000 C 
ATOM      3  N   UNL     1      47.212   5.122  15.195  0.00  0.00    +0.000 N 
ATOM      4  H   UNL     1      46.289   4.723  15.309  0.00  0.00    +0.000 HD
ENDROOT
BRANCH   2   5
ATOM      5  C   UNL     1      46.407   5.965  13.105  0.00  0.00    +0.000 A 
ATOM      6  C   UNL     1      46.067   7.240  12.677  0.00  0.00    +0.000 A 
ATOM      7  S   UNL     1      44.728   7.265  11.618  0.00  0.00    +0.000 S 
ATOM      8  C   UNL     1      44.587   5.569  11.660  0.00  0.00    +0.000 A 
ATOM      9  N   UNL     1      43.640   4.923  10.933  0.00  0.00    +0.000 NA
ATOM     10  C   UNL     1      43.662   3.636  11.041  0.00  0.00    +0.000 A 
ATOM     11  N   UNL     1      44.550   2.935  11.819  0.00  0.00    +0.000 N 
ATOM     12  C   UNL     1      45.520   3.545  12.578  0.00  0.00    +0.000 A 
ATOM     13  O   UNL     1      46.288   2.891  13.280  0.00  0.00    +0.000 OA
ATOM     14  C   UNL     1      45.535   4.993  12.487  0.00  0.00    +0.000 A 
ATOM     15  H   UNL     1      44.510   1.928  11.862  0.00  0.00    +0.000 HD
ENDBRANCH   2   5
BRANCH   3  16
ATOM     16  CA  UNL     1      48.182   4.781  16.224  0.00  0.00    +0.000 C 
BRANCH  16  17
ATOM     17  C   UNL     1      48.012   5.748  17.387  0.00  0.00    +0.000 A 
ATOM     18  C   UNL     1      47.335   5.333  18.544  0.00  0.00    +0.000 A 
ATOM     19  C   UNL     1      47.250   6.170  19.658  0.00  0.00    +0.000 A 
ATOM     20  C   UNL     1      47.846   7.429  19.636  0.00  0.00    +0.000 A 
ATOM     21  C   UNL     1      48.514   7.860  18.495  0.00  0.00    +0.000 A 
ATOM     22  C   UNL     1      48.592   7.029  17.376  0.00  0.00    +0.000 A 
ENDBRANCH  16  17
BRANCH  16  23
ATOM     23  C   UNL     1      48.084   3.287  16.613  0.00  0.00    +0.000 C 
BRANCH  23  24
ATOM     24  O   UNL     1      48.422   2.395  15.546  0.00  0.00    +0.000 OA
ATOM     25  H   UNL     1      47.685   2.422  14.904  0.00  0.00    +0.000 HD
ENDBRANCH  23  24
ENDBRANCH  16  23
ENDBRANCH   3  16
TORSDOF 5
ENDMDL
MODEL 5
REMARK VINA RESULT:    -6.692      1.866      2.924
REMARK INTER + INTRA:          -9.468
REMARK INTER:                  -9.132
REMARK INTRA:                  -0.336
REMARK UNBOUND:                -1.016
REMARK  Name = 
REMARK  5 active torsions:
REMARK  status: ('A' for Active; 'I' for Inactive)
REMARK    1  A    between atoms: C_2  and  C_13
REMARK    2  A    between atoms: N_3  and  CA_4
REMARK    3  A    between atoms: CA_4  and  C_5
REMARK    4  A    between atoms: CA_4  and  C_7
REMARK    5  A    between atoms: C_5  and  O_6
REMARK                            x       y       z     vdW  Elec       q    Type
REMARK                         _______ _______ _______ _____ _____    ______ ____
ROOT
ATOM      1  O   UNL     1      43.103   6.156  11.797  0.00  0.00    +0.000 OA
ATOM      2  C   UNL     1      44.260   6.270  11.401  0.00  0.00    +0.000 C 
ATOM      3  N   UNL     1      44.865   5.336  10.611  0.00  0.00    +0.000 N 
ATOM      4  H   UNL     1      45.844   5.440  10.378  0.00  0.00    +0.000 HD
ENDROOT
BRANCH   2   5
ATOM      5  C   UNL     1      45.072   7.455  11.704  0.00  0.00    +0.000 A 
ATOM      6  C   UNL     1      46.353   7.318  12.219  0.00  0.00    +0.000 A 
ATOM      7  S   UNL     1      47.125   8.810  12.522  0.00  0.00    +0.000 S 
ATOM      8  C   UNL     1      45.792   9.688  11.931  0.00  0.00    +0.000 A 
ATOM      9  N   UNL     1      45.809  11.045  11.879  0.00  0.00    +0.000 NA
ATOM     10  C   UNL     1      44.741  11.579  11.388  0.00  0.00    +0.000 A 
ATOM     11  N   UNL     1      43.650  10.873  10.944  0.00  0.00    +0.000 N 
ATOM     12  C   UNL     1      43.583   9.501  10.985  0.00  0.00    +0.000 A 
ATOM     13  O   UNL     1      42.584   8.898  10.599  0.00  0.00    +0.000 OA
ATOM     14  C   UNL     1      44.763   8.856  11.528  0.00  0.00    +0.000 A 
ATOM     15  H   UNL     1      42.843  11.353  10.575  0.00  0.00    +0.000 HD
ENDBRANCH   2   5
BRANCH   3  16
ATOM     16  CA  UNL     1      44.254   4.070  10.236  0.00  0.00    +0.000 C 
BRANCH  16  17
ATOM     17  C   UNL     1      45.087   3.441   9.130  0.00  0.00    +0.000 A 
ATOM     18  C   UNL     1      45.742   4.261   8.198  0.00  0.00    +0.000 A 
ATOM     19  C   UNL     1      46.587   3.709   7.233  0.00  0.00    +0.000 A 
ATOM     20  C   UNL     1      46.796   2.332   7.189  0.00  0.00    +0.000 A 
ATOM     21  C   UNL     1      46.149   1.503   8.099  0.00  0.00    +0.000 A 
ATOM     22  C   UNL     1      45.296   2.052   9.059  0.00  0.00    +0.000 A 
ENDBRANCH  16  17
BRANCH  16  23
ATOM     23  C   UNL     1      44.041   3.164  11.472  0.00  0.00    +0.000 C 
BRANCH  23  24
ATOM     24  O   UNL     1      42.758   2.530  11.501  0.00  0.00    +0.000 OA
ATOM     25  H   UNL     1      42.718   1.926  10.734  0.00  0.00    +0.000 HD
ENDBRANCH  23  24
ENDBRANCH  16  23
ENDBRANCH   3  16
TORSDOF 5
ENDMDL
MODEL 6
REMARK VINA RESULT:    -6.590      3.608      8.044
REMARK INTER + INTRA:          -9.339
REMARK INTER:                  -8.214
REMARK INTRA:                  -1.125
REMARK UNBOUND:                -1.016
REMARK  Name = 
REMARK  5 active torsions:
REMARK  status: ('A' for Active; 'I' for Inactive)
REMARK    1  A    between atoms: C_2  and  C_13
REMARK    2  A    between atoms: N_3  and  CA_4
REMARK    3  A    between atoms: CA_4  and  C_5
REMARK    4  A    between atoms: CA_4  and  C_7
REMARK    5  A    between atoms: C_5  and  O_6
REMARK                            x       y       z     vdW  Elec       q    Type
REMARK                         _______ _______ _______ _____ _____    ______ ____
ROOT
ATOM      1  O   UNL     1      49.555   6.555  14.834  0.00  0.00    +0.000 OA
ATOM      2  C   UNL     1      48.410   6.139  14.991  0.00  0.00    +0.000 C 
ATOM      3  N   UNL     1      47.958   5.662  16.187  0.00  0.00    +0.000 N 
ATOM      4  H   UNL     1      47.031   5.259  16.243  0.00  0.00    +0.000 HD
ENDROOT
BRANCH   2   5
ATOM      5  C   UNL     1      47.416   6.174  13.913  0.00  0.00    +0.000 A 
ATOM      6  C   UNL     1      47.099   7.370  13.285  0.00  0.00    +0.000 A 
ATOM      7  S   UNL     1      45.908   7.206  12.073  0.00  0.00    +0.000 S 
ATOM      8  C   UNL     1      45.810   5.524  12.315  0.00  0.00    +0.000 A 
ATOM      9  N   UNL     1      44.982   4.752  11.564  0.00  0.00    +0.000 NA
ATOM     10  C   UNL     1      45.025   3.491  11.838  0.00  0.00    +0.000 A 
ATOM     11  N   UNL     1      45.824   2.930  12.804  0.00  0.00    +0.000 N 
ATOM     12  C   UNL     1      46.670   3.671  13.594  0.00  0.00    +0.000 A 
ATOM     13  O   UNL     1      47.359   3.144  14.465  0.00  0.00    +0.000 OA
ATOM     14  C   UNL     1      46.657   5.096  13.320  0.00  0.00    +0.000 A 
ATOM     15  H   UNL     1      45.806   1.936  12.972  0.00  0.00    +0.000 HD
ENDBRANCH   2   5
BRANCH   3  16
ATOM     16  CA  UNL     1      48.793   5.499  17.366  0.00  0.00    +0.000 C 
BRANCH  16  17
ATOM     17  C   UNL     1      48.239   6.379  18.476  0.00  0.00    +0.000 A 
ATOM     18  C   UNL     1      47.930   5.815  19.724  0.00  0.00    +0.000 A 
ATOM     19  C   UNL     1      47.510   6.620  20.785  0.00  0.00    +0.000 A 
ATOM     20  C   UNL     1      47.400   7.999  20.619  0.00  0.00    +0.000 A 
ATOM     21  C   UNL     1      47.694   8.574  19.387  0.00  0.00    +0.000 A 
ATOM     22  C   UNL     1      48.104   7.770  18.321  0.00  0.00    +0.000 A 
ENDBRANCH  16  17
BRANCH  16  23
ATOM     23  C   UNL     1      48.940   4.006  17.745  0.00  0.00    +0.000 C 
BRANCH  23  24
ATOM     24  O   UNL     1      49.383   3.182  16.663  0.00  0.00    +0.000 OA
ATOM     25  H   UNL     1      50.358   3.127  16.724  0.00  0.00    +0.000 HD
ENDBRANCH  23  24
ENDBRANCH  16  23
ENDBRANCH   3  16
TORSDOF 5
ENDMDL
MODEL 7
REMARK VINA RESULT:    -6.460      3.332      6.885
REMARK INTER + INTRA:          -9.175
REMARK INTER:                  -8.555
REMARK INTRA:                  -0.620
REMARK UNBOUND:                -1.016
REMARK  Name = 
REMARK  5 active torsions:
REMARK  status: ('A' for Active; 'I' for Inactive)
REMARK    1  A    between atoms: C_2  and  C_13
REMARK    2  A    between atoms: N_3  and  CA_4
REMARK    3  A    between atoms: CA_4  and  C_5
REMARK    4  A    between atoms: CA_4  and  C_7
REMARK    5  A    between atoms: C_5  and  O_6
REMARK                            x       y       z     vdW  Elec       q    Type
REMARK                         _______ _______ _______ _____ _____    ______ ____
ROOT
ATOM      1  O   UNL     1      47.422   3.591  13.702  0.00  0.00    +0.000 OA
ATOM      2  C   UNL     1      46.959   4.633  14.159  0.00  0.00    +0.000 C 
ATOM      3  N   UNL     1      47.174   5.033  15.446  0.00  0.00    +0.000 N 
ATOM      4  H   UNL     1      46.707   5.860  15.794  0.00  0.00    +0.000 HD
ENDROOT
BRANCH   2   5
ATOM      5  C   UNL     1      46.179   5.563  13.335  0.00  0.00    +0.000 A 
ATOM      6  C   UNL     1      46.685   6.815  13.016  0.00  0.00    +0.000 A 
ATOM      7  S   UNL     1      45.621   7.755  12.068  0.00  0.00    +0.000 S 
ATOM      8  C   UNL     1      44.469   6.503  12.013  0.00  0.00    +0.000 A 
ATOM      9  N   UNL     1      43.308   6.643  11.322  0.00  0.00    +0.000 NA
ATOM     10  C   UNL     1      42.537   5.607  11.347  0.00  0.00    +0.000 A 
ATOM     11  N   UNL     1      42.825   4.438  12.007  0.00  0.00    +0.000 N 
ATOM     12  C   UNL     1      43.981   4.253  12.727  0.00  0.00    +0.000 A 
ATOM     13  O   UNL     1      44.201   3.201  13.324  0.00  0.00    +0.000 OA
ATOM     14  C   UNL     1      44.880   5.391  12.726  0.00  0.00    +0.000 A 
ATOM     15  H   UNL     1      42.175   3.666  11.990  0.00  0.00    +0.000 HD
ENDBRANCH   2   5
BRANCH   3  16
ATOM     16  CA  UNL     1      47.879   4.237  16.438  0.00  0.00    +0.000 C 
BRANCH  16  17
ATOM     17  C   UNL     1      49.210   4.909  16.740  0.00  0.00    +0.000 A 
ATOM     18  C   UNL     1      50.214   4.197  17.415  0.00  0.00    +0.000 A 
ATOM     19  C   UNL     1      51.475   4.761  17.618  0.00  0.00    +0.000 A 
ATOM     20  C   UNL     1      51.755   6.041  17.145  0.00  0.00    +0.000 A 
ATOM     21  C   UNL     1      50.770   6.765  16.482  0.00  0.00    +0.000 A 
ATOM     22  C   UNL     1      49.505   6.207  16.286  0.00  0.00    +0.000 A 
ENDBRANCH  16  17
BRANCH  16  23
ATOM     23  C   UNL     1      46.995   3.981  17.681  0.00  0.00    +0.000 C 
BRANCH  23  24
ATOM     24  O   UNL     1      46.563   2.622  17.806  0.00  0.00    +0.000 OA
ATOM     25  H   UNL     1      46.721   2.355  18.733  0.00  0.00    +0.000 HD
ENDBRANCH  23  24
ENDBRANCH  16  23
ENDBRANCH   3  16
TORSDOF 5
ENDMDL
MODEL 8
REMARK VINA RESULT:    -6.425      3.797      6.930
REMARK INTER + INTRA:          -9.130
REMARK INTER:                  -8.558
REMARK INTRA:                  -0.573
REMARK UNBOUND:                -1.016
REMARK  Name = 
REMARK  5 active torsions:
REMARK  status: ('A' for Active; 'I' for Inactive)
REMARK    1  A    between atoms: C_2  and  C_13
REMARK    2  A    between atoms: N_3  and  CA_4
REMARK    3  A    between atoms: CA_4  and  C_5
REMARK    4  A    between atoms: CA_4  and  C_7
REMARK    5  A    between atoms: C_5  and  O_6
REMARK                            x       y       z     vdW  Elec       q    Type
REMARK                         _______ _______ _______ _____ _____    ______ ____
ROOT
ATOM      1  O   UNL     1      47.317   3.139  14.532  0.00  0.00    +0.000 OA
ATOM      2  C   UNL     1      47.196   4.335  14.786  0.00  0.00    +0.000 C 
ATOM      3  N   UNL     1      47.354   4.841  16.044  0.00  0.00    +0.000 N 
ATOM      4  H   UNL     1      47.167   5.821  16.213  0.00  0.00    +0.000 HD
ENDROOT
BRANCH   2   5
ATOM      5  C   UNL     1      46.924   5.327  13.741  0.00  0.00    +0.000 A 
ATOM      6  C   UNL     1      47.898   6.242  13.367  0.00  0.00    +0.000 A 
ATOM      7  S   UNL     1      47.383   7.324  12.151  0.00  0.00    +0.000 S 
ATOM      8  C   UNL     1      45.856   6.577  12.051  0.00  0.00    +0.000 A 
ATOM      9  N   UNL     1      44.920   7.004  11.164  0.00  0.00    +0.000 NA
ATOM     10  C   UNL     1      43.817   6.332  11.180  0.00  0.00    +0.000 A 
ATOM     11  N   UNL     1      43.564   5.269  12.011  0.00  0.00    +0.000 N 
ATOM     12  C   UNL     1      44.475   4.807  12.930  0.00  0.00    +0.000 A 
ATOM     13  O   UNL     1      44.212   3.866  13.675  0.00  0.00    +0.000 OA
ATOM     14  C   UNL     1      45.733   5.530  12.947  0.00  0.00    +0.000 A 
ATOM     15  H   UNL     1      42.677   4.790  11.976  0.00  0.00    +0.000 HD
ENDBRANCH   2   5
BRANCH   3  16
ATOM     16  CA  UNL     1      47.581   4.025  17.226  0.00  0.00    +0.000 C 
BRANCH  16  17
ATOM     17  C   UNL     1      49.050   3.633  17.269  0.00  0.00    +0.000 A 
ATOM     18  C   UNL     1      50.019   4.598  17.585  0.00  0.00    +0.000 A 
ATOM     19  C   UNL     1      51.362   4.242  17.723  0.00  0.00    +0.000 A 
ATOM     20  C   UNL     1      51.756   2.916  17.554  0.00  0.00    +0.000 A 
ATOM     21  C   UNL     1      50.811   1.947  17.233  0.00  0.00    +0.000 A 
ATOM     22  C   UNL     1      49.469   2.304  17.085  0.00  0.00    +0.000 A 
ENDBRANCH  16  17
BRANCH  16  23
ATOM     23  C   UNL     1      47.069   4.735  18.502  0.00  0.00    +0.000 C 
BRANCH  23  24
ATOM     24  O   UNL     1      46.896   6.146  18.341  0.00  0.00    +0.000 OA
ATOM     25  H   UNL     1      47.725   6.573  18.636  0.00  0.00    +0.000 HD
ENDBRANCH  23  24
ENDBRANCH  16  23
ENDBRANCH   3  16
TORSDOF 5
ENDMDL
MODEL 9
REMARK VINA RESULT:    -6.393      3.056      5.188
REMARK INTER + INTRA:          -9.090
REMARK INTER:                  -8.171
REMARK INTRA:                  -0.919
REMARK UNBOUND:                -1.016
REMARK  Name = 
REMARK  5 active torsions:
REMARK  status: ('A' for Active; 'I' for Inactive)
REMARK    1  A    between atoms: C_2  and  C_13
REMARK    2  A    between atoms: N_3  and  CA_4
REMARK    3  A    between atoms: CA_4  and  C_5
REMARK    4  A    between atoms: CA_4  and  C_7
REMARK    5  A    between atoms: C_5  and  O_6
REMARK                            x       y       z     vdW  Elec       q    Type
REMARK                         _______ _______ _______ _____ _____    ______ ____
ROOT
ATOM      1  O   UNL     1      48.925   6.523  12.901  0.00  0.00    +0.000 OA
ATOM      2  C   UNL     1      48.088   6.528  13.799  0.00  0.00    +0.000 C 
ATOM      3  N   UNL     1      46.754   6.695  13.563  0.00  0.00    +0.000 N 
ATOM      4  H   UNL     1      46.116   6.769  14.345  0.00  0.00    +0.000 HD
ENDROOT
BRANCH   2   5
ATOM      5  C   UNL     1      48.453   6.298  15.202  0.00  0.00    +0.000 A 
ATOM      6  C   UNL     1      49.205   7.235  15.896  0.00  0.00    +0.000 A 
ATOM      7  S   UNL     1      49.542   6.777  17.506  0.00  0.00    +0.000 S 
ATOM      8  C   UNL     1      48.653   5.334  17.343  0.00  0.00    +0.000 A 
ATOM      9  N   UNL     1      48.511   4.473  18.385  0.00  0.00    +0.000 NA
ATOM     10  C   UNL     1      47.794   3.431  18.128  0.00  0.00    +0.000 A 
ATOM     11  N   UNL     1      47.205   3.169  16.915  0.00  0.00    +0.000 N 
ATOM     12  C   UNL     1      47.328   4.005  15.831  0.00  0.00    +0.000 A 
ATOM     13  O   UNL     1      46.807   3.733  14.752  0.00  0.00    +0.000 OA
ATOM     14  C   UNL     1      48.125   5.193  16.073  0.00  0.00    +0.000 A 
ATOM     15  H   UNL     1      46.660   2.332  16.780  0.00  0.00    +0.000 HD
ENDBRANCH   2   5
BRANCH   3  16
ATOM     16  CA  UNL     1      46.190   6.982  12.254  0.00  0.00    +0.000 C 
BRANCH  16  17
ATOM     17  C   UNL     1      45.105   5.957  11.960  0.00  0.00    +0.000 A 
ATOM     18  C   UNL     1      45.060   5.330  10.705  0.00  0.00    +0.000 A 
ATOM     19  C   UNL     1      44.133   4.319  10.446  0.00  0.00    +0.000 A 
ATOM     20  C   UNL     1      43.242   3.914  11.438  0.00  0.00    +0.000 A 
ATOM     21  C   UNL     1      43.266   4.529  12.685  0.00  0.00    +0.000 A 
ATOM     22  C   UNL     1      44.186   5.547  12.943  0.00  0.00    +0.000 A 
ENDBRANCH  16  17
BRANCH  16  23
ATOM     23  C   UNL     1      45.724   8.454  12.157  0.00  0.00    +0.000 C 
BRANCH  23  24
ATOM     24  O   UNL     1      45.888   9.187  13.375  0.00  0.00    +0.000 OA
ATOM     25  H   UNL     1      46.424   9.977  13.165  0.00  0.00    +0.000 HD
ENDBRANCH  23  24
ENDBRANCH  16  23
ENDBRANCH   3  16
TORSDOF 5
ENDMDL
