MODEL 1
REMARK VINA RESULT:    -7.652      0.000      0.000
REMARK INTER + INTRA:         -12.503
REMARK INTER:                 -10.783
REMARK INTRA:                  -1.719
REMARK UNBOUND:                -1.719
REMARK  Name = 
REMARK  9 active torsions:
REMARK  status: ('A' for Active; 'I' for Inactive)
REMARK    1  A    between atoms: C_1  and  C_2
REMARK    2  A    between atoms: C_2  and  N_3
REMARK    3  A    between atoms: C_2  and  C_26
REMARK    4  A    between atoms: N_3  and  C_4
REMARK    5  A    between atoms: C_4  and  C_5
REMARK    6  A    between atoms: C_9  and  C_10
REMARK    7  A    between atoms: C_10  and  N_11
REMARK    8  A    between atoms: N_11  and  C_12
REMARK    9  A    between atoms: C_13  and  C_15
REMARK                            x       y       z     vdW  Elec       q    Type
REMARK                         _______ _______ _______ _____ _____    ______ ____
ROOT
ATOM      1  C   UNL     1      46.665   5.881  12.727  0.00  0.00    +0.000 A 
ATOM      2  C   UNL     1      46.985   6.702  11.633  0.00  0.00    +0.000 A 
ATOM      3  C   UNL     1      48.109   7.518  11.655  0.00  0.00    +0.000 A 
ATOM      4  C   UNL     1      48.907   7.562  12.792  0.00  0.00    +0.000 A 
ATOM      5  C   UNL     1      48.562   6.818  13.929  0.00  0.00    +0.000 A 
ATOM      6  C   UNL     1      47.448   5.972  13.887  0.00  0.00    +0.000 A 
ENDROOT
BRANCH   1   7
ATOM      7  C   UNL     1      45.502   4.915  12.670  0.00  0.00    +0.000 C 
BRANCH   7   8
ATOM      8  N   UNL     1      44.608   5.228  11.553  0.00  0.00    +0.000 NA
ATOM      9  H   UNL     1      43.811   5.752  11.908  0.00  0.00    +0.000 HD
BRANCH   8  11
ATOM     10  C   UNL     1      44.094   2.799  11.774  0.00  0.00    +0.000 C 
ATOM     11  C   UNL     1      44.092   4.036  10.869  0.00  0.00    +0.000 C 
BRANCH  11  12
ATOM     12  C   UNL     1      44.912   3.705   9.624  0.00  0.00    +0.000 A 
ATOM     13  C   UNL     1      45.511   4.702   8.834  0.00  0.00    +0.000 A 
ATOM     14  C   UNL     1      46.359   4.365   7.777  0.00  0.00    +0.000 A 
ATOM     15  C   UNL     1      46.632   3.025   7.500  0.00  0.00    +0.000 A 
ATOM     16  C   UNL     1      46.035   2.029   8.268  0.00  0.00    +0.000 A 
ATOM     17 CL   UNL     1      46.392   0.376   7.950  0.00  0.00    +0.000 Cl
ATOM     18  C   UNL     1      45.174   2.359   9.315  0.00  0.00    +0.000 A 
ENDBRANCH  11  12
ENDBRANCH   8  11
ENDBRANCH   7   8
ENDBRANCH   1   7
BRANCH   5  19
ATOM     19  C   UNL     1      49.408   6.893  15.169  0.00  0.00    +0.000 C 
BRANCH  19  20
ATOM     20  N   UNL     1      48.833   7.526  16.353  0.00  0.00    +0.000 N 
ATOM     21  C   UNL     1      49.012   8.969  16.507  0.00  0.00    +0.000 C 
ATOM     22  C   UNL     1      48.419   6.806  17.497  0.00  0.00    +0.000 C 
ATOM     23  O   UNL     1      48.078   7.400  18.520  0.00  0.00    +0.000 OA
BRANCH  22  24
ATOM     24  C   UNL     1      48.437   5.322  17.507  0.00  0.00    +0.000 A 
ATOM     25  C   UNL     1      47.353   4.500  17.245  0.00  0.00    +0.000 A 
ATOM     26  S   UNL     1      47.696   2.834  17.301  0.00  0.00    +0.000 S 
ATOM     27  C   UNL     1      49.355   3.143  17.448  0.00  0.00    +0.000 A 
ATOM     28  N   UNL     1      50.254   2.128  17.377  0.00  0.00    +0.000 NA
ATOM     29  C   UNL     1      51.485   2.508  17.414  0.00  0.00    +0.000 A 
ATOM     30  N   UNL     1      51.898   3.804  17.563  0.00  0.00    +0.000 N 
ATOM     31  C   UNL     1      51.024   4.843  17.816  0.00  0.00    +0.000 A 
ATOM     32  O   UNL     1      51.435   5.922  18.221  0.00  0.00    +0.000 OA
ATOM     33  C   UNL     1      49.626   4.491  17.614  0.00  0.00    +0.000 A 
ATOM     34  H   UNL     1      52.877   4.025  17.665  0.00  0.00    +0.000 HD
ENDBRANCH  22  24
ENDBRANCH  19  20
ENDBRANCH   5  19
TORSDOF 7
ENDMDL
MODEL 2
REMARK VINA RESULT:    -7.383      3.697      7.967
REMARK INTER + INTRA:         -12.123
REMARK INTER:                 -10.510
REMARK INTRA:                  -1.613
REMARK UNBOUND:                -1.719
REMARK  Name = 
REMARK  9 active torsions:
REMARK  status: ('A' for Active; 'I' for Inactive)
REMARK    1  A    between atoms: C_1  and  C_2
REMARK    2  A    between atoms: C_2  and  N_3
REMARK    3  A    between atoms: C_2  and  C_26
REMARK    4  A    between atoms: N_3  and  C_4
REMARK    5  A    between atoms: C_4  and  C_5
REMARK    6  A    between atoms: C_9  and  C_10
REMARK    7  A    between atoms: C_10  and  N_11
REMARK    8  A    between atoms: N_11  and  C_12
REMARK    9  A    between atoms: C_13  and  C_15
REMARK                            x       y       z     vdW  Elec       q    Type
REMARK                         _______ _______ _______ _____ _____    ______ ____
ROOT
ATOM      1  C   UNL     1      49.512   7.604  15.159  0.00  0.00    +0.000 A 
ATOM      2  C   UNL     1      50.524   8.005  14.271  0.00  0.00    +0.000 A 
ATOM      3  C   UNL     1      50.350   7.903  12.896  0.00  0.00    +0.000 A 
ATOM      4  C   UNL     1      49.181   7.351  12.388  0.00  0.00    +0.000 A 
ATOM      5  C   UNL     1      48.192   6.863  13.254  0.00  0.00    +0.000 A 
ATOM      6  C   UNL     1      48.358   7.002  14.636  0.00  0.00    +0.000 A 
ENDROOT
BRANCH   1   7
ATOM      7  C   UNL     1      49.652   7.808  16.652  0.00  0.00    +0.000 C 
BRANCH   7   8
ATOM      8  N   UNL     1      48.477   7.305  17.367  0.00  0.00    +0.000 NA
ATOM      9  H   UNL     1      47.999   8.091  17.803  0.00  0.00    +0.000 HD
BRANCH   8  11
ATOM     10  C   UNL     1      50.189   6.591  19.031  0.00  0.00    +0.000 C 
ATOM     11  C   UNL     1      48.806   6.338  18.422  0.00  0.00    +0.000 C 
BRANCH  11  12
ATOM     12  C   UNL     1      48.780   4.905  17.895  0.00  0.00    +0.000 A 
ATOM     13  C   UNL     1      47.677   4.382  17.199  0.00  0.00    +0.000 A 
ATOM     14  C   UNL     1      47.733   3.112  16.620  0.00  0.00    +0.000 A 
ATOM     15  C   UNL     1      48.898   2.350  16.716  0.00  0.00    +0.000 A 
ATOM     16  C   UNL     1      49.993   2.854  17.413  0.00  0.00    +0.000 A 
ATOM     17 CL   UNL     1      51.442   1.931  17.510  0.00  0.00    +0.000 Cl
ATOM     18  C   UNL     1      49.937   4.115  18.008  0.00  0.00    +0.000 A 
ENDBRANCH  11  12
ENDBRANCH   8  11
ENDBRANCH   7   8
ENDBRANCH   1   7
BRANCH   5  19
ATOM     19  C   UNL     1      46.942   6.237  12.701  0.00  0.00    +0.000 C 
BRANCH  19  20
ATOM     20  N   UNL     1      45.934   7.120  12.119  0.00  0.00    +0.000 N 
ATOM     21  C   UNL     1      46.028   8.548  12.417  0.00  0.00    +0.000 C 
ATOM     22  C   UNL     1      44.714   6.656  11.578  0.00  0.00    +0.000 C 
ATOM     23  O   UNL     1      43.840   7.452  11.234  0.00  0.00    +0.000 OA
BRANCH  22  24
ATOM     24  C   UNL     1      44.438   5.202  11.462  0.00  0.00    +0.000 A 
ATOM     25  C   UNL     1      43.664   4.455  12.335  0.00  0.00    +0.000 A 
ATOM     26  S   UNL     1      43.507   2.813  11.915  0.00  0.00    +0.000 S 
ATOM     27  C   UNL     1      44.275   3.081  10.429  0.00  0.00    +0.000 A 
ATOM     28  N   UNL     1      44.320   2.101   9.490  0.00  0.00    +0.000 NA
ATOM     29  C   UNL     1      44.852   2.461   8.374  0.00  0.00    +0.000 A 
ATOM     30  N   UNL     1      45.385   3.698   8.126  0.00  0.00    +0.000 N 
ATOM     31  C   UNL     1      45.519   4.664   9.104  0.00  0.00    +0.000 A 
ATOM     32  O   UNL     1      46.244   5.634   8.930  0.00  0.00    +0.000 OA
ATOM     33  C   UNL     1      44.784   4.364  10.324  0.00  0.00    +0.000 A 
ATOM     34  H   UNL     1      45.859   3.890   7.257  0.00  0.00    +0.000 HD
ENDBRANCH  22  24
ENDBRANCH  19  20
ENDBRANCH   5  19
TORSDOF 7
ENDMDL
MODEL 3
REMARK VINA RESULT:    -7.079      2.650      3.368
REMARK INTER + INTRA:         -11.694
REMARK INTER:                 -10.175
REMARK INTRA:                  -1.519
REMARK UNBOUND:                -1.719
REMARK  Name = 
REMARK  9 active torsions:
REMARK  status: ('A' for Active; 'I' for Inactive)
REMARK    1  A    between atoms: C_1  and  C_2
REMARK    2  A    between atoms: C_2  and  N_3
REMARK    3  A    between atoms: C_2  and  C_26
REMARK    4  A    between atoms: N_3  and  C_4
REMARK    5  A    between atoms: C_4  and  C_5
REMARK    6  A    between atoms: C_9  and  C_10
REMARK    7  A    between atoms: C_10  and  N_11
REMARK    8  A    between atoms: N_11  and  C_12
REMARK    9  A    between atoms: C_13  and  C_15
REMARK                            x       y       z     vdW  Elec       q    Type
REMARK                         _______ _______ _______ _____ _____    ______ ____
ROOT
ATOM      1  C   UNL     1      45.506   5.482  12.517  0.00  0.00    +0.000 A 
ATOM      2  C   UNL     1      45.637   4.596  13.599  0.00  0.00    +0.000 A 
ATOM      3  C   UNL     1      46.758   4.629  14.420  0.00  0.00    +0.000 A 
ATOM      4  C   UNL     1      47.790   5.517  14.141  0.00  0.00    +0.000 A 
ATOM      5  C   UNL     1      47.723   6.351  13.017  0.00  0.00    +0.000 A 
ATOM      6  C   UNL     1      46.576   6.337  12.216  0.00  0.00    +0.000 A 
ENDROOT
BRANCH   1   7
ATOM      7  C   UNL     1      44.245   5.521  11.683  0.00  0.00    +0.000 C 
BRANCH   7   8
ATOM      8  N   UNL     1      44.548   5.369  10.258  0.00  0.00    +0.000 NA
ATOM      9  H   UNL     1      44.072   6.106   9.741  0.00  0.00    +0.000 HD
BRANCH   8  11
ATOM     10  C   UNL     1      43.888   3.025  10.793  0.00  0.00    +0.000 C 
ATOM     11  C   UNL     1      44.111   4.081   9.704  0.00  0.00    +0.000 C 
BRANCH  11  12
ATOM     12  C   UNL     1      45.129   3.523   8.713  0.00  0.00    +0.000 A 
ATOM     13  C   UNL     1      45.948   4.356   7.930  0.00  0.00    +0.000 A 
ATOM     14  C   UNL     1      46.957   3.819   7.127  0.00  0.00    +0.000 A 
ATOM     15  C   UNL     1      47.172   2.441   7.103  0.00  0.00    +0.000 A 
ATOM     16  C   UNL     1      46.360   1.605   7.866  0.00  0.00    +0.000 A 
ATOM     17 CL   UNL     1      46.641  -0.093   7.864  0.00  0.00    +0.000 Cl
ATOM     18  C   UNL     1      45.340   2.134   8.657  0.00  0.00    +0.000 A 
ENDBRANCH  11  12
ENDBRANCH   8  11
ENDBRANCH   7   8
ENDBRANCH   1   7
BRANCH   5  19
ATOM     19  C   UNL     1      48.856   7.288  12.699  0.00  0.00    +0.000 C 
BRANCH  19  20
ATOM     20  N   UNL     1      48.649   8.715  12.930  0.00  0.00    +0.000 N 
ATOM     21  C   UNL     1      48.369   9.557  11.767  0.00  0.00    +0.000 C 
ATOM     22  C   UNL     1      49.024   9.373  14.123  0.00  0.00    +0.000 C 
ATOM     23  O   UNL     1      48.960  10.599  14.207  0.00  0.00    +0.000 OA
BRANCH  22  24
ATOM     24  C   UNL     1      49.551   8.606  15.279  0.00  0.00    +0.000 A 
ATOM     25  C   UNL     1      48.799   8.124  16.338  0.00  0.00    +0.000 A 
ATOM     26  S   UNL     1      49.686   7.251  17.498  0.00  0.00    +0.000 S 
ATOM     27  C   UNL     1      51.068   7.283  16.520  0.00  0.00    +0.000 A 
ATOM     28  N   UNL     1      52.166   6.557  16.854  0.00  0.00    +0.000 NA
ATOM     29  C   UNL     1      53.113   6.598  15.982  0.00  0.00    +0.000 A 
ATOM     30  N   UNL     1      53.082   7.335  14.828  0.00  0.00    +0.000 N 
ATOM     31  C   UNL     1      52.064   8.222  14.536  0.00  0.00    +0.000 A 
ATOM     32  O   UNL     1      52.199   9.061  13.656  0.00  0.00    +0.000 OA
ATOM     33  C   UNL     1      50.902   8.082  15.401  0.00  0.00    +0.000 A 
ATOM     34  H   UNL     1      53.890   7.387  14.227  0.00  0.00    +0.000 HD
ENDBRANCH  22  24
ENDBRANCH  19  20
ENDBRANCH   5  19
TORSDOF 7
ENDMDL
MODEL 4
REMARK VINA RESULT:    -7.062      3.838      8.572
REMARK INTER + INTRA:         -11.671
REMARK INTER:                 -10.436
REMARK INTRA:                  -1.236
REMARK UNBOUND:                -1.719
REMARK  Name = 
REMARK  9 active torsions:
REMARK  status: ('A' for Active; 'I' for Inactive)
REMARK    1  A    between atoms: C_1  and  C_2
REMARK    2  A    between atoms: C_2  and  N_3
REMARK    3  A    between atoms: C_2  and  C_26
REMARK    4  A    between atoms: N_3  and  C_4
REMARK    5  A    between atoms: C_4  and  C_5
REMARK    6  A    between atoms: C_9  and  C_10
REMARK    7  A    between atoms: C_10  and  N_11
REMARK    8  A    between atoms: N_11  and  C_12
REMARK    9  A    between atoms: C_13  and  C_15
REMARK                            x       y       z     vdW  Elec       q    Type
REMARK                         _______ _______ _______ _____ _____    ______ ____
ROOT
ATOM      1  C   UNL     1      48.485   6.163  15.806  0.00  0.00    +0.000 A 
ATOM      2  C   UNL     1      47.767   5.059  16.296  0.00  0.00    +0.000 A 
ATOM      3  C   UNL     1      46.970   4.293  15.453  0.00  0.00    +0.000 A 
ATOM      4  C   UNL     1      46.839   4.649  14.117  0.00  0.00    +0.000 A 
ATOM      5  C   UNL     1      47.476   5.796  13.622  0.00  0.00    +0.000 A 
ATOM      6  C   UNL     1      48.305   6.542  14.468  0.00  0.00    +0.000 A 
ENDROOT
BRANCH   1   7
ATOM      7  C   UNL     1      49.434   6.938  16.693  0.00  0.00    +0.000 C 
BRANCH   7   8
ATOM      8  N   UNL     1      50.601   6.130  17.054  0.00  0.00    +0.000 NA
ATOM      9  H   UNL     1      50.818   5.505  16.280  0.00  0.00    +0.000 HD
BRANCH   8  11
ATOM     10  C   UNL     1      51.074   5.895  19.490  0.00  0.00    +0.000 C 
ATOM     11  C   UNL     1      50.391   5.305  18.250  0.00  0.00    +0.000 C 
BRANCH  11  12
ATOM     12  C   UNL     1      50.922   3.887  18.053  0.00  0.00    +0.000 A 
ATOM     13  C   UNL     1      50.150   2.873  17.461  0.00  0.00    +0.000 A 
ATOM     14  C   UNL     1      50.705   1.623  17.178  0.00  0.00    +0.000 A 
ATOM     15  C   UNL     1      52.045   1.371  17.472  0.00  0.00    +0.000 A 
ATOM     16  C   UNL     1      52.817   2.365  18.069  0.00  0.00    +0.000 A 
ATOM     17 CL   UNL     1      54.478   2.069  18.406  0.00  0.00    +0.000 Cl
ATOM     18  C   UNL     1      52.263   3.610  18.369  0.00  0.00    +0.000 A 
ENDBRANCH  11  12
ENDBRANCH   8  11
ENDBRANCH   7   8
ENDBRANCH   1   7
BRANCH   5  19
ATOM     19  C   UNL     1      47.306   6.197  12.184  0.00  0.00    +0.000 C 
BRANCH  19  20
ATOM     20  N   UNL     1      46.236   7.136  11.856  0.00  0.00    +0.000 N 
ATOM     21  C   UNL     1      46.453   8.548  12.165  0.00  0.00    +0.000 C 
ATOM     22  C   UNL     1      44.908   6.737  11.580  0.00  0.00    +0.000 C 
ATOM     23  O   UNL     1      44.017   7.575  11.454  0.00  0.00    +0.000 OA
BRANCH  22  24
ATOM     24  C   UNL     1      44.552   5.299  11.487  0.00  0.00    +0.000 A 
ATOM     25  C   UNL     1      43.788   4.596  12.405  0.00  0.00    +0.000 A 
ATOM     26  S   UNL     1      43.523   2.963  12.005  0.00  0.00    +0.000 S 
ATOM     27  C   UNL     1      44.222   3.186  10.478  0.00  0.00    +0.000 A 
ATOM     28  N   UNL     1      44.165   2.201   9.544  0.00  0.00    +0.000 NA
ATOM     29  C   UNL     1      44.654   2.530   8.398  0.00  0.00    +0.000 A 
ATOM     30  N   UNL     1      45.236   3.737   8.115  0.00  0.00    +0.000 N 
ATOM     31  C   UNL     1      45.474   4.697   9.078  0.00  0.00    +0.000 A 
ATOM     32  O   UNL     1      46.238   5.627   8.860  0.00  0.00    +0.000 OA
ATOM     33  C   UNL     1      44.791   4.440  10.337  0.00  0.00    +0.000 A 
ATOM     34  H   UNL     1      45.672   3.901   7.220  0.00  0.00    +0.000 HD
ENDBRANCH  22  24
ENDBRANCH  19  20
ENDBRANCH   5  19
TORSDOF 7
ENDMDL
MODEL 5
REMARK VINA RESULT:    -7.035      1.902      2.450
REMARK INTER + INTRA:         -11.634
REMARK INTER:                 -10.627
REMARK INTRA:                  -1.007
REMARK UNBOUND:                -1.719
REMARK  Name = 
REMARK  9 active torsions:
REMARK  status: ('A' for Active; 'I' for Inactive)
REMARK    1  A    between atoms: C_1  and  C_2
REMARK    2  A    between atoms: C_2  and  N_3
REMARK    3  A    between atoms: C_2  and  C_26
REMARK    4  A    between atoms: N_3  and  C_4
REMARK    5  A    between atoms: C_4  and  C_5
REMARK    6  A    between atoms: C_9  and  C_10
REMARK    7  A    between atoms: C_10  and  N_11
REMARK    8  A    between atoms: N_11  and  C_12
REMARK    9  A    between atoms: C_13  and  C_15
REMARK                            x       y       z     vdW  Elec       q    Type
REMARK                         _______ _______ _______ _____ _____    ______ ____
ROOT
ATOM      1  C   UNL     1      45.507   6.239  12.280  0.00  0.00    +0.000 A 
ATOM      2  C   UNL     1      45.148   7.577  12.047  0.00  0.00    +0.000 A 
ATOM      3  C   UNL     1      45.924   8.622  12.536  0.00  0.00    +0.000 A 
ATOM      4  C   UNL     1      47.045   8.345  13.308  0.00  0.00    +0.000 A 
ATOM      5  C   UNL     1      47.376   7.020  13.628  0.00  0.00    +0.000 A 
ATOM      6  C   UNL     1      46.611   5.973  13.103  0.00  0.00    +0.000 A 
ENDROOT
BRANCH   1   7
ATOM      7  C   UNL     1      44.726   5.099  11.666  0.00  0.00    +0.000 C 
BRANCH   7   8
ATOM      8  N   UNL     1      44.772   5.154  10.203  0.00  0.00    +0.000 NA
ATOM      9  H   UNL     1      44.196   5.931   9.887  0.00  0.00    +0.000 HD
BRANCH   8  11
ATOM     10  C   UNL     1      43.925   2.839  10.574  0.00  0.00    +0.000 C 
ATOM     11  C   UNL     1      44.270   3.934   9.558  0.00  0.00    +0.000 C 
BRANCH  11  12
ATOM     12  C   UNL     1      45.291   3.358   8.579  0.00  0.00    +0.000 A 
ATOM     13  C   UNL     1      46.120   4.177   7.792  0.00  0.00    +0.000 A 
ATOM     14  C   UNL     1      47.130   3.624   7.001  0.00  0.00    +0.000 A 
ATOM     15  C   UNL     1      47.335   2.245   6.993  0.00  0.00    +0.000 A 
ATOM     16  C   UNL     1      46.513   1.423   7.760  0.00  0.00    +0.000 A 
ATOM     17 CL   UNL     1      46.782  -0.277   7.778  0.00  0.00    +0.000 Cl
ATOM     18  C   UNL     1      45.492   1.968   8.539  0.00  0.00    +0.000 A 
ENDBRANCH  11  12
ENDBRANCH   8  11
ENDBRANCH   7   8
ENDBRANCH   1   7
BRANCH   5  19
ATOM     19  C   UNL     1      48.572   6.725  14.491  0.00  0.00    +0.000 C 
BRANCH  19  20
ATOM     20  N   UNL     1      49.573   7.776  14.656  0.00  0.00    +0.000 N 
ATOM     21  C   UNL     1      50.476   8.036  13.536  0.00  0.00    +0.000 C 
ATOM     22  C   UNL     1      49.939   8.311  15.912  0.00  0.00    +0.000 C 
ATOM     23  O   UNL     1      50.888   9.088  16.008  0.00  0.00    +0.000 OA
BRANCH  22  24
ATOM     24  C   UNL     1      49.220   7.909  17.146  0.00  0.00    +0.000 A 
ATOM     25  C   UNL     1      48.252   8.656  17.796  0.00  0.00    +0.000 A 
ATOM     26  S   UNL     1      47.585   7.911  19.174  0.00  0.00    +0.000 S 
ATOM     27  C   UNL     1      48.396   6.464  18.828  0.00  0.00    +0.000 A 
ATOM     28  N   UNL     1      48.130   5.338  19.538  0.00  0.00    +0.000 NA
ATOM     29  C   UNL     1      48.746   4.288  19.117  0.00  0.00    +0.000 A 
ATOM     30  N   UNL     1      49.640   4.270  18.080  0.00  0.00    +0.000 N 
ATOM     31  C   UNL     1      50.073   5.419  17.447  0.00  0.00    +0.000 A 
ATOM     32  O   UNL     1      51.066   5.403  16.733  0.00  0.00    +0.000 OA
ATOM     33  C   UNL     1      49.283   6.597  17.773  0.00  0.00    +0.000 A 
ATOM     34  H   UNL     1      50.150   3.430  17.853  0.00  0.00    +0.000 HD
ENDBRANCH  22  24
ENDBRANCH  19  20
ENDBRANCH   5  19
TORSDOF 7
ENDMDL
MODEL 6
REMARK VINA RESULT:    -6.781      1.708      2.417
REMARK INTER + INTRA:         -11.276
REMARK INTER:                  -9.704
REMARK INTRA:                  -1.572
REMARK UNBOUND:                -1.719
REMARK  Name = 
REMARK  9 active torsions:
REMARK  status: ('A' for Active; 'I' for Inactive)
REMARK    1  A    between atoms: C_1  and  C_2
REMARK    2  A    between atoms: C_2  and  N_3
REMARK    3  A    between atoms: C_2  and  C_26
REMARK    4  A    between atoms: N_3  and  C_4
REMARK    5  A    between atoms: C_4  and  C_5
REMARK    6  A    between atoms: C_9  and  C_10
REMARK    7  A    between atoms: C_10  and  N_11
REMARK    8  A    between atoms: N_11  and  C_12
REMARK    9  A    between atoms: C_13  and  C_15
REMARK                            x       y       z     vdW  Elec       q    Type
REMARK                         _______ _______ _______ _____ _____    ______ ____
ROOT
ATOM      1  C   UNL     1      47.626   7.328  12.918  0.00  0.00    +0.000 A 
ATOM      2  C   UNL     1      47.936   8.419  12.089  0.00  0.00    +0.000 A 
ATOM      3  C   UNL     1      48.852   9.384  12.488  0.00  0.00    +0.000 A 
ATOM      4  C   UNL     1      49.437   9.301  13.745  0.00  0.00    +0.000 A 
ATOM      5  C   UNL     1      49.080   8.271  14.627  0.00  0.00    +0.000 A 
ATOM      6  C   UNL     1      48.184   7.283  14.204  0.00  0.00    +0.000 A 
ENDROOT
BRANCH   1   7
ATOM      7  C   UNL     1      46.709   6.220  12.449  0.00  0.00    +0.000 C 
BRANCH   7   8
ATOM      8  N   UNL     1      45.940   6.632  11.273  0.00  0.00    +0.000 NA
ATOM      9  H   UNL     1      45.729   7.624  11.351  0.00  0.00    +0.000 HD
BRANCH   8  11
ATOM     10  C   UNL     1      44.059   5.529  12.480  0.00  0.00    +0.000 C 
ATOM     11  C   UNL     1      44.669   5.912  11.127  0.00  0.00    +0.000 C 
BRANCH  11  12
ATOM     12  C   UNL     1      44.840   4.633  10.312  0.00  0.00    +0.000 A 
ATOM     13  C   UNL     1      44.250   3.416  10.694  0.00  0.00    +0.000 A 
ATOM     14  C   UNL     1      44.318   2.294   9.863  0.00  0.00    +0.000 A 
ATOM     15  C   UNL     1      44.967   2.376   8.631  0.00  0.00    +0.000 A 
ATOM     16  C   UNL     1      45.565   3.574   8.247  0.00  0.00    +0.000 A 
ATOM     17 CL   UNL     1      46.340   3.688   6.715  0.00  0.00    +0.000 Cl
ATOM     18  C   UNL     1      45.514   4.692   9.080  0.00  0.00    +0.000 A 
ENDBRANCH  11  12
ENDBRANCH   8  11
ENDBRANCH   7   8
ENDBRANCH   1   7
BRANCH   5  19
ATOM     19  C   UNL     1      49.691   8.202  15.999  0.00  0.00    +0.000 C 
BRANCH  19  20
ATOM     20  N   UNL     1      48.790   8.093  17.144  0.00  0.00    +0.000 N 
ATOM     21  C   UNL     1      47.998   9.270  17.500  0.00  0.00    +0.000 C 
ATOM     22  C   UNL     1      48.880   7.065  18.110  0.00  0.00    +0.000 C 
ATOM     23  O   UNL     1      48.192   7.103  19.129  0.00  0.00    +0.000 OA
BRANCH  22  24
ATOM     24  C   UNL     1      49.842   5.947  17.941  0.00  0.00    +0.000 A 
ATOM     25  C   UNL     1      51.130   5.906  18.450  0.00  0.00    +0.000 A 
ATOM     26  S   UNL     1      51.980   4.470  18.114  0.00  0.00    +0.000 S 
ATOM     27  C   UNL     1      50.585   3.751  17.474  0.00  0.00    +0.000 A 
ATOM     28  N   UNL     1      50.578   2.433  17.147  0.00  0.00    +0.000 NA
ATOM     29  C   UNL     1      49.433   1.991  16.757  0.00  0.00    +0.000 A 
ATOM     30  N   UNL     1      48.306   2.757  16.619  0.00  0.00    +0.000 N 
ATOM     31  C   UNL     1      48.312   4.129  16.770  0.00  0.00    +0.000 A 
ATOM     32  O   UNL     1      47.376   4.807  16.368  0.00  0.00    +0.000 OA
ATOM     33  C   UNL     1      49.533   4.644  17.372  0.00  0.00    +0.000 A 
ATOM     34  H   UNL     1      47.461   2.365  16.231  0.00  0.00    +0.000 HD
ENDBRANCH  22  24
ENDBRANCH  19  20
ENDBRANCH   5  19
TORSDOF 7
ENDMDL
MODEL 7
REMARK VINA RESULT:    -6.714      3.798      8.053
REMARK INTER + INTRA:         -11.181
REMARK INTER:                  -9.715
REMARK INTRA:                  -1.466
REMARK UNBOUND:                -1.719
REMARK  Name = 
REMARK  9 active torsions:
REMARK  status: ('A' for Active; 'I' for Inactive)
REMARK    1  A    between atoms: C_1  and  C_2
REMARK    2  A    between atoms: C_2  and  N_3
REMARK    3  A    between atoms: C_2  and  C_26
REMARK    4  A    between atoms: N_3  and  C_4
REMARK    5  A    between atoms: C_4  and  C_5
REMARK    6  A    between atoms: C_9  and  C_10
REMARK    7  A    between atoms: C_10  and  N_11
REMARK    8  A    between atoms: N_11  and  C_12
REMARK    9  A    between atoms: C_13  and  C_15
REMARK                            x       y       z     vdW  Elec       q    Type
REMARK                         _______ _______ _______ _____ _____    ______ ____
ROOT
ATOM      1  C   UNL     1      48.083   5.440  15.425  0.00  0.00    +0.000 A 
ATOM      2  C   UNL     1      49.183   6.199  15.857  0.00  0.00    +0.000 A 
ATOM      3  C   UNL     1      49.695   7.227  15.073  0.00  0.00    +0.000 A 
ATOM      4  C   UNL     1      49.145   7.480  13.823  0.00  0.00    +0.000 A 
ATOM      5  C   UNL     1      48.103   6.681  13.332  0.00  0.00    +0.000 A 
ATOM      6  C   UNL     1      47.570   5.671  14.140  0.00  0.00    +0.000 A 
ENDROOT
BRANCH   1   7
ATOM      7  C   UNL     1      47.457   4.389  16.315  0.00  0.00    +0.000 C 
BRANCH   7   8
ATOM      8  N   UNL     1      48.308   3.201  16.411  0.00  0.00    +0.000 NA
ATOM      9  H   UNL     1      47.760   2.383  16.151  0.00  0.00    +0.000 HD
BRANCH   8  11
ATOM     10  C   UNL     1      48.331   4.009  18.769  0.00  0.00    +0.000 C 
ATOM     11  C   UNL     1      48.840   2.973  17.760  0.00  0.00    +0.000 C 
BRANCH  11  12
ATOM     12  C   UNL     1      50.367   3.016  17.775  0.00  0.00    +0.000 A 
ATOM     13  C   UNL     1      51.080   4.133  18.242  0.00  0.00    +0.000 A 
ATOM     14  C   UNL     1      52.472   4.095  18.362  0.00  0.00    +0.000 A 
ATOM     15  C   UNL     1      53.170   2.935  18.029  0.00  0.00    +0.000 A 
ATOM     16  C   UNL     1      52.474   1.825  17.555  0.00  0.00    +0.000 A 
ATOM     17 CL   UNL     1      53.328   0.381  17.172  0.00  0.00    +0.000 Cl
ATOM     18  C   UNL     1      51.087   1.863  17.417  0.00  0.00    +0.000 A 
ENDBRANCH  11  12
ENDBRANCH   8  11
ENDBRANCH   7   8
ENDBRANCH   1   7
BRANCH   5  19
ATOM     19  C   UNL     1      47.532   6.936  11.965  0.00  0.00    +0.000 C 
BRANCH  19  20
ATOM     20  N   UNL     1      46.370   7.815  11.862  0.00  0.00    +0.000 N 
ATOM     21  C   UNL     1      46.378   9.048  12.648  0.00  0.00    +0.000 C 
ATOM     22  C   UNL     1      45.127   7.403  11.330  0.00  0.00    +0.000 C 
ATOM     23  O   UNL     1      44.142   8.137  11.401  0.00  0.00    +0.000 OA
BRANCH  22  24
ATOM     24  C   UNL     1      44.970   6.058  10.724  0.00  0.00    +0.000 A 
ATOM     25  C   UNL     1      45.550   5.634   9.539  0.00  0.00    +0.000 A 
ATOM     26  S   UNL     1      45.208   4.020   9.120  0.00  0.00    +0.000 S 
ATOM     27  C   UNL     1      44.462   3.750  10.617  0.00  0.00    +0.000 A 
ATOM     28  N   UNL     1      44.083   2.498  10.982  0.00  0.00    +0.000 NA
ATOM     29  C   UNL     1      43.611   2.416  12.178  0.00  0.00    +0.000 A 
ATOM     30  N   UNL     1      43.438   3.479  13.024  0.00  0.00    +0.000 N 
ATOM     31  C   UNL     1      43.642   4.787  12.632  0.00  0.00    +0.000 A 
ATOM     32  O   UNL     1      43.215   5.716  13.304  0.00  0.00    +0.000 OA
ATOM     33  C   UNL     1      44.333   4.913  11.357  0.00  0.00    +0.000 A 
ATOM     34  H   UNL     1      42.987   3.358  13.918  0.00  0.00    +0.000 HD
ENDBRANCH  22  24
ENDBRANCH  19  20
ENDBRANCH   5  19
TORSDOF 7
ENDMDL
MODEL 8
REMARK VINA RESULT:    -6.576      2.191      3.751
REMARK INTER + INTRA:         -10.986
REMARK INTER:                  -9.208
REMARK INTRA:                  -1.777
REMARK UNBOUND:                -1.719
REMARK  Name = 
REMARK  9 active torsions:
REMARK  status: ('A' for Active; 'I' for Inactive)
REMARK    1  A    between atoms: C_1  and  C_2
REMARK    2  A    between atoms: C_2  and  N_3
REMARK    3  A    between atoms: C_2  and  C_26
REMARK    4  A    between atoms: N_3  and  C_4
REMARK    5  A    between atoms: C_4  and  C_5
REMARK    6  A    between atoms: C_9  and  C_10
REMARK    7  A    between atoms: C_10  and  N_11
REMARK    8  A    between atoms: N_11  and  C_12
REMARK    9  A    between atoms: C_13  and  C_15
REMARK                            x       y       z     vdW  Elec       q    Type
REMARK                         _______ _______ _______ _____ _____    ______ ____
ROOT
ATOM      1  C   UNL     1      48.648   7.731  15.015  0.00  0.00    +0.000 A 
ATOM      2  C   UNL     1      48.183   9.057  15.005  0.00  0.00    +0.000 A 
ATOM      3  C   UNL     1      48.502   9.935  16.034  0.00  0.00    +0.000 A 
ATOM      4  C   UNL     1      49.250   9.486  17.115  0.00  0.00    +0.000 A 
ATOM      5  C   UNL     1      49.653   8.146  17.192  0.00  0.00    +0.000 A 
ATOM      6  C   UNL     1      49.358   7.277  16.135  0.00  0.00    +0.000 A 
ENDROOT
BRANCH   1   7
ATOM      7  C   UNL     1      48.391   6.801  13.850  0.00  0.00    +0.000 C 
BRANCH   7   8
ATOM      8  N   UNL     1      46.983   6.404  13.790  0.00  0.00    +0.000 NA
ATOM      9  H   UNL     1      46.922   5.394  13.909  0.00  0.00    +0.000 HD
BRANCH   8  11
ATOM     10  C   UNL     1      45.450   7.990  12.628  0.00  0.00    +0.000 C 
ATOM     11  C   UNL     1      46.336   6.744  12.516  0.00  0.00    +0.000 C 
BRANCH  11  12
ATOM     12  C   UNL     1      45.467   5.597  12.006  0.00  0.00    +0.000 A 
ATOM     13  C   UNL     1      44.589   4.890  12.846  0.00  0.00    +0.000 A 
ATOM     14  C   UNL     1      43.715   3.932  12.325  0.00  0.00    +0.000 A 
ATOM     15  C   UNL     1      43.697   3.674  10.955  0.00  0.00    +0.000 A 
ATOM     16  C   UNL     1      44.570   4.361  10.114  0.00  0.00    +0.000 A 
ATOM     17 CL   UNL     1      44.530   4.069   8.419  0.00  0.00    +0.000 Cl
ATOM     18  C   UNL     1      45.456   5.306  10.631  0.00  0.00    +0.000 A 
ENDBRANCH  11  12
ENDBRANCH   8  11
ENDBRANCH   7   8
ENDBRANCH   1   7
BRANCH   5  19
ATOM     19  C   UNL     1      50.434   7.655  18.379  0.00  0.00    +0.000 C 
BRANCH  19  20
ATOM     20  N   UNL     1      49.688   7.162  19.534  0.00  0.00    +0.000 N 
ATOM     21  C   UNL     1      49.360   8.118  20.590  0.00  0.00    +0.000 C 
ATOM     22  C   UNL     1      49.560   5.790  19.849  0.00  0.00    +0.000 C 
ATOM     23  O   UNL     1      49.045   5.438  20.910  0.00  0.00    +0.000 OA
BRANCH  22  24
ATOM     24  C   UNL     1      50.088   4.749  18.933  0.00  0.00    +0.000 A 
ATOM     25  C   UNL     1      51.367   4.217  18.968  0.00  0.00    +0.000 A 
ATOM     26  S   UNL     1      51.665   3.010  17.805  0.00  0.00    +0.000 S 
ATOM     27  C   UNL     1      50.031   2.985  17.358  0.00  0.00    +0.000 A 
ATOM     28  N   UNL     1      49.564   2.036  16.507  0.00  0.00    +0.000 NA
ATOM     29  C   UNL     1      48.290   2.073  16.320  0.00  0.00    +0.000 A 
ATOM     30  N   UNL     1      47.447   3.001  16.870  0.00  0.00    +0.000 N 
ATOM     31  C   UNL     1      47.900   4.086  17.595  0.00  0.00    +0.000 A 
ATOM     32  O   UNL     1      47.164   5.035  17.826  0.00  0.00    +0.000 OA
ATOM     33  C   UNL     1      49.303   3.990  17.972  0.00  0.00    +0.000 A 
ATOM     34  H   UNL     1      46.471   3.024  16.618  0.00  0.00    +0.000 HD
ENDBRANCH  22  24
ENDBRANCH  19  20
ENDBRANCH   5  19
TORSDOF 7
ENDMDL
MODEL 9
REMARK VINA RESULT:    -6.567      4.367      9.180
REMARK INTER + INTRA:         -10.973
REMARK INTER:                  -9.310
REMARK INTRA:                  -1.663
REMARK UNBOUND:                -1.719
REMARK  Name = 
REMARK  9 active torsions:
REMARK  status: ('A' for Active; 'I' for Inactive)
REMARK    1  A    between atoms: C_1  and  C_2
REMARK    2  A    between atoms: C_2  and  N_3
REMARK    3  A    between atoms: C_2  and  C_26
REMARK    4  A    between atoms: N_3  and  C_4
REMARK    5  A    between atoms: C_4  and  C_5
REMARK    6  A    between atoms: C_9  and  C_10
REMARK    7  A    between atoms: C_10  and  N_11
REMARK    8  A    between atoms: N_11  and  C_12
REMARK    9  A    between atoms: C_13  and  C_15
REMARK                            x       y       z     vdW  Elec       q    Type
REMARK                         _______ _______ _______ _____ _____    ______ ____
ROOT
ATOM      1  C   UNL     1      48.734   6.565  15.702  0.00  0.00    +0.000 A 
ATOM      2  C   UNL     1      48.127   5.468  16.335  0.00  0.00    +0.000 A 
ATOM      3  C   UNL     1      47.320   4.588  15.624  0.00  0.00    +0.000 A 
ATOM      4  C   UNL     1      47.068   4.818  14.278  0.00  0.00    +0.000 A 
ATOM      5  C   UNL     1      47.592   5.953  13.643  0.00  0.00    +0.000 A 
ATOM      6  C   UNL     1      48.432   6.816  14.356  0.00  0.00    +0.000 A 
ENDROOT
BRANCH   1   7
ATOM      7  C   UNL     1      49.695   7.467  16.445  0.00  0.00    +0.000 C 
BRANCH   7   8
ATOM      8  N   UNL     1      48.989   8.306  17.417  0.00  0.00    +0.000 NA
ATOM      9  H   UNL     1      48.874   9.237  17.023  0.00  0.00    +0.000 HD
BRANCH   8  11
ATOM     10  C   UNL     1      51.224   8.382  18.519  0.00  0.00    +0.000 C 
ATOM     11  C   UNL     1      49.703   8.444  18.693  0.00  0.00    +0.000 C 
BRANCH  11  12
ATOM     12  C   UNL     1      49.300   7.351  19.681  0.00  0.00    +0.000 A 
ATOM     13  C   UNL     1      47.970   6.921  19.822  0.00  0.00    +0.000 A 
ATOM     14  C   UNL     1      47.651   5.834  20.640  0.00  0.00    +0.000 A 
ATOM     15  C   UNL     1      48.660   5.151  21.319  0.00  0.00    +0.000 A 
ATOM     16  C   UNL     1      49.981   5.575  21.195  0.00  0.00    +0.000 A 
ATOM     17 CL   UNL     1      51.233   4.717  22.007  0.00  0.00    +0.000 Cl
ATOM     18  C   UNL     1      50.303   6.670  20.393  0.00  0.00    +0.000 A 
ENDBRANCH  11  12
ENDBRANCH   8  11
ENDBRANCH   7   8
ENDBRANCH   1   7
BRANCH   5  19
ATOM     19  C   UNL     1      47.291   6.218  12.194  0.00  0.00    +0.000 C 
BRANCH  19  20
ATOM     20  N   UNL     1      46.202   7.139  11.878  0.00  0.00    +0.000 N 
ATOM     21  C   UNL     1      46.405   8.557  12.171  0.00  0.00    +0.000 C 
ATOM     22  C   UNL     1      44.875   6.720  11.630  0.00  0.00    +0.000 C 
ATOM     23  O   UNL     1      43.970   7.546  11.513  0.00  0.00    +0.000 OA
BRANCH  22  24
ATOM     24  C   UNL     1      44.537   5.277  11.556  0.00  0.00    +0.000 A 
ATOM     25  C   UNL     1      43.803   4.571  12.495  0.00  0.00    +0.000 A 
ATOM     26  S   UNL     1      43.552   2.932  12.113  0.00  0.00    +0.000 S 
ATOM     27  C   UNL     1      44.214   3.152  10.570  0.00  0.00    +0.000 A 
ATOM     28  N   UNL     1      44.151   2.159   9.645  0.00  0.00    +0.000 NA
ATOM     29  C   UNL     1      44.610   2.486   8.486  0.00  0.00    +0.000 A 
ATOM     30  N   UNL     1      45.169   3.698   8.181  0.00  0.00    +0.000 N 
ATOM     31  C   UNL     1      45.414   4.669   9.132  0.00  0.00    +0.000 A 
ATOM     32  O   UNL     1      46.160   5.608   8.889  0.00  0.00    +0.000 OA
ATOM     33  C   UNL     1      44.762   4.413  10.408  0.00  0.00    +0.000 A 
ATOM     34  H   UNL     1      45.583   3.861   7.276  0.00  0.00    +0.000 HD
ENDBRANCH  22  24
ENDBRANCH  19  20
ENDBRANCH   5  19
TORSDOF 7
ENDMDL
