MODEL 1
REMARK VINA RESULT:    -8.028      0.000      0.000
REMARK INTER + INTRA:         -12.525
REMARK INTER:                 -11.548
REMARK INTRA:                  -0.977
REMARK UNBOUND:                -0.977
REMARK  Name = 
REMARK  8 active torsions:
REMARK  status: ('A' for Active; 'I' for Inactive)
REMARK    1  A    between atoms: N_1  and  C_2
REMARK    2  A    between atoms: C_2  and  C_3
REMARK    3  A    between atoms: C_2  and  C_24
REMARK    4  A    between atoms: C_3  and  C_4
REMARK    5  A    between atoms: C_7  and  C_8
REMARK    6  A    between atoms: C_8  and  N_9
REMARK    7  A    between atoms: C_10  and  C_12
REMARK    8  A    between atoms: C_24  and  C_26
REMARK                            x       y       z     vdW  Elec       q    Type
REMARK                         _______ _______ _______ _____ _____    ______ ____
ROOT
ATOM      1  C   UNL     1      45.593   4.562  12.198  0.00  0.00    +0.000 A 
ATOM      2  C   UNL     1      46.111   4.123  13.411  0.00  0.00    +0.000 A 
ATOM      3  C   UNL     1      47.042   4.923  14.076  0.00  0.00    +0.000 A 
ATOM      4  C   UNL     1      47.446   6.132  13.506  0.00  0.00    +0.000 A 
ATOM      5  C   UNL     1      46.838   6.508  12.314  0.00  0.00    +0.000 A 
ATOM      6  N   UNL     1      45.916   5.758  11.658  0.00  0.00    +0.000 NA
ENDROOT
BRANCH   1   7
ATOM      7  C   UNL     1      44.677   3.677  11.390  0.00  0.00    +0.000 C 
BRANCH   7   8
ATOM      8  C   UNL     1      44.755   3.908   9.870  0.00  0.00    +0.000 C 
BRANCH   8   9
ATOM      9  N   UNL     1      43.655   4.751   9.343  0.00  0.00    +0.000 NA
ATOM     10  H   UNL     1      42.853   4.724   9.965  0.00  0.00    +0.000 HD
ATOM     11  H   UNL     1      43.361   4.345   8.448  0.00  0.00    +0.000 HD
ENDBRANCH   8   9
BRANCH   8  12
ATOM     12  C   UNL     1      44.794   2.580   9.080  0.00  0.00    +0.000 C 
ATOM     13  O   UNL     1      43.994   1.668   9.305  0.00  0.00    +0.000 OA
BRANCH  12  14
ATOM     14  C   UNL     1      45.807   2.392   7.991  0.00  0.00    +0.000 A 
ATOM     15  C   UNL     1      46.029   3.329   6.981  0.00  0.00    +0.000 A 
ATOM     16  C   UNL     1      46.941   3.017   5.984  0.00  0.00    +0.000 A 
ATOM     17  N   UNL     1      47.641   1.868   5.938  0.00  0.00    +0.000 NA
ATOM     18  C   UNL     1      47.426   0.983   6.934  0.00  0.00    +0.000 A 
ATOM     19  C   UNL     1      46.530   1.196   7.967  0.00  0.00    +0.000 A 
ENDBRANCH  12  14
ENDBRANCH   8  12
ENDBRANCH   7   8
ENDBRANCH   1   7
BRANCH   4  20
ATOM     20  C   UNL     1      48.469   7.007  14.165  0.00  0.00    +0.000 C 
BRANCH  20  21
ATOM     21  N   UNL     1      48.203   7.156  15.573  0.00  0.00    +0.000 N 
ATOM     22  C   UNL     1      49.063   6.654  16.514  0.00  0.00    +0.000 C 
ATOM     23  O   UNL     1      50.109   6.089  16.206  0.00  0.00    +0.000 OA
ATOM     24  H   UNL     1      47.254   7.392  15.843  0.00  0.00    +0.000 HD
BRANCH  22  25
ATOM     25  C   UNL     1      48.700   6.884  17.917  0.00  0.00    +0.000 A 
ATOM     26  C   UNL     1      48.391   8.168  18.346  0.00  0.00    +0.000 A 
ATOM     27  S   UNL     1      47.953   8.252  19.991  0.00  0.00    +0.000 S 
ATOM     28  C   UNL     1      48.207   6.584  20.200  0.00  0.00    +0.000 A 
ATOM     29  N   UNL     1      48.035   5.996  21.416  0.00  0.00    +0.000 NA
ATOM     30  C   UNL     1      48.293   4.732  21.440  0.00  0.00    +0.000 A 
ATOM     31  N   UNL     1      48.700   3.997  20.356  0.00  0.00    +0.000 N 
ATOM     32  C   UNL     1      48.854   4.540  19.102  0.00  0.00    +0.000 A 
ATOM     33  O   UNL     1      49.169   3.844  18.142  0.00  0.00    +0.000 OA
ATOM     34  C   UNL     1      48.599   5.965  19.026  0.00  0.00    +0.000 A 
ATOM     35  H   UNL     1      48.871   3.007  20.439  0.00  0.00    +0.000 HD
ENDBRANCH  22  25
ENDBRANCH  20  21
ENDBRANCH   4  20
TORSDOF 8
ENDMDL
MODEL 2
REMARK VINA RESULT:    -7.911      1.364      2.220
REMARK INTER + INTRA:         -12.356
REMARK INTER:                 -11.263
REMARK INTRA:                  -1.094
REMARK UNBOUND:                -0.977
REMARK  Name = 
REMARK  8 active torsions:
REMARK  status: ('A' for Active; 'I' for Inactive)
REMARK    1  A    between atoms: N_1  and  C_2
REMARK    2  A    between atoms: C_2  and  C_3
REMARK    3  A    between atoms: C_2  and  C_24
REMARK    4  A    between atoms: C_3  and  C_4
REMARK    5  A    between atoms: C_7  and  C_8
REMARK    6  A    between atoms: C_8  and  N_9
REMARK    7  A    between atoms: C_10  and  C_12
REMARK    8  A    between atoms: C_24  and  C_26
REMARK                            x       y       z     vdW  Elec       q    Type
REMARK                         _______ _______ _______ _____ _____    ______ ____
ROOT
ATOM      1  C   UNL     1      45.705   4.619  12.263  0.00  0.00    +0.000 A 
ATOM      2  C   UNL     1      46.189   5.825  11.770  0.00  0.00    +0.000 A 
ATOM      3  C   UNL     1      47.111   6.544  12.530  0.00  0.00    +0.000 A 
ATOM      4  C   UNL     1      47.515   6.052  13.773  0.00  0.00    +0.000 A 
ATOM      5  C   UNL     1      47.012   4.815  14.161  0.00  0.00    +0.000 A 
ATOM      6  N   UNL     1      46.130   4.087  13.431  0.00  0.00    +0.000 NA
ENDROOT
BRANCH   1   7
ATOM      7  C   UNL     1      44.620   3.869  11.530  0.00  0.00    +0.000 C 
BRANCH   7   8
ATOM      8  C   UNL     1      44.706   3.973   9.997  0.00  0.00    +0.000 C 
BRANCH   8   9
ATOM      9  N   UNL     1      43.600   4.755   9.395  0.00  0.00    +0.000 NA
ATOM     10  H   UNL     1      42.998   4.156   8.839  0.00  0.00    +0.000 HD
ATOM     11  H   UNL     1      44.021   5.439   8.757  0.00  0.00    +0.000 HD
ENDBRANCH   8   9
BRANCH   8  12
ATOM     12  C   UNL     1      44.767   2.585   9.321  0.00  0.00    +0.000 C 
ATOM     13  O   UNL     1      43.930   1.709   9.562  0.00  0.00    +0.000 OA
BRANCH  12  14
ATOM     14  C   UNL     1      45.846   2.288   8.325  0.00  0.00    +0.000 A 
ATOM     15  C   UNL     1      46.298   0.997   8.048  0.00  0.00    +0.000 A 
ATOM     16  C   UNL     1      47.353   0.847   7.159  0.00  0.00    +0.000 A 
ATOM     17  N   UNL     1      47.960   1.873   6.532  0.00  0.00    +0.000 NA
ATOM     18  C   UNL     1      47.496   3.111   6.799  0.00  0.00    +0.000 A 
ATOM     19  C   UNL     1      46.457   3.366   7.678  0.00  0.00    +0.000 A 
ENDBRANCH  12  14
ENDBRANCH   8  12
ENDBRANCH   7   8
ENDBRANCH   1   7
BRANCH   4  20
ATOM     20  C   UNL     1      48.476   6.807  14.641  0.00  0.00    +0.000 C 
BRANCH  20  21
ATOM     21  N   UNL     1      48.241   6.542  16.037  0.00  0.00    +0.000 N 
ATOM     22  C   UNL     1      49.219   6.004  16.831  0.00  0.00    +0.000 C 
ATOM     23  O   UNL     1      50.343   5.757  16.404  0.00  0.00    +0.000 OA
ATOM     24  H   UNL     1      47.275   6.507  16.346  0.00  0.00    +0.000 HD
BRANCH  22  25
ATOM     25  C   UNL     1      48.872   5.798  18.242  0.00  0.00    +0.000 A 
ATOM     26  C   UNL     1      49.074   4.554  18.826  0.00  0.00    +0.000 A 
ATOM     27  S   UNL     1      48.657   4.498  20.478  0.00  0.00    +0.000 S 
ATOM     28  C   UNL     1      48.149   6.121  20.460  0.00  0.00    +0.000 A 
ATOM     29  N   UNL     1      47.638   6.707  21.577  0.00  0.00    +0.000 NA
ATOM     30  C   UNL     1      47.262   7.931  21.415  0.00  0.00    +0.000 A 
ATOM     31  N   UNL     1      47.357   8.627  20.238  0.00  0.00    +0.000 N 
ATOM     32  C   UNL     1      47.898   8.089  19.094  0.00  0.00    +0.000 A 
ATOM     33  O   UNL     1      48.017   8.756  18.072  0.00  0.00    +0.000 OA
ATOM     34  C   UNL     1      48.315   6.706  19.217  0.00  0.00    +0.000 A 
ATOM     35  H   UNL     1      47.058   9.589  20.182  0.00  0.00    +0.000 HD
ENDBRANCH  22  25
ENDBRANCH  20  21
ENDBRANCH   4  20
TORSDOF 8
ENDMDL
MODEL 3
REMARK VINA RESULT:    -7.547      1.631      2.204
REMARK INTER + INTRA:         -11.833
REMARK INTER:                 -10.618
REMARK INTRA:                  -1.215
REMARK UNBOUND:                -0.977
REMARK  Name = 
REMARK  8 active torsions:
REMARK  status: ('A' for Active; 'I' for Inactive)
REMARK    1  A    between atoms: N_1  and  C_2
REMARK    2  A    between atoms: C_2  and  C_3
REMARK    3  A    between atoms: C_2  and  C_24
REMARK    4  A    between atoms: C_3  and  C_4
REMARK    5  A    between atoms: C_7  and  C_8
REMARK    6  A    between atoms: C_8  and  N_9
REMARK    7  A    between atoms: C_10  and  C_12
REMARK    8  A    between atoms: C_24  and  C_26
REMARK                            x       y       z     vdW  Elec       q    Type
REMARK                         _______ _______ _______ _____ _____    ______ ____
ROOT
ATOM      1  C   UNL     1      45.275   5.469  13.217  0.00  0.00    +0.000 A 
ATOM      2  C   UNL     1      45.619   6.701  12.673  0.00  0.00    +0.000 A 
ATOM      3  C   UNL     1      46.883   7.228  12.940  0.00  0.00    +0.000 A 
ATOM      4  C   UNL     1      47.767   6.522  13.759  0.00  0.00    +0.000 A 
ATOM      5  C   UNL     1      47.351   5.277  14.220  0.00  0.00    +0.000 A 
ATOM      6  N   UNL     1      46.135   4.734  13.958  0.00  0.00    +0.000 NA
ENDROOT
BRANCH   1   7
ATOM      7  C   UNL     1      43.880   4.919  13.052  0.00  0.00    +0.000 C 
BRANCH   7   8
ATOM      8  C   UNL     1      43.397   4.850  11.591  0.00  0.00    +0.000 C 
BRANCH   8   9
ATOM      9  N   UNL     1      41.986   5.265  11.416  0.00  0.00    +0.000 NA
ATOM     10  H   UNL     1      41.423   4.489  11.080  0.00  0.00    +0.000 HD
ATOM     11  H   UNL     1      41.968   5.990  10.690  0.00  0.00    +0.000 HD
ENDBRANCH   8   9
BRANCH   8  12
ATOM     12  C   UNL     1      43.589   3.444  10.980  0.00  0.00    +0.000 C 
ATOM     13  O   UNL     1      42.996   2.457  11.425  0.00  0.00    +0.000 OA
BRANCH  12  14
ATOM     14  C   UNL     1      44.494   3.263   9.799  0.00  0.00    +0.000 A 
ATOM     15  C   UNL     1      44.904   2.013   9.334  0.00  0.00    +0.000 A 
ATOM     16  C   UNL     1      45.800   1.967   8.276  0.00  0.00    +0.000 A 
ATOM     17  N   UNL     1      46.289   3.058   7.657  0.00  0.00    +0.000 NA
ATOM     18  C   UNL     1      45.866   4.256   8.110  0.00  0.00    +0.000 A 
ATOM     19  C   UNL     1      44.984   4.408   9.165  0.00  0.00    +0.000 A 
ENDBRANCH  12  14
ENDBRANCH   8  12
ENDBRANCH   7   8
ENDBRANCH   1   7
BRANCH   4  20
ATOM     20  C   UNL     1      49.120   7.064  14.104  0.00  0.00    +0.000 C 
BRANCH  20  21
ATOM     21  N   UNL     1      49.406   6.911  15.507  0.00  0.00    +0.000 N 
ATOM     22  C   UNL     1      48.993   7.845  16.421  0.00  0.00    +0.000 C 
ATOM     23  O   UNL     1      48.336   8.830  16.095  0.00  0.00    +0.000 OA
ATOM     24  H   UNL     1      50.136   6.255  15.763  0.00  0.00    +0.000 HD
BRANCH  22  25
ATOM     25  C   UNL     1      49.322   7.573  17.825  0.00  0.00    +0.000 A 
ATOM     26  C   UNL     1      50.109   8.471  18.534  0.00  0.00    +0.000 A 
ATOM     27  S   UNL     1      50.361   8.024  20.160  0.00  0.00    +0.000 S 
ATOM     28  C   UNL     1      49.467   6.590  19.961  0.00  0.00    +0.000 A 
ATOM     29  N   UNL     1      49.317   5.711  20.989  0.00  0.00    +0.000 NA
ATOM     30  C   UNL     1      48.644   4.651  20.691  0.00  0.00    +0.000 A 
ATOM     31  N   UNL     1      48.099   4.392  19.459  0.00  0.00    +0.000 N 
ATOM     32  C   UNL     1      48.196   5.266  18.402  0.00  0.00    +0.000 A 
ATOM     33  O   UNL     1      47.652   5.028  17.329  0.00  0.00    +0.000 OA
ATOM     34  C   UNL     1      48.964   6.465  18.678  0.00  0.00    +0.000 A 
ATOM     35  H   UNL     1      47.570   3.549  19.296  0.00  0.00    +0.000 HD
ENDBRANCH  22  25
ENDBRANCH  20  21
ENDBRANCH   4  20
TORSDOF 8
ENDMDL
MODEL 4
REMARK VINA RESULT:    -7.491      3.542      8.811
REMARK INTER + INTRA:         -11.752
REMARK INTER:                 -10.356
REMARK INTRA:                  -1.395
REMARK UNBOUND:                -0.977
REMARK  Name = 
REMARK  8 active torsions:
REMARK  status: ('A' for Active; 'I' for Inactive)
REMARK    1  A    between atoms: N_1  and  C_2
REMARK    2  A    between atoms: C_2  and  C_3
REMARK    3  A    between atoms: C_2  and  C_24
REMARK    4  A    between atoms: C_3  and  C_4
REMARK    5  A    between atoms: C_7  and  C_8
REMARK    6  A    between atoms: C_8  and  N_9
REMARK    7  A    between atoms: C_10  and  C_12
REMARK    8  A    between atoms: C_24  and  C_26
REMARK                            x       y       z     vdW  Elec       q    Type
REMARK                         _______ _______ _______ _____ _____    ______ ____
ROOT
ATOM      1  C   UNL     1      48.926   7.517  16.186  0.00  0.00    +0.000 A 
ATOM      2  C   UNL     1      48.486   8.765  15.760  0.00  0.00    +0.000 A 
ATOM      3  C   UNL     1      48.241   8.968  14.402  0.00  0.00    +0.000 A 
ATOM      4  C   UNL     1      48.459   7.926  13.498  0.00  0.00    +0.000 A 
ATOM      5  C   UNL     1      48.855   6.701  14.022  0.00  0.00    +0.000 A 
ATOM      6  N   UNL     1      49.080   6.473  15.341  0.00  0.00    +0.000 NA
ENDROOT
BRANCH   1   7
ATOM      7  C   UNL     1      49.315   7.290  17.625  0.00  0.00    +0.000 C 
BRANCH   7   8
ATOM      8  C   UNL     1      48.272   6.509  18.445  0.00  0.00    +0.000 C 
BRANCH   8   9
ATOM      9  N   UNL     1      47.759   7.259  19.616  0.00  0.00    +0.000 NA
ATOM     10  H   UNL     1      46.756   7.132  19.712  0.00  0.00    +0.000 HD
ATOM     11  H   UNL     1      47.924   8.255  19.437  0.00  0.00    +0.000 HD
ENDBRANCH   8   9
BRANCH   8  12
ATOM     12  C   UNL     1      48.810   5.140  18.921  0.00  0.00    +0.000 C 
ATOM     13  O   UNL     1      49.080   4.926  20.106  0.00  0.00    +0.000 OA
BRANCH  12  14
ATOM     14  C   UNL     1      48.988   4.027  17.933  0.00  0.00    +0.000 A 
ATOM     15  C   UNL     1      47.962   3.564  17.109  0.00  0.00    +0.000 A 
ATOM     16  C   UNL     1      48.221   2.479  16.284  0.00  0.00    +0.000 A 
ATOM     17  N   UNL     1      49.411   1.854  16.216  0.00  0.00    +0.000 NA
ATOM     18  C   UNL     1      50.395   2.329  17.006  0.00  0.00    +0.000 A 
ATOM     19  C   UNL     1      50.234   3.396  17.872  0.00  0.00    +0.000 A 
ENDBRANCH  12  14
ENDBRANCH   8  12
ENDBRANCH   7   8
ENDBRANCH   1   7
BRANCH   4  20
ATOM     20  C   UNL     1      48.244   8.107  12.026  0.00  0.00    +0.000 C 
BRANCH  20  21
ATOM     21  N   UNL     1      47.565   6.975  11.451  0.00  0.00    +0.000 N 
ATOM     22  C   UNL     1      46.197   6.914  11.412  0.00  0.00    +0.000 C 
ATOM     23  O   UNL     1      45.491   7.828  11.828  0.00  0.00    +0.000 OA
ATOM     24  H   UNL     1      48.103   6.124  11.329  0.00  0.00    +0.000 HD
BRANCH  22  25
ATOM     25  C   UNL     1      45.615   5.722  10.783  0.00  0.00    +0.000 A 
ATOM     26  C   UNL     1      45.783   5.511   9.421  0.00  0.00    +0.000 A 
ATOM     27  S   UNL     1      45.080   4.061   8.862  0.00  0.00    +0.000 S 
ATOM     28  C   UNL     1      44.487   3.688  10.412  0.00  0.00    +0.000 A 
ATOM     29  N   UNL     1      43.750   2.564  10.627  0.00  0.00    +0.000 NA
ATOM     30  C   UNL     1      43.338   2.420  11.841  0.00  0.00    +0.000 A 
ATOM     31  N   UNL     1      43.601   3.294  12.864  0.00  0.00    +0.000 N 
ATOM     32  C   UNL     1      44.369   4.422  12.703  0.00  0.00    +0.000 A 
ATOM     33  O   UNL     1      44.630   5.156  13.651  0.00  0.00    +0.000 OA
ATOM     34  C   UNL     1      44.839   4.643  11.349  0.00  0.00    +0.000 A 
ATOM     35  H   UNL     1      43.260   3.114  13.796  0.00  0.00    +0.000 HD
ENDBRANCH  22  25
ENDBRANCH  20  21
ENDBRANCH   4  20
TORSDOF 8
ENDMDL
MODEL 5
REMARK VINA RESULT:    -7.453      2.555      3.341
REMARK INTER + INTRA:         -11.697
REMARK INTER:                 -10.338
REMARK INTRA:                  -1.359
REMARK UNBOUND:                -0.977
REMARK  Name = 
REMARK  8 active torsions:
REMARK  status: ('A' for Active; 'I' for Inactive)
REMARK    1  A    between atoms: N_1  and  C_2
REMARK    2  A    between atoms: C_2  and  C_3
REMARK    3  A    between atoms: C_2  and  C_24
REMARK    4  A    between atoms: C_3  and  C_4
REMARK    5  A    between atoms: C_7  and  C_8
REMARK    6  A    between atoms: C_8  and  N_9
REMARK    7  A    between atoms: C_10  and  C_12
REMARK    8  A    between atoms: C_24  and  C_26
REMARK                            x       y       z     vdW  Elec       q    Type
REMARK                         _______ _______ _______ _____ _____    ______ ____
ROOT
ATOM      1  C   UNL     1      45.437   6.009  12.656  0.00  0.00    +0.000 A 
ATOM      2  C   UNL     1      45.526   7.311  12.179  0.00  0.00    +0.000 A 
ATOM      3  C   UNL     1      46.767   7.949  12.184  0.00  0.00    +0.000 A 
ATOM      4  C   UNL     1      47.886   7.279  12.684  0.00  0.00    +0.000 A 
ATOM      5  C   UNL     1      47.707   5.963  13.097  0.00  0.00    +0.000 A 
ATOM      6  N   UNL     1      46.516   5.314  13.083  0.00  0.00    +0.000 NA
ENDROOT
BRANCH   1   7
ATOM      7  C   UNL     1      44.097   5.326  12.778  0.00  0.00    +0.000 C 
BRANCH   7   8
ATOM      8  C   UNL     1      43.390   5.078  11.433  0.00  0.00    +0.000 C 
BRANCH   8   9
ATOM      9  N   UNL     1      41.942   5.389  11.460  0.00  0.00    +0.000 NA
ATOM     10  H   UNL     1      41.778   6.360  11.213  0.00  0.00    +0.000 HD
ATOM     11  H   UNL     1      41.620   5.263  12.426  0.00  0.00    +0.000 HD
ENDBRANCH   8   9
BRANCH   8  12
ATOM     12  C   UNL     1      43.585   3.629  10.931  0.00  0.00    +0.000 C 
ATOM     13  O   UNL     1      42.987   2.679  11.445  0.00  0.00    +0.000 OA
BRANCH  12  14
ATOM     14  C   UNL     1      44.500   3.359   9.775  0.00  0.00    +0.000 A 
ATOM     15  C   UNL     1      44.879   2.074   9.383  0.00  0.00    +0.000 A 
ATOM     16  C   UNL     1      45.787   1.945   8.343  0.00  0.00    +0.000 A 
ATOM     17  N   UNL     1      46.316   2.987   7.673  0.00  0.00    +0.000 NA
ATOM     18  C   UNL     1      45.922   4.220   8.055  0.00  0.00    +0.000 A 
ATOM     19  C   UNL     1      45.031   4.454   9.087  0.00  0.00    +0.000 A 
ENDBRANCH  12  14
ENDBRANCH   8  12
ENDBRANCH   7   8
ENDBRANCH   1   7
BRANCH   4  20
ATOM     20  C   UNL     1      49.231   7.935  12.744  0.00  0.00    +0.000 C 
BRANCH  20  21
ATOM     21  N   UNL     1      50.086   7.294  13.710  0.00  0.00    +0.000 N 
ATOM     22  C   UNL     1      50.711   8.014  14.693  0.00  0.00    +0.000 C 
ATOM     23  O   UNL     1      50.547   9.225  14.819  0.00  0.00    +0.000 OA
ATOM     24  H   UNL     1      50.424   6.364  13.485  0.00  0.00    +0.000 HD
BRANCH  22  25
ATOM     25  C   UNL     1      51.541   7.251  15.633  0.00  0.00    +0.000 A 
ATOM     26  C   UNL     1      52.914   7.457  15.664  0.00  0.00    +0.000 A 
ATOM     27  S   UNL     1      53.719   6.521  16.840  0.00  0.00    +0.000 S 
ATOM     28  C   UNL     1      52.268   5.772  17.316  0.00  0.00    +0.000 A 
ATOM     29  N   UNL     1      52.259   4.818  18.286  0.00  0.00    +0.000 NA
ATOM     30  C   UNL     1      51.096   4.311  18.526  0.00  0.00    +0.000 A 
ATOM     31  N   UNL     1      49.938   4.677  17.889  0.00  0.00    +0.000 N 
ATOM     32  C   UNL     1      49.893   5.659  16.929  0.00  0.00    +0.000 A 
ATOM     33  O   UNL     1      48.832   5.999  16.416  0.00  0.00    +0.000 OA
ATOM     34  C   UNL     1      51.180   6.246  16.605  0.00  0.00    +0.000 A 
ATOM     35  H   UNL     1      49.058   4.251  18.135  0.00  0.00    +0.000 HD
ENDBRANCH  22  25
ENDBRANCH  20  21
ENDBRANCH   4  20
TORSDOF 8
ENDMDL
MODEL 6
REMARK VINA RESULT:    -7.390      4.344      6.244
REMARK INTER + INTRA:         -11.607
REMARK INTER:                 -11.021
REMARK INTRA:                  -0.586
REMARK UNBOUND:                -0.977
REMARK  Name = 
REMARK  8 active torsions:
REMARK  status: ('A' for Active; 'I' for Inactive)
REMARK    1  A    between atoms: N_1  and  C_2
REMARK    2  A    between atoms: C_2  and  C_3
REMARK    3  A    between atoms: C_2  and  C_24
REMARK    4  A    between atoms: C_3  and  C_4
REMARK    5  A    between atoms: C_7  and  C_8
REMARK    6  A    between atoms: C_8  and  N_9
REMARK    7  A    between atoms: C_10  and  C_12
REMARK    8  A    between atoms: C_24  and  C_26
REMARK                            x       y       z     vdW  Elec       q    Type
REMARK                         _______ _______ _______ _____ _____    ______ ____
ROOT
ATOM      1  C   UNL     1      46.195   1.853   8.017  0.00  0.00    +0.000 A 
ATOM      2  C   UNL     1      45.132   1.388   8.781  0.00  0.00    +0.000 A 
ATOM      3  C   UNL     1      44.349   2.308   9.479  0.00  0.00    +0.000 A 
ATOM      4  C   UNL     1      44.656   3.668   9.411  0.00  0.00    +0.000 A 
ATOM      5  C   UNL     1      45.710   4.043   8.585  0.00  0.00    +0.000 A 
ATOM      6  N   UNL     1      46.474   3.169   7.881  0.00  0.00    +0.000 NA
ENDROOT
BRANCH   1   7
ATOM      7  C   UNL     1      47.138   0.887   7.343  0.00  0.00    +0.000 C 
BRANCH   7   8
ATOM      8  C   UNL     1      47.915   1.486   6.157  0.00  0.00    +0.000 C 
BRANCH   8   9
ATOM      9  N   UNL     1      48.655   2.723   6.500  0.00  0.00    +0.000 NA
ATOM     10  H   UNL     1      49.140   3.089   5.686  0.00  0.00    +0.000 HD
ATOM     11  H   UNL     1      49.370   2.470   7.191  0.00  0.00    +0.000 HD
ENDBRANCH   8   9
BRANCH   8  12
ATOM     12  C   UNL     1      47.001   1.766   4.943  0.00  0.00    +0.000 C 
ATOM     13  O   UNL     1      46.606   2.905   4.678  0.00  0.00    +0.000 OA
BRANCH  12  14
ATOM     14  C   UNL     1      46.596   0.640   4.040  0.00  0.00    +0.000 A 
ATOM     15  C   UNL     1      46.982  -0.685   4.249  0.00  0.00    +0.000 A 
ATOM     16  C   UNL     1      46.609  -1.633   3.308  0.00  0.00    +0.000 A 
ATOM     17  N   UNL     1      45.881  -1.357   2.209  0.00  0.00    +0.000 NA
ATOM     18  C   UNL     1      45.503  -0.074   2.035  0.00  0.00    +0.000 A 
ATOM     19  C   UNL     1      45.834   0.947   2.909  0.00  0.00    +0.000 A 
ENDBRANCH  12  14
ENDBRANCH   8  12
ENDBRANCH   7   8
ENDBRANCH   1   7
BRANCH   4  20
ATOM     20  C   UNL     1      43.866   4.690  10.172  0.00  0.00    +0.000 C 
BRANCH  20  21
ATOM     21  N   UNL     1      44.678   5.827  10.522  0.00  0.00    +0.000 N 
ATOM     22  C   UNL     1      44.687   6.327  11.797  0.00  0.00    +0.000 C 
ATOM     23  O   UNL     1      44.037   5.812  12.704  0.00  0.00    +0.000 OA
ATOM     24  H   UNL     1      45.021   6.404   9.761  0.00  0.00    +0.000 HD
BRANCH  22  25
ATOM     25  C   UNL     1      45.568   7.474  12.042  0.00  0.00    +0.000 A 
ATOM     26  C   UNL     1      45.116   8.759  11.769  0.00  0.00    +0.000 A 
ATOM     27  S   UNL     1      46.249   9.977  12.148  0.00  0.00    +0.000 S 
ATOM     28  C   UNL     1      47.399   8.827  12.645  0.00  0.00    +0.000 A 
ATOM     29  N   UNL     1      48.633   9.212  13.071  0.00  0.00    +0.000 NA
ATOM     30  C   UNL     1      49.417   8.236  13.387  0.00  0.00    +0.000 A 
ATOM     31  N   UNL     1      49.077   6.910  13.326  0.00  0.00    +0.000 N 
ATOM     32  C   UNL     1      47.832   6.476  12.936  0.00  0.00    +0.000 A 
ATOM     33  O   UNL     1      47.543   5.283  12.942  0.00  0.00    +0.000 OA
ATOM     34  C   UNL     1      46.919   7.533  12.546  0.00  0.00    +0.000 A 
ATOM     35  H   UNL     1      49.733   6.196  13.603  0.00  0.00    +0.000 HD
ENDBRANCH  22  25
ENDBRANCH  20  21
ENDBRANCH   4  20
TORSDOF 8
ENDMDL
MODEL 7
REMARK VINA RESULT:    -7.232      3.047      9.167
REMARK INTER + INTRA:         -11.380
REMARK INTER:                  -9.694
REMARK INTRA:                  -1.686
REMARK UNBOUND:                -0.977
REMARK  Name = 
REMARK  8 active torsions:
REMARK  status: ('A' for Active; 'I' for Inactive)
REMARK    1  A    between atoms: N_1  and  C_2
REMARK    2  A    between atoms: C_2  and  C_3
REMARK    3  A    between atoms: C_2  and  C_24
REMARK    4  A    between atoms: C_3  and  C_4
REMARK    5  A    between atoms: C_7  and  C_8
REMARK    6  A    between atoms: C_8  and  N_9
REMARK    7  A    between atoms: C_10  and  C_12
REMARK    8  A    between atoms: C_24  and  C_26
REMARK                            x       y       z     vdW  Elec       q    Type
REMARK                         _______ _______ _______ _____ _____    ______ ____
ROOT
ATOM      1  C   UNL     1      49.987   8.363  15.395  0.00  0.00    +0.000 A 
ATOM      2  C   UNL     1      50.677   8.014  14.240  0.00  0.00    +0.000 A 
ATOM      3  C   UNL     1      49.980   7.937  13.034  0.00  0.00    +0.000 A 
ATOM      4  C   UNL     1      48.607   8.194  13.012  0.00  0.00    +0.000 A 
ATOM      5  C   UNL     1      48.013   8.580  14.208  0.00  0.00    +0.000 A 
ATOM      6  N   UNL     1      48.672   8.681  15.389  0.00  0.00    +0.000 NA
ENDROOT
BRANCH   1   7
ATOM      7  C   UNL     1      50.675   8.342  16.737  0.00  0.00    +0.000 C 
BRANCH   7   8
ATOM      8  C   UNL     1      50.119   7.291  17.715  0.00  0.00    +0.000 C 
BRANCH   8   9
ATOM      9  N   UNL     1      50.746   7.342  19.057  0.00  0.00    +0.000 NA
ATOM     10  H   UNL     1      50.214   7.943  19.679  0.00  0.00    +0.000 HD
ATOM     11  H   UNL     1      51.674   7.766  18.944  0.00  0.00    +0.000 HD
ENDBRANCH   8   9
BRANCH   8  12
ATOM     12  C   UNL     1      50.239   5.855  17.157  0.00  0.00    +0.000 C 
ATOM     13  O   UNL     1      51.308   5.415  16.724  0.00  0.00    +0.000 OA
BRANCH  12  14
ATOM     14  C   UNL     1      49.043   4.952  17.161  0.00  0.00    +0.000 A 
ATOM     15  C   UNL     1      48.841   3.953  18.114  0.00  0.00    +0.000 A 
ATOM     16  C   UNL     1      47.733   3.130  17.977  0.00  0.00    +0.000 A 
ATOM     17  N   UNL     1      46.827   3.245  16.987  0.00  0.00    +0.000 NA
ATOM     18  C   UNL     1      47.031   4.229  16.087  0.00  0.00    +0.000 A 
ATOM     19  C   UNL     1      48.110   5.095  16.129  0.00  0.00    +0.000 A 
ENDBRANCH  12  14
ENDBRANCH   8  12
ENDBRANCH   7   8
ENDBRANCH   1   7
BRANCH   4  20
ATOM     20  C   UNL     1      47.810   8.089  11.747  0.00  0.00    +0.000 C 
BRANCH  20  21
ATOM     21  N   UNL     1      47.068   6.855  11.695  0.00  0.00    +0.000 N 
ATOM     22  C   UNL     1      45.698   6.850  11.721  0.00  0.00    +0.000 C 
ATOM     23  O   UNL     1      45.043   7.888  11.753  0.00  0.00    +0.000 OA
ATOM     24  H   UNL     1      47.572   6.001  11.912  0.00  0.00    +0.000 HD
BRANCH  22  25
ATOM     25  C   UNL     1      45.050   5.535  11.642  0.00  0.00    +0.000 A 
ATOM     26  C   UNL     1      44.381   5.030  12.749  0.00  0.00    +0.000 A 
ATOM     27  S   UNL     1      43.652   3.514  12.474  0.00  0.00    +0.000 S 
ATOM     28  C   UNL     1      44.245   3.457  10.881  0.00  0.00    +0.000 A 
ATOM     29  N   UNL     1      44.002   2.383  10.081  0.00  0.00    +0.000 NA
ATOM     30  C   UNL     1      44.538   2.457   8.910  0.00  0.00    +0.000 A 
ATOM     31  N   UNL     1      45.289   3.512   8.459  0.00  0.00    +0.000 N 
ATOM     32  C   UNL     1      45.531   4.632   9.218  0.00  0.00    +0.000 A 
ATOM     33  O   UNL     1      46.164   5.581   8.766  0.00  0.00    +0.000 OA
ATOM     34  C   UNL     1      44.970   4.589  10.554  0.00  0.00    +0.000 A 
ATOM     35  H   UNL     1      45.667   3.513   7.525  0.00  0.00    +0.000 HD
ENDBRANCH  22  25
ENDBRANCH  20  21
ENDBRANCH   4  20
TORSDOF 8
ENDMDL
MODEL 8
REMARK VINA RESULT:    -7.065      4.948      7.419
REMARK INTER + INTRA:         -11.139
REMARK INTER:                  -9.939
REMARK INTRA:                  -1.200
REMARK UNBOUND:                -0.977
REMARK  Name = 
REMARK  8 active torsions:
REMARK  status: ('A' for Active; 'I' for Inactive)
REMARK    1  A    between atoms: N_1  and  C_2
REMARK    2  A    between atoms: C_2  and  C_3
REMARK    3  A    between atoms: C_2  and  C_24
REMARK    4  A    between atoms: C_3  and  C_4
REMARK    5  A    between atoms: C_7  and  C_8
REMARK    6  A    between atoms: C_8  and  N_9
REMARK    7  A    between atoms: C_10  and  C_12
REMARK    8  A    between atoms: C_24  and  C_26
REMARK                            x       y       z     vdW  Elec       q    Type
REMARK                         _______ _______ _______ _____ _____    ______ ____
ROOT
ATOM      1  C   UNL     1      46.085   5.875  12.488  0.00  0.00    +0.000 A 
ATOM      2  C   UNL     1      46.560   6.681  11.460  0.00  0.00    +0.000 A 
ATOM      3  C   UNL     1      47.820   7.267  11.589  0.00  0.00    +0.000 A 
ATOM      4  C   UNL     1      48.567   7.049  12.748  0.00  0.00    +0.000 A 
ATOM      5  C   UNL     1      48.029   6.192  13.701  0.00  0.00    +0.000 A 
ATOM      6  N   UNL     1      46.816   5.594  13.591  0.00  0.00    +0.000 NA
ENDROOT
BRANCH   1   7
ATOM      7  C   UNL     1      44.683   5.319  12.443  0.00  0.00    +0.000 C 
BRANCH   7   8
ATOM      8  C   UNL     1      44.080   5.241  11.029  0.00  0.00    +0.000 C 
BRANCH   8   9
ATOM      9  N   UNL     1      42.749   5.882  10.918  0.00  0.00    +0.000 NA
ATOM     10  H   UNL     1      42.022   5.182  10.801  0.00  0.00    +0.000 HD
ATOM     11  H   UNL     1      42.756   6.457  10.068  0.00  0.00    +0.000 HD
ENDBRANCH   8   9
BRANCH   8  12
ATOM     12  C   UNL     1      43.983   3.786  10.517  0.00  0.00    +0.000 C 
ATOM     13  O   UNL     1      43.165   2.987  10.985  0.00  0.00    +0.000 OA
BRANCH  12  14
ATOM     14  C   UNL     1      44.878   3.325   9.406  0.00  0.00    +0.000 A 
ATOM     15  C   UNL     1      45.191   1.984   9.182  0.00  0.00    +0.000 A 
ATOM     16  C   UNL     1      46.088   1.680   8.168  0.00  0.00    +0.000 A 
ATOM     17  N   UNL     1      46.665   2.601   7.373  0.00  0.00    +0.000 NA
ATOM     18  C   UNL     1      46.334   3.890   7.594  0.00  0.00    +0.000 A 
ATOM     19  C   UNL     1      45.460   4.297   8.587  0.00  0.00    +0.000 A 
ENDBRANCH  12  14
ENDBRANCH   8  12
ENDBRANCH   7   8
ENDBRANCH   1   7
BRANCH   4  20
ATOM     20  C   UNL     1      49.909   7.686  12.947  0.00  0.00    +0.000 C 
BRANCH  20  21
ATOM     21  N   UNL     1      50.460   8.149  11.699  0.00  0.00    +0.000 N 
ATOM     22  C   UNL     1      51.775   8.521  11.599  0.00  0.00    +0.000 C 
ATOM     23  O   UNL     1      52.549   8.443  12.550  0.00  0.00    +0.000 OA
ATOM     24  H   UNL     1      49.805   8.448  10.985  0.00  0.00    +0.000 HD
BRANCH  22  25
ATOM     25  C   UNL     1      52.231   8.956  10.274  0.00  0.00    +0.000 A 
ATOM     26  C   UNL     1      52.088  10.285   9.899  0.00  0.00    +0.000 A 
ATOM     27  S   UNL     1      52.705  10.628   8.347  0.00  0.00    +0.000 S 
ATOM     28  C   UNL     1      53.141   9.002   8.102  0.00  0.00    +0.000 A 
ATOM     29  N   UNL     1      53.707   8.598   6.932  0.00  0.00    +0.000 NA
ATOM     30  C   UNL     1      53.958   7.334   6.869  0.00  0.00    +0.000 A 
ATOM     31  N   UNL     1      53.703   6.436   7.872  0.00  0.00    +0.000 N 
ATOM     32  C   UNL     1      53.165   6.803   9.083  0.00  0.00    +0.000 A 
ATOM     33  O   UNL     1      52.998   5.983   9.980  0.00  0.00    +0.000 OA
ATOM     34  C   UNL     1      52.842   8.212   9.198  0.00  0.00    +0.000 A 
ATOM     35  H   UNL     1      53.937   5.461   7.764  0.00  0.00    +0.000 HD
ENDBRANCH  22  25
ENDBRANCH  20  21
ENDBRANCH   4  20
TORSDOF 8
ENDMDL
MODEL 9
REMARK VINA RESULT:    -6.598      4.023      8.626
REMARK INTER + INTRA:         -10.468
REMARK INTER:                  -8.574
REMARK INTRA:                  -1.894
REMARK UNBOUND:                -0.977
REMARK  Name = 
REMARK  8 active torsions:
REMARK  status: ('A' for Active; 'I' for Inactive)
REMARK    1  A    between atoms: N_1  and  C_2
REMARK    2  A    between atoms: C_2  and  C_3
REMARK    3  A    between atoms: C_2  and  C_24
REMARK    4  A    between atoms: C_3  and  C_4
REMARK    5  A    between atoms: C_7  and  C_8
REMARK    6  A    between atoms: C_8  and  N_9
REMARK    7  A    between atoms: C_10  and  C_12
REMARK    8  A    between atoms: C_24  and  C_26
REMARK                            x       y       z     vdW  Elec       q    Type
REMARK                         _______ _______ _______ _____ _____    ______ ____
ROOT
ATOM      1  C   UNL     1      50.388   7.316  17.906  0.00  0.00    +0.000 A 
ATOM      2  C   UNL     1      49.365   8.186  18.266  0.00  0.00    +0.000 A 
ATOM      3  C   UNL     1      48.587   8.765  17.263  0.00  0.00    +0.000 A 
ATOM      4  C   UNL     1      48.859   8.476  15.924  0.00  0.00    +0.000 A 
ATOM      5  C   UNL     1      49.872   7.559  15.664  0.00  0.00    +0.000 A 
ATOM      6  N   UNL     1      50.629   6.968  16.622  0.00  0.00    +0.000 NA
ENDROOT
BRANCH   1   7
ATOM      7  C   UNL     1      51.327   6.762  18.948  0.00  0.00    +0.000 C 
BRANCH   7   8
ATOM      8  C   UNL     1      51.344   5.225  19.030  0.00  0.00    +0.000 C 
BRANCH   8   9
ATOM      9  N   UNL     1      51.798   4.572  17.779  0.00  0.00    +0.000 NA
ATOM     10  H   UNL     1      51.051   4.558  17.090  0.00  0.00    +0.000 HD
ATOM     11  H   UNL     1      52.020   3.597  18.007  0.00  0.00    +0.000 HD
ENDBRANCH   8   9
BRANCH   8  12
ATOM     12  C   UNL     1      49.967   4.648  19.428  0.00  0.00    +0.000 C 
ATOM     13  O   UNL     1      49.562   4.682  20.594  0.00  0.00    +0.000 OA
BRANCH  12  14
ATOM     14  C   UNL     1      49.077   4.052  18.379  0.00  0.00    +0.000 A 
ATOM     15  C   UNL     1      49.395   2.888  17.678  0.00  0.00    +0.000 A 
ATOM     16  C   UNL     1      48.531   2.467  16.677  0.00  0.00    +0.000 A 
ATOM     17  N   UNL     1      47.391   3.105  16.351  0.00  0.00    +0.000 NA
ATOM     18  C   UNL     1      47.092   4.217  17.054  0.00  0.00    +0.000 A 
ATOM     19  C   UNL     1      47.894   4.725  18.061  0.00  0.00    +0.000 A 
ENDBRANCH  12  14
ENDBRANCH   8  12
ENDBRANCH   7   8
ENDBRANCH   1   7
BRANCH   4  20
ATOM     20  C   UNL     1      48.074   9.102  14.812  0.00  0.00    +0.000 C 
BRANCH  20  21
ATOM     21  N   UNL     1      47.119   8.177  14.258  0.00  0.00    +0.000 N 
ATOM     22  C   UNL     1      46.827   8.175  12.920  0.00  0.00    +0.000 C 
ATOM     23  O   UNL     1      47.386   8.930  12.129  0.00  0.00    +0.000 OA
ATOM     24  H   UNL     1      46.482   7.725  14.906  0.00  0.00    +0.000 HD
BRANCH  22  25
ATOM     25  C   UNL     1      45.854   7.174  12.466  0.00  0.00    +0.000 A 
ATOM     26  C   UNL     1      44.721   7.579  11.774  0.00  0.00    +0.000 A 
ATOM     27  S   UNL     1      43.719   6.288  11.286  0.00  0.00    +0.000 S 
ATOM     28  C   UNL     1      44.740   5.146  12.025  0.00  0.00    +0.000 A 
ATOM     29  N   UNL     1      44.436   3.819  12.004  0.00  0.00    +0.000 NA
ATOM     30  C   UNL     1      45.279   3.069  12.629  0.00  0.00    +0.000 A 
ATOM     31  N   UNL     1      46.405   3.522  13.268  0.00  0.00    +0.000 N 
ATOM     32  C   UNL     1      46.770   4.846  13.285  0.00  0.00    +0.000 A 
ATOM     33  O   UNL     1      47.812   5.212  13.821  0.00  0.00    +0.000 OA
ATOM     34  C   UNL     1      45.842   5.738  12.616  0.00  0.00    +0.000 A 
ATOM     35  H   UNL     1      47.032   2.878  13.726  0.00  0.00    +0.000 HD
ENDBRANCH  22  25
ENDBRANCH  20  21
ENDBRANCH   4  20
TORSDOF 8
ENDMDL
