MODEL 1
REMARK VINA RESULT:    -7.604      0.000      0.000
REMARK INTER + INTRA:         -12.223
REMARK INTER:                 -11.160
REMARK INTRA:                  -1.063
REMARK UNBOUND:                -1.063
REMARK  Name = 
REMARK  9 active torsions:
REMARK  status: ('A' for Active; 'I' for Inactive)
REMARK    1  A    between atoms: C_1  and  C_2
REMARK    2  A    between atoms: C_2  and  N_3
REMARK    3  A    between atoms: C_2  and  C_11
REMARK    4  A    between atoms: N_3  and  C_4
REMARK    5  A    between atoms: C_4  and  C_5
REMARK    6  A    between atoms: C_14  and  C_15
REMARK    7  A    between atoms: C_15  and  N_16
REMARK    8  A    between atoms: N_16  and  C_17
REMARK    9  A    between atoms: C_17  and  C_18
REMARK                            x       y       z     vdW  Elec       q    Type
REMARK                         _______ _______ _______ _____ _____    ______ ____
ROOT
ATOM      1  C   UNL     1      47.030   6.124  12.738  0.00  0.00    +0.000 A 
ATOM      2  C   UNL     1      46.098   5.237  13.299  0.00  0.00    +0.000 A 
ATOM      3  C   UNL     1      44.985   4.813  12.573  0.00  0.00    +0.000 A 
ATOM      4  C   UNL     1      44.775   5.257  11.260  0.00  0.00    +0.000 A 
ATOM      5  C   UNL     1      45.736   6.091  10.675  0.00  0.00    +0.000 A 
ATOM      6  C   UNL     1      46.839   6.533  11.410  0.00  0.00    +0.000 A 
ENDROOT
BRANCH   1   8
ATOM      7  C   UNL     1      48.611   8.067  13.165  0.00  0.00    +0.000 C 
ATOM      8  C   UNL     1      48.148   6.673  13.612  0.00  0.00    +0.000 C 
BRANCH   8   9
ATOM      9  N   UNL     1      47.760   6.744  15.035  0.00  0.00    +0.000 NA
ATOM     10  H   UNL     1      46.936   6.161  15.175  0.00  0.00    +0.000 HD
BRANCH   9  11
ATOM     11  C   UNL     1      48.824   6.292  15.935  0.00  0.00    +0.000 C 
BRANCH  11  12
ATOM     12  C   UNL     1      48.452   5.052  16.683  0.00  0.00    +0.000 A 
ATOM     13  C   UNL     1      47.183   4.507  16.618  0.00  0.00    +0.000 A 
ATOM     14  N   UNL     1      46.820   3.366  17.235  0.00  0.00    +0.000 NA
ATOM     15  C   UNL     1      47.787   2.759  17.940  0.00  0.00    +0.000 A 
ATOM     16  N   UNL     1      49.051   3.187  18.081  0.00  0.00    +0.000 NA
ATOM     17  C   UNL     1      49.354   4.336  17.444  0.00  0.00    +0.000 A 
ENDBRANCH  11  12
ENDBRANCH   9  11
ENDBRANCH   8   9
ENDBRANCH   1   8
BRANCH   4  18
ATOM     18  C   UNL     1      43.565   4.820  10.464  0.00  0.00    +0.000 C 
BRANCH  18  19
ATOM     19  N   UNL     1      43.956   4.198   9.201  0.00  0.00    +0.000 NA
ATOM     20  H   UNL     1      44.728   4.730   8.797  0.00  0.00    +0.000 HD
BRANCH  19  21
ATOM     21  C   UNL     1      44.407   2.818   9.393  0.00  0.00    +0.000 C 
BRANCH  21  22
ATOM     22  C   UNL     1      45.540   2.475   8.444  0.00  0.00    +0.000 A 
ATOM     23  C   UNL     1      46.120   3.472   7.661  0.00  0.00    +0.000 A 
ATOM     24  C   UNL     1      47.181   3.138   6.820  0.00  0.00    +0.000 A 
ATOM     25  C   UNL     1      47.627   1.825   6.783  0.00  0.00    +0.000 A 
ATOM     26  C   UNL     1      46.996   0.894   7.594  0.00  0.00    +0.000 A 
ATOM     27  N   UNL     1      45.969   1.186   8.421  0.00  0.00    +0.000 NA
ENDBRANCH  21  22
ENDBRANCH  19  21
ENDBRANCH  18  19
ENDBRANCH   4  18
TORSDOF 8
ENDMDL
MODEL 2
REMARK VINA RESULT:    -7.305      1.152      8.154
REMARK INTER + INTRA:         -11.785
REMARK INTER:                 -10.644
REMARK INTRA:                  -1.140
REMARK UNBOUND:                -1.063
REMARK  Name = 
REMARK  9 active torsions:
REMARK  status: ('A' for Active; 'I' for Inactive)
REMARK    1  A    between atoms: C_1  and  C_2
REMARK    2  A    between atoms: C_2  and  N_3
REMARK    3  A    between atoms: C_2  and  C_11
REMARK    4  A    between atoms: N_3  and  C_4
REMARK    5  A    between atoms: C_4  and  C_5
REMARK    6  A    between atoms: C_14  and  C_15
REMARK    7  A    between atoms: C_15  and  N_16
REMARK    8  A    between atoms: N_16  and  C_17
REMARK    9  A    between atoms: C_17  and  C_18
REMARK                            x       y       z     vdW  Elec       q    Type
REMARK                         _______ _______ _______ _____ _____    ______ ____
ROOT
ATOM      1  C   UNL     1      44.914   4.914  12.083  0.00  0.00    +0.000 A 
ATOM      2  C   UNL     1      45.451   6.124  11.616  0.00  0.00    +0.000 A 
ATOM      3  C   UNL     1      46.581   6.683  12.214  0.00  0.00    +0.000 A 
ATOM      4  C   UNL     1      47.213   6.045  13.290  0.00  0.00    +0.000 A 
ATOM      5  C   UNL     1      46.717   4.806  13.716  0.00  0.00    +0.000 A 
ATOM      6  C   UNL     1      45.573   4.257  13.131  0.00  0.00    +0.000 A 
ENDROOT
BRANCH   1   8
ATOM      7  C   UNL     1      42.455   5.420  11.686  0.00  0.00    +0.000 C 
ATOM      8  C   UNL     1      43.600   4.414  11.499  0.00  0.00    +0.000 C 
BRANCH   8   9
ATOM      9  N   UNL     1      43.713   4.098  10.061  0.00  0.00    +0.000 NA
ATOM     10  H   UNL     1      44.282   4.817   9.615  0.00  0.00    +0.000 HD
BRANCH   9  11
ATOM     11  C   UNL     1      44.320   2.788   9.816  0.00  0.00    +0.000 C 
BRANCH  11  12
ATOM     12  C   UNL     1      45.375   2.835   8.758  0.00  0.00    +0.000 A 
ATOM     13  C   UNL     1      46.052   1.702   8.344  0.00  0.00    +0.000 A 
ATOM     14  N   UNL     1      46.973   1.692   7.360  0.00  0.00    +0.000 NA
ATOM     15  C   UNL     1      47.209   2.877   6.779  0.00  0.00    +0.000 A 
ATOM     16  N   UNL     1      46.623   4.042   7.091  0.00  0.00    +0.000 NA
ATOM     17  C   UNL     1      45.713   3.992   8.086  0.00  0.00    +0.000 A 
ENDBRANCH  11  12
ENDBRANCH   9  11
ENDBRANCH   8   9
ENDBRANCH   1   8
BRANCH   4  18
ATOM     18  C   UNL     1      48.429   6.646  13.959  0.00  0.00    +0.000 C 
BRANCH  18  19
ATOM     19  N   UNL     1      48.135   7.050  15.332  0.00  0.00    +0.000 NA
ATOM     20  H   UNL     1      47.253   6.623  15.620  0.00  0.00    +0.000 HD
BRANCH  19  21
ATOM     21  C   UNL     1      49.177   6.609  16.262  0.00  0.00    +0.000 C 
BRANCH  21  22
ATOM     22  C   UNL     1      48.885   5.218  16.792  0.00  0.00    +0.000 A 
ATOM     23  C   UNL     1      47.569   4.824  17.029  0.00  0.00    +0.000 A 
ATOM     24  C   UNL     1      47.324   3.529  17.485  0.00  0.00    +0.000 A 
ATOM     25  C   UNL     1      48.395   2.672  17.694  0.00  0.00    +0.000 A 
ATOM     26  C   UNL     1      49.673   3.141  17.433  0.00  0.00    +0.000 A 
ATOM     27  N   UNL     1      49.942   4.388  16.987  0.00  0.00    +0.000 NA
ENDBRANCH  21  22
ENDBRANCH  19  21
ENDBRANCH  18  19
ENDBRANCH   4  18
TORSDOF 8
ENDMDL
MODEL 3
REMARK VINA RESULT:    -6.993      2.606      4.766
REMARK INTER + INTRA:         -11.326
REMARK INTER:                 -10.158
REMARK INTRA:                  -1.168
REMARK UNBOUND:                -1.063
REMARK  Name = 
REMARK  9 active torsions:
REMARK  status: ('A' for Active; 'I' for Inactive)
REMARK    1  A    between atoms: C_1  and  C_2
REMARK    2  A    between atoms: C_2  and  N_3
REMARK    3  A    between atoms: C_2  and  C_11
REMARK    4  A    between atoms: N_3  and  C_4
REMARK    5  A    between atoms: C_4  and  C_5
REMARK    6  A    between atoms: C_14  and  C_15
REMARK    7  A    between atoms: C_15  and  N_16
REMARK    8  A    between atoms: N_16  and  C_17
REMARK    9  A    between atoms: C_17  and  C_18
REMARK                            x       y       z     vdW  Elec       q    Type
REMARK                         _______ _______ _______ _____ _____    ______ ____
ROOT
ATOM      1  C   UNL     1      46.612   5.949  12.882  0.00  0.00    +0.000 A 
ATOM      2  C   UNL     1      46.224   6.222  11.561  0.00  0.00    +0.000 A 
ATOM      3  C   UNL     1      45.233   5.467  10.935  0.00  0.00    +0.000 A 
ATOM      4  C   UNL     1      44.593   4.421  11.614  0.00  0.00    +0.000 A 
ATOM      5  C   UNL     1      44.932   4.188  12.953  0.00  0.00    +0.000 A 
ATOM      6  C   UNL     1      45.940   4.931  13.573  0.00  0.00    +0.000 A 
ENDROOT
BRANCH   1   8
ATOM      7  C   UNL     1      48.928   6.905  12.462  0.00  0.00    +0.000 C 
ATOM      8  C   UNL     1      47.795   6.701  13.476  0.00  0.00    +0.000 C 
BRANCH   8   9
ATOM      9  N   UNL     1      47.404   8.020  14.013  0.00  0.00    +0.000 NA
ATOM     10  H   UNL     1      47.745   8.094  14.971  0.00  0.00    +0.000 HD
BRANCH   9  11
ATOM     11  C   UNL     1      47.942   9.133  13.227  0.00  0.00    +0.000 C 
BRANCH  11  12
ATOM     12  C   UNL     1      46.880   9.868  12.476  0.00  0.00    +0.000 A 
ATOM     13  C   UNL     1      47.177  10.890  11.592  0.00  0.00    +0.000 A 
ATOM     14  N   UNL     1      46.256  11.544  10.859  0.00  0.00    +0.000 NA
ATOM     15  C   UNL     1      44.990  11.140  11.030  0.00  0.00    +0.000 A 
ATOM     16  N   UNL     1      44.574  10.166  11.854  0.00  0.00    +0.000 NA
ATOM     17  C   UNL     1      45.540   9.551  12.565  0.00  0.00    +0.000 A 
ENDBRANCH  11  12
ENDBRANCH   9  11
ENDBRANCH   8   9
ENDBRANCH   1   8
BRANCH   4  18
ATOM     18  C   UNL     1      43.527   3.581  10.945  0.00  0.00    +0.000 C 
BRANCH  18  19
ATOM     19  N   UNL     1      43.881   3.277   9.561  0.00  0.00    +0.000 NA
ATOM     20  H   UNL     1      44.445   4.042   9.189  0.00  0.00    +0.000 HD
BRANCH  19  21
ATOM     21  C   UNL     1      44.667   2.044   9.461  0.00  0.00    +0.000 C 
BRANCH  21  22
ATOM     22  C   UNL     1      45.703   2.144   8.356  0.00  0.00    +0.000 A 
ATOM     23  C   UNL     1      45.874   3.343   7.667  0.00  0.00    +0.000 A 
ATOM     24  C   UNL     1      46.855   3.419   6.678  0.00  0.00    +0.000 A 
ATOM     25  C   UNL     1      47.628   2.299   6.406  0.00  0.00    +0.000 A 
ATOM     26  C   UNL     1      47.394   1.145   7.137  0.00  0.00    +0.000 A 
ATOM     27  N   UNL     1      46.455   1.041   8.104  0.00  0.00    +0.000 NA
ENDBRANCH  21  22
ENDBRANCH  19  21
ENDBRANCH  18  19
ENDBRANCH   4  18
TORSDOF 8
ENDMDL
MODEL 4
REMARK VINA RESULT:    -6.915      1.507      8.433
REMARK INTER + INTRA:         -11.212
REMARK INTER:                 -10.489
REMARK INTRA:                  -0.724
REMARK UNBOUND:                -1.063
REMARK  Name = 
REMARK  9 active torsions:
REMARK  status: ('A' for Active; 'I' for Inactive)
REMARK    1  A    between atoms: C_1  and  C_2
REMARK    2  A    between atoms: C_2  and  N_3
REMARK    3  A    between atoms: C_2  and  C_11
REMARK    4  A    between atoms: N_3  and  C_4
REMARK    5  A    between atoms: C_4  and  C_5
REMARK    6  A    between atoms: C_14  and  C_15
REMARK    7  A    between atoms: C_15  and  N_16
REMARK    8  A    between atoms: N_16  and  C_17
REMARK    9  A    between atoms: C_17  and  C_18
REMARK                            x       y       z     vdW  Elec       q    Type
REMARK                         _______ _______ _______ _____ _____    ______ ____
ROOT
ATOM      1  C   UNL     1      45.499   5.165  11.816  0.00  0.00    +0.000 A 
ATOM      2  C   UNL     1      45.576   4.598  13.098  0.00  0.00    +0.000 A 
ATOM      3  C   UNL     1      46.524   5.041  14.020  0.00  0.00    +0.000 A 
ATOM      4  C   UNL     1      47.417   6.070  13.692  0.00  0.00    +0.000 A 
ATOM      5  C   UNL     1      47.300   6.681  12.437  0.00  0.00    +0.000 A 
ATOM      6  C   UNL     1      46.365   6.223  11.505  0.00  0.00    +0.000 A 
ENDROOT
BRANCH   1   8
ATOM      7  C   UNL     1      43.086   4.941  11.051  0.00  0.00    +0.000 C 
ATOM      8  C   UNL     1      44.549   4.555  10.793  0.00  0.00    +0.000 C 
BRANCH   8   9
ATOM      9  N   UNL     1      44.898   4.939   9.411  0.00  0.00    +0.000 NA
ATOM     10  H   UNL     1      45.907   5.071   9.355  0.00  0.00    +0.000 HD
BRANCH   9  11
ATOM     11  C   UNL     1      44.492   3.935   8.425  0.00  0.00    +0.000 C 
BRANCH  11  12
ATOM     12  C   UNL     1      45.621   3.044   8.019  0.00  0.00    +0.000 A 
ATOM     13  C   UNL     1      45.674   1.710   8.382  0.00  0.00    +0.000 A 
ATOM     14  N   UNL     1      46.646   0.861   7.995  0.00  0.00    +0.000 NA
ATOM     15  C   UNL     1      47.595   1.390   7.210  0.00  0.00    +0.000 A 
ATOM     16  N   UNL     1      47.657   2.664   6.792  0.00  0.00    +0.000 NA
ATOM     17  C   UNL     1      46.660   3.467   7.214  0.00  0.00    +0.000 A 
ENDBRANCH  11  12
ENDBRANCH   9  11
ENDBRANCH   8   9
ENDBRANCH   1   8
BRANCH   4  18
ATOM     18  C   UNL     1      48.462   6.551  14.674  0.00  0.00    +0.000 C 
BRANCH  18  19
ATOM     19  N   UNL     1      48.434   5.766  15.906  0.00  0.00    +0.000 NA
ATOM     20  H   UNL     1      48.525   4.778  15.670  0.00  0.00    +0.000 HD
BRANCH  19  21
ATOM     21  C   UNL     1      49.539   6.122  16.801  0.00  0.00    +0.000 C 
BRANCH  21  22
ATOM     22  C   UNL     1      50.379   4.906  17.143  0.00  0.00    +0.000 A 
ATOM     23  C   UNL     1      51.702   5.065  17.551  0.00  0.00    +0.000 A 
ATOM     24  C   UNL     1      52.444   3.934  17.891  0.00  0.00    +0.000 A 
ATOM     25  C   UNL     1      51.847   2.685  17.810  0.00  0.00    +0.000 A 
ATOM     26  C   UNL     1      50.526   2.613  17.395  0.00  0.00    +0.000 A 
ATOM     27  N   UNL     1      49.780   3.690  17.063  0.00  0.00    +0.000 NA
ENDBRANCH  21  22
ENDBRANCH  19  21
ENDBRANCH  18  19
ENDBRANCH   4  18
TORSDOF 8
ENDMDL
MODEL 5
REMARK VINA RESULT:    -6.817      1.248      1.680
REMARK INTER + INTRA:         -11.068
REMARK INTER:                 -10.226
REMARK INTRA:                  -0.842
REMARK UNBOUND:                -1.063
REMARK  Name = 
REMARK  9 active torsions:
REMARK  status: ('A' for Active; 'I' for Inactive)
REMARK    1  A    between atoms: C_1  and  C_2
REMARK    2  A    between atoms: C_2  and  N_3
REMARK    3  A    between atoms: C_2  and  C_11
REMARK    4  A    between atoms: N_3  and  C_4
REMARK    5  A    between atoms: C_4  and  C_5
REMARK    6  A    between atoms: C_14  and  C_15
REMARK    7  A    between atoms: C_15  and  N_16
REMARK    8  A    between atoms: N_16  and  C_17
REMARK    9  A    between atoms: C_17  and  C_18
REMARK                            x       y       z     vdW  Elec       q    Type
REMARK                         _______ _______ _______ _____ _____    ______ ____
ROOT
ATOM      1  C   UNL     1      46.872   6.070  13.047  0.00  0.00    +0.000 A 
ATOM      2  C   UNL     1      46.740   6.540  11.731  0.00  0.00    +0.000 A 
ATOM      3  C   UNL     1      45.673   6.135  10.929  0.00  0.00    +0.000 A 
ATOM      4  C   UNL     1      44.701   5.254  11.422  0.00  0.00    +0.000 A 
ATOM      5  C   UNL     1      44.795   4.833  12.754  0.00  0.00    +0.000 A 
ATOM      6  C   UNL     1      45.875   5.223  13.551  0.00  0.00    +0.000 A 
ENDROOT
BRANCH   1   8
ATOM      7  C   UNL     1      48.668   7.814  13.484  0.00  0.00    +0.000 C 
ATOM      8  C   UNL     1      48.125   6.422  13.837  0.00  0.00    +0.000 C 
BRANCH   8   9
ATOM      9  N   UNL     1      47.899   6.365  15.295  0.00  0.00    +0.000 NA
ATOM     10  H   UNL     1      47.272   5.586  15.496  0.00  0.00    +0.000 HD
BRANCH   9  11
ATOM     11  C   UNL     1      49.139   6.187  16.053  0.00  0.00    +0.000 C 
BRANCH  11  12
ATOM     12  C   UNL     1      48.892   5.962  17.510  0.00  0.00    +0.000 A 
ATOM     13  C   UNL     1      48.188   6.865  18.285  0.00  0.00    +0.000 A 
ATOM     14  N   UNL     1      47.901   6.678  19.588  0.00  0.00    +0.000 NA
ATOM     15  C   UNL     1      48.344   5.529  20.116  0.00  0.00    +0.000 A 
ATOM     16  N   UNL     1      49.037   4.577  19.473  0.00  0.00    +0.000 NA
ATOM     17  C   UNL     1      49.299   4.822  18.173  0.00  0.00    +0.000 A 
ENDBRANCH  11  12
ENDBRANCH   9  11
ENDBRANCH   8   9
ENDBRANCH   1   8
BRANCH   4  18
ATOM     18  C   UNL     1      43.547   4.791  10.560  0.00  0.00    +0.000 C 
BRANCH  18  19
ATOM     19  N   UNL     1      44.016   4.263   9.282  0.00  0.00    +0.000 NA
ATOM     20  H   UNL     1      44.814   4.817   8.969  0.00  0.00    +0.000 HD
BRANCH  19  21
ATOM     21  C   UNL     1      44.451   2.868   9.399  0.00  0.00    +0.000 C 
BRANCH  21  22
ATOM     22  C   UNL     1      45.559   2.555   8.410  0.00  0.00    +0.000 A 
ATOM     23  C   UNL     1      46.056   3.559   7.580  0.00  0.00    +0.000 A 
ATOM     24  C   UNL     1      47.096   3.254   6.703  0.00  0.00    +0.000 A 
ATOM     25  C   UNL     1      47.603   1.963   6.678  0.00  0.00    +0.000 A 
ATOM     26  C   UNL     1      47.053   1.024   7.536  0.00  0.00    +0.000 A 
ATOM     27  N   UNL     1      46.048   1.289   8.400  0.00  0.00    +0.000 NA
ENDBRANCH  21  22
ENDBRANCH  19  21
ENDBRANCH  18  19
ENDBRANCH   4  18
TORSDOF 8
ENDMDL
MODEL 6
REMARK VINA RESULT:    -6.713      1.310      2.332
REMARK INTER + INTRA:         -10.916
REMARK INTER:                  -9.919
REMARK INTRA:                  -0.997
REMARK UNBOUND:                -1.063
REMARK  Name = 
REMARK  9 active torsions:
REMARK  status: ('A' for Active; 'I' for Inactive)
REMARK    1  A    between atoms: C_1  and  C_2
REMARK    2  A    between atoms: C_2  and  N_3
REMARK    3  A    between atoms: C_2  and  C_11
REMARK    4  A    between atoms: N_3  and  C_4
REMARK    5  A    between atoms: C_4  and  C_5
REMARK    6  A    between atoms: C_14  and  C_15
REMARK    7  A    between atoms: C_15  and  N_16
REMARK    8  A    between atoms: N_16  and  C_17
REMARK    9  A    between atoms: C_17  and  C_18
REMARK                            x       y       z     vdW  Elec       q    Type
REMARK                         _______ _______ _______ _____ _____    ______ ____
ROOT
ATOM      1  C   UNL     1      48.358   7.427  13.726  0.00  0.00    +0.000 A 
ATOM      2  C   UNL     1      48.111   6.221  13.052  0.00  0.00    +0.000 A 
ATOM      3  C   UNL     1      46.878   5.976  12.450  0.00  0.00    +0.000 A 
ATOM      4  C   UNL     1      45.855   6.934  12.495  0.00  0.00    +0.000 A 
ATOM      5  C   UNL     1      46.120   8.164  13.110  0.00  0.00    +0.000 A 
ATOM      6  C   UNL     1      47.348   8.400  13.732  0.00  0.00    +0.000 A 
ENDROOT
BRANCH   1   8
ATOM      7  C   UNL     1      49.717   8.913  15.276  0.00  0.00    +0.000 C 
ATOM      8  C   UNL     1      49.663   7.594  14.491  0.00  0.00    +0.000 C 
BRANCH   8   9
ATOM      9  N   UNL     1      49.905   6.481  15.431  0.00  0.00    +0.000 NA
ATOM     10  H   UNL     1      50.851   6.568  15.800  0.00  0.00    +0.000 HD
BRANCH   9  11
ATOM     11  C   UNL     1      48.956   6.465  16.546  0.00  0.00    +0.000 C 
BRANCH  11  12
ATOM     12  C   UNL     1      48.507   5.084  16.896  0.00  0.00    +0.000 A 
ATOM     13  C   UNL     1      49.310   4.204  17.599  0.00  0.00    +0.000 A 
ATOM     14  N   UNL     1      48.925   2.970  17.978  0.00  0.00    +0.000 NA
ATOM     15  C   UNL     1      47.678   2.623  17.629  0.00  0.00    +0.000 A 
ATOM     16  N   UNL     1      46.806   3.381  16.948  0.00  0.00    +0.000 NA
ATOM     17  C   UNL     1      47.248   4.604  16.592  0.00  0.00    +0.000 A 
ENDBRANCH  11  12
ENDBRANCH   9  11
ENDBRANCH   8   9
ENDBRANCH   1   8
BRANCH   4  18
ATOM     18  C   UNL     1      44.506   6.678  11.860  0.00  0.00    +0.000 C 
BRANCH  18  19
ATOM     19  N   UNL     1      44.648   6.151  10.505  0.00  0.00    +0.000 NA
ATOM     20  H   UNL     1      45.641   6.074  10.283  0.00  0.00    +0.000 HD
BRANCH  19  21
ATOM     21  C   UNL     1      44.049   4.820  10.375  0.00  0.00    +0.000 C 
BRANCH  21  22
ATOM     22  C   UNL     1      44.860   3.944   9.439  0.00  0.00    +0.000 A 
ATOM     23  C   UNL     1      44.806   2.557   9.561  0.00  0.00    +0.000 A 
ATOM     24  C   UNL     1      45.536   1.772   8.668  0.00  0.00    +0.000 A 
ATOM     25  C   UNL     1      46.297   2.394   7.688  0.00  0.00    +0.000 A 
ATOM     26  C   UNL     1      46.296   3.779   7.635  0.00  0.00    +0.000 A 
ATOM     27  N   UNL     1      45.597   4.566   8.483  0.00  0.00    +0.000 NA
ENDBRANCH  21  22
ENDBRANCH  19  21
ENDBRANCH  18  19
ENDBRANCH   4  18
TORSDOF 8
ENDMDL
MODEL 7
REMARK VINA RESULT:    -6.638      1.715      2.489
REMARK INTER + INTRA:         -10.805
REMARK INTER:                 -10.093
REMARK INTRA:                  -0.712
REMARK UNBOUND:                -1.063
REMARK  Name = 
REMARK  9 active torsions:
REMARK  status: ('A' for Active; 'I' for Inactive)
REMARK    1  A    between atoms: C_1  and  C_2
REMARK    2  A    between atoms: C_2  and  N_3
REMARK    3  A    between atoms: C_2  and  C_11
REMARK    4  A    between atoms: N_3  and  C_4
REMARK    5  A    between atoms: C_4  and  C_5
REMARK    6  A    between atoms: C_14  and  C_15
REMARK    7  A    between atoms: C_15  and  N_16
REMARK    8  A    between atoms: N_16  and  C_17
REMARK    9  A    between atoms: C_17  and  C_18
REMARK                            x       y       z     vdW  Elec       q    Type
REMARK                         _______ _______ _______ _____ _____    ______ ____
ROOT
ATOM      1  C   UNL     1      47.753   5.737  14.515  0.00  0.00    +0.000 A 
ATOM      2  C   UNL     1      47.578   6.548  13.383  0.00  0.00    +0.000 A 
ATOM      3  C   UNL     1      46.681   6.189  12.377  0.00  0.00    +0.000 A 
ATOM      4  C   UNL     1      45.925   5.012  12.477  0.00  0.00    +0.000 A 
ATOM      5  C   UNL     1      46.051   4.235  13.635  0.00  0.00    +0.000 A 
ATOM      6  C   UNL     1      46.965   4.583  14.632  0.00  0.00    +0.000 A 
ENDROOT
BRANCH   1   8
ATOM      7  C   UNL     1      48.706   7.523  16.051  0.00  0.00    +0.000 C 
ATOM      8  C   UNL     1      48.844   6.090  15.516  0.00  0.00    +0.000 C 
BRANCH   8   9
ATOM      9  N   UNL     1      48.868   5.163  16.665  0.00  0.00    +0.000 NA
ATOM     10  H   UNL     1      48.679   4.220  16.325  0.00  0.00    +0.000 HD
BRANCH   9  11
ATOM     11  C   UNL     1      50.152   5.167  17.370  0.00  0.00    +0.000 C 
BRANCH  11  12
ATOM     12  C   UNL     1      50.760   3.805  17.459  0.00  0.00    +0.000 A 
ATOM     13  C   UNL     1      50.091   2.671  17.037  0.00  0.00    +0.000 A 
ATOM     14  N   UNL     1      50.621   1.433  17.053  0.00  0.00    +0.000 NA
ATOM     15  C   UNL     1      51.877   1.349  17.514  0.00  0.00    +0.000 A 
ATOM     16  N   UNL     1      52.629   2.370  17.953  0.00  0.00    +0.000 NA
ATOM     17  C   UNL     1      52.044   3.585  17.917  0.00  0.00    +0.000 A 
ENDBRANCH  11  12
ENDBRANCH   9  11
ENDBRANCH   8   9
ENDBRANCH   1   8
BRANCH   4  18
ATOM     18  C   UNL     1      44.960   4.600  11.388  0.00  0.00    +0.000 C 
BRANCH  18  19
ATOM     19  N   UNL     1      45.045   3.167  11.116  0.00  0.00    +0.000 NA
ATOM     20  H   UNL     1      44.593   2.660  11.878  0.00  0.00    +0.000 HD
BRANCH  19  21
ATOM     21  C   UNL     1      44.366   2.810   9.868  0.00  0.00    +0.000 C 
BRANCH  21  22
ATOM     22  C   UNL     1      45.362   2.608   8.741  0.00  0.00    +0.000 A 
ATOM     23  C   UNL     1      45.711   3.679   7.920  0.00  0.00    +0.000 A 
ATOM     24  C   UNL     1      46.653   3.476   6.911  0.00  0.00    +0.000 A 
ATOM     25  C   UNL     1      47.212   2.215   6.752  0.00  0.00    +0.000 A 
ATOM     26  C   UNL     1      46.810   1.205   7.612  0.00  0.00    +0.000 A 
ATOM     27  N   UNL     1      45.903   1.371   8.600  0.00  0.00    +0.000 NA
ENDBRANCH  21  22
ENDBRANCH  19  21
ENDBRANCH  18  19
ENDBRANCH   4  18
TORSDOF 8
ENDMDL
MODEL 8
REMARK VINA RESULT:    -6.390      2.264      8.350
REMARK INTER + INTRA:         -10.442
REMARK INTER:                  -9.328
REMARK INTRA:                  -1.114
REMARK UNBOUND:                -1.063
REMARK  Name = 
REMARK  9 active torsions:
REMARK  status: ('A' for Active; 'I' for Inactive)
REMARK    1  A    between atoms: C_1  and  C_2
REMARK    2  A    between atoms: C_2  and  N_3
REMARK    3  A    between atoms: C_2  and  C_11
REMARK    4  A    between atoms: N_3  and  C_4
REMARK    5  A    between atoms: C_4  and  C_5
REMARK    6  A    between atoms: C_14  and  C_15
REMARK    7  A    between atoms: C_15  and  N_16
REMARK    8  A    between atoms: N_16  and  C_17
REMARK    9  A    between atoms: C_17  and  C_18
REMARK                            x       y       z     vdW  Elec       q    Type
REMARK                         _______ _______ _______ _____ _____    ______ ____
ROOT
ATOM      1  C   UNL     1      45.469   4.601  11.903  0.00  0.00    +0.000 A 
ATOM      2  C   UNL     1      45.529   5.679  11.006  0.00  0.00    +0.000 A 
ATOM      3  C   UNL     1      46.116   6.888  11.379  0.00  0.00    +0.000 A 
ATOM      4  C   UNL     1      46.668   7.053  12.657  0.00  0.00    +0.000 A 
ATOM      5  C   UNL     1      46.666   5.958  13.531  0.00  0.00    +0.000 A 
ATOM      6  C   UNL     1      46.060   4.754  13.165  0.00  0.00    +0.000 A 
ENDROOT
BRANCH   1   8
ATOM      7  C   UNL     1      43.538   3.049  12.471  0.00  0.00    +0.000 C 
ATOM      8  C   UNL     1      44.693   3.352  11.507  0.00  0.00    +0.000 C 
BRANCH   8   9
ATOM      9  N   UNL     1      44.146   3.446  10.138  0.00  0.00    +0.000 NA
ATOM     10  H   UNL     1      44.566   4.252   9.676  0.00  0.00    +0.000 HD
BRANCH   9  11
ATOM     11  C   UNL     1      44.409   2.247   9.340  0.00  0.00    +0.000 C 
BRANCH  11  12
ATOM     12  C   UNL     1      45.536   2.436   8.376  0.00  0.00    +0.000 A 
ATOM     13  C   UNL     1      45.820   3.666   7.809  0.00  0.00    +0.000 A 
ATOM     14  N   UNL     1      46.855   3.890   6.976  0.00  0.00    +0.000 NA
ATOM     15  C   UNL     1      47.626   2.826   6.715  0.00  0.00    +0.000 A 
ATOM     16  N   UNL     1      47.455   1.586   7.198  0.00  0.00    +0.000 NA
ATOM     17  C   UNL     1      46.401   1.420   8.023  0.00  0.00    +0.000 A 
ENDBRANCH  11  12
ENDBRANCH   9  11
ENDBRANCH   8   9
ENDBRANCH   1   8
BRANCH   4  18
ATOM     18  C   UNL     1      47.294   8.362  13.083  0.00  0.00    +0.000 C 
BRANCH  18  19
ATOM     19  N   UNL     1      47.131   8.587  14.518  0.00  0.00    +0.000 NA
ATOM     20  H   UNL     1      46.982   7.688  14.978  0.00  0.00    +0.000 HD
BRANCH  19  21
ATOM     21  C   UNL     1      48.321   9.206  15.108  0.00  0.00    +0.000 C 
BRANCH  21  22
ATOM     22  C   UNL     1      49.261   8.157  15.673  0.00  0.00    +0.000 A 
ATOM     23  C   UNL     1      48.780   7.197  16.563  0.00  0.00    +0.000 A 
ATOM     24  C   UNL     1      49.656   6.224  17.043  0.00  0.00    +0.000 A 
ATOM     25  C   UNL     1      50.979   6.240  16.626  0.00  0.00    +0.000 A 
ATOM     26  C   UNL     1      51.376   7.228  15.738  0.00  0.00    +0.000 A 
ATOM     27  N   UNL     1      50.552   8.182  15.252  0.00  0.00    +0.000 NA
ENDBRANCH  21  22
ENDBRANCH  19  21
ENDBRANCH  18  19
ENDBRANCH   4  18
TORSDOF 8
ENDMDL
MODEL 9
REMARK VINA RESULT:    -6.347      1.926      8.084
REMARK INTER + INTRA:         -10.378
REMARK INTER:                  -9.252
REMARK INTRA:                  -1.126
REMARK UNBOUND:                -1.063
REMARK  Name = 
REMARK  9 active torsions:
REMARK  status: ('A' for Active; 'I' for Inactive)
REMARK    1  A    between atoms: C_1  and  C_2
REMARK    2  A    between atoms: C_2  and  N_3
REMARK    3  A    between atoms: C_2  and  C_11
REMARK    4  A    between atoms: N_3  and  C_4
REMARK    5  A    between atoms: C_4  and  C_5
REMARK    6  A    between atoms: C_14  and  C_15
REMARK    7  A    between atoms: C_15  and  N_16
REMARK    8  A    between atoms: N_16  and  C_17
REMARK    9  A    between atoms: C_17  and  C_18
REMARK                            x       y       z     vdW  Elec       q    Type
REMARK                         _______ _______ _______ _____ _____    ______ ____
ROOT
ATOM      1  C   UNL     1      45.276   5.301  12.975  0.00  0.00    +0.000 A 
ATOM      2  C   UNL     1      44.998   6.663  12.782  0.00  0.00    +0.000 A 
ATOM      3  C   UNL     1      46.008   7.621  12.877  0.00  0.00    +0.000 A 
ATOM      4  C   UNL     1      47.328   7.244  13.160  0.00  0.00    +0.000 A 
ATOM      5  C   UNL     1      47.620   5.880  13.290  0.00  0.00    +0.000 A 
ATOM      6  C   UNL     1      46.604   4.923  13.215  0.00  0.00    +0.000 A 
ENDROOT
BRANCH   1   8
ATOM      7  C   UNL     1      42.837   4.884  12.396  0.00  0.00    +0.000 C 
ATOM      8  C   UNL     1      44.122   4.308  13.006  0.00  0.00    +0.000 C 
BRANCH   8   9
ATOM      9  N   UNL     1      44.450   3.051  12.303  0.00  0.00    +0.000 NA
ATOM     10  H   UNL     1      44.199   2.268  12.905  0.00  0.00    +0.000 HD
BRANCH   9  11
ATOM     11  C   UNL     1      43.746   2.917  11.026  0.00  0.00    +0.000 C 
BRANCH  11  12
ATOM     12  C   UNL     1      44.644   3.136   9.851  0.00  0.00    +0.000 A 
ATOM     13  C   UNL     1      45.201   2.085   9.145  0.00  0.00    +0.000 A 
ATOM     14  N   UNL     1      45.974   2.237   8.052  0.00  0.00    +0.000 NA
ATOM     15  C   UNL     1      46.183   3.503   7.666  0.00  0.00    +0.000 A 
ATOM     16  N   UNL     1      45.703   4.604   8.265  0.00  0.00    +0.000 NA
ATOM     17  C   UNL     1      44.940   4.389   9.356  0.00  0.00    +0.000 A 
ENDBRANCH  11  12
ENDBRANCH   9  11
ENDBRANCH   8   9
ENDBRANCH   1   8
BRANCH   4  18
ATOM     18  C   UNL     1      48.432   8.270  13.283  0.00  0.00    +0.000 C 
BRANCH  18  19
ATOM     19  N   UNL     1      48.583   8.727  14.663  0.00  0.00    +0.000 NA
ATOM     20  H   UNL     1      47.936   8.205  15.255  0.00  0.00    +0.000 HD
BRANCH  19  21
ATOM     21  C   UNL     1      49.941   8.499  15.164  0.00  0.00    +0.000 C 
BRANCH  21  22
ATOM     22  C   UNL     1      50.008   7.241  16.010  0.00  0.00    +0.000 A 
ATOM     23  C   UNL     1      51.240   6.653  16.288  0.00  0.00    +0.000 A 
ATOM     24  C   UNL     1      51.278   5.515  17.095  0.00  0.00    +0.000 A 
ATOM     25  C   UNL     1      50.090   5.000  17.593  0.00  0.00    +0.000 A 
ATOM     26  C   UNL     1      48.907   5.645  17.269  0.00  0.00    +0.000 A 
ATOM     27  N   UNL     1      48.837   6.750  16.493  0.00  0.00    +0.000 NA
ENDBRANCH  21  22
ENDBRANCH  19  21
ENDBRANCH  18  19
ENDBRANCH   4  18
TORSDOF 8
ENDMDL
