MODEL 1
REMARK VINA RESULT:    -8.313      0.000      0.000
REMARK INTER + INTRA:         -12.865
REMARK INTER:                 -11.715
REMARK INTRA:                  -1.150
REMARK UNBOUND:                -1.150
REMARK  Name = 
REMARK  8 active torsions:
REMARK  status: ('A' for Active; 'I' for Inactive)
REMARK    1  A    between atoms: C_1  and  C_2
REMARK    2  A    between atoms: C_8  and  C_9
REMARK    3  A    between atoms: N_11  and  C_12
REMARK    4  A    between atoms: C_12  and  C_13
REMARK    5  A    between atoms: C_16  and  O_17
REMARK    6  A    between atoms: O_17  and  C_18
REMARK    7  A    between atoms: C_18  and  C_19
REMARK    8  A    between atoms: C_19  and  C_20
REMARK                            x       y       z     vdW  Elec       q    Type
REMARK                         _______ _______ _______ _____ _____    ______ ____
ROOT
ATOM      1  C   UNL     1      46.593   5.805  12.721  0.00  0.00    +0.000 A 
ATOM      2  C   UNL     1      46.107   6.206  11.468  0.00  0.00    +0.000 A 
ATOM      3  C   UNL     1      45.256   5.376  10.731  0.00  0.00    +0.000 A 
ATOM      4  C   UNL     1      44.870   4.134  11.236  0.00  0.00    +0.000 A 
ATOM      5  C   UNL     1      45.318   3.748  12.500  0.00  0.00    +0.000 A 
ATOM      6  C   UNL     1      46.177   4.572  13.237  0.00  0.00    +0.000 A 
ENDROOT
BRANCH   1   7
ATOM      7  C   UNL     1      47.566   6.672  13.471  0.00  0.00    +0.000 C 
BRANCH   7  10
ATOM      8  C   UNL     1      48.915   6.460  15.485  0.00  0.00    +0.000 C 
ATOM      9  O   UNL     1      49.894   6.791  14.813  0.00  0.00    +0.000 OA
ATOM     10  N   UNL     1      47.673   6.338  14.875  0.00  0.00    +0.000 N 
ATOM     11  H   UNL     1      46.825   6.309  15.425  0.00  0.00    +0.000 HD
BRANCH   8  19
ATOM     12  C   UNL     1      48.177   3.043  15.875  0.00  0.00    +0.000 C 
ATOM     13  C   UNL     1      48.272   3.701  17.197  0.00  0.00    +0.000 A 
ATOM     14  C   UNL     1      48.081   3.124  18.462  0.00  0.00    +0.000 A 
ATOM     15  N   UNL     1      48.266   4.090  19.460  0.00  0.00    +0.000 N 
ATOM     16  C   UNL     1      48.579   5.257  18.844  0.00  0.00    +0.000 A 
ATOM     17  N   UNL     1      48.873   6.538  19.193  0.00  0.00    +0.000 NA
ATOM     18  C   UNL     1      49.039   7.137  17.957  0.00  0.00    +0.000 C 
ATOM     19  C   UNL     1      48.873   6.206  16.891  0.00  0.00    +0.000 C 
ATOM     20  C   UNL     1      48.564   5.000  17.534  0.00  0.00    +0.000 A 
ATOM     21  H   UNL     1      48.182   3.955  20.457  0.00  0.00    +0.000 HD
ENDBRANCH   8  19
ENDBRANCH   7  10
ENDBRANCH   1   7
BRANCH   4  22
ATOM     22  O   UNL     1      44.037   3.248  10.604  0.00  0.00    +0.000 OA
BRANCH  22  23
ATOM     23  C   UNL     1      44.301   3.018   9.216  0.00  0.00    +0.000 C 
BRANCH  23  24
ATOM     24  C   UNL     1      45.410   1.972   9.096  0.00  0.00    +0.000 C 
BRANCH  24  25
ATOM     25  C   UNL     1      46.183   2.094   7.809  0.00  0.00    +0.000 A 
ATOM     26  C   UNL     1      46.214   3.301   7.097  0.00  0.00    +0.000 A 
ATOM     27  C   UNL     1      46.943   3.403   5.907  0.00  0.00    +0.000 A 
ATOM     28  C   UNL     1      47.642   2.300   5.414  0.00  0.00    +0.000 A 
ATOM     29  C   UNL     1      47.604   1.091   6.105  0.00  0.00    +0.000 A 
ATOM     30  C   UNL     1      46.876   0.996   7.288  0.00  0.00    +0.000 A 
ATOM     31  F   UNL     1      46.842  -0.179   7.931  0.00  0.00    +0.000 F 
ENDBRANCH  24  25
ENDBRANCH  23  24
ENDBRANCH  22  23
ENDBRANCH   4  22
TORSDOF 7
ENDMDL
MODEL 2
REMARK VINA RESULT:    -8.017      1.228      1.558
REMARK INTER + INTRA:         -12.448
REMARK INTER:                 -11.287
REMARK INTRA:                  -1.161
REMARK UNBOUND:                -1.150
REMARK  Name = 
REMARK  8 active torsions:
REMARK  status: ('A' for Active; 'I' for Inactive)
REMARK    1  A    between atoms: C_1  and  C_2
REMARK    2  A    between atoms: C_8  and  C_9
REMARK    3  A    between atoms: N_11  and  C_12
REMARK    4  A    between atoms: C_12  and  C_13
REMARK    5  A    between atoms: C_16  and  O_17
REMARK    6  A    between atoms: O_17  and  C_18
REMARK    7  A    between atoms: C_18  and  C_19
REMARK    8  A    between atoms: C_19  and  C_20
REMARK                            x       y       z     vdW  Elec       q    Type
REMARK                         _______ _______ _______ _____ _____    ______ ____
ROOT
ATOM      1  C   UNL     1      47.071   6.361  13.213  0.00  0.00    +0.000 A 
ATOM      2  C   UNL     1      46.817   6.830  11.917  0.00  0.00    +0.000 A 
ATOM      3  C   UNL     1      45.958   6.135  11.057  0.00  0.00    +0.000 A 
ATOM      4  C   UNL     1      45.334   4.963  11.482  0.00  0.00    +0.000 A 
ATOM      5  C   UNL     1      45.550   4.512  12.785  0.00  0.00    +0.000 A 
ATOM      6  C   UNL     1      46.416   5.200  13.644  0.00  0.00    +0.000 A 
ENDROOT
BRANCH   1   7
ATOM      7  C   UNL     1      48.052   7.074  14.101  0.00  0.00    +0.000 C 
BRANCH   7  10
ATOM      8  C   UNL     1      49.358   6.377  16.032  0.00  0.00    +0.000 C 
ATOM      9  O   UNL     1      50.374   6.637  15.385  0.00  0.00    +0.000 OA
ATOM     10  N   UNL     1      48.109   6.538  15.444  0.00  0.00    +0.000 N 
ATOM     11  H   UNL     1      47.271   6.569  16.007  0.00  0.00    +0.000 HD
BRANCH   8  19
ATOM     12  C   UNL     1      48.185   3.062  15.973  0.00  0.00    +0.000 C 
ATOM     13  C   UNL     1      48.362   3.517  17.369  0.00  0.00    +0.000 A 
ATOM     14  C   UNL     1      48.096   2.804  18.548  0.00  0.00    +0.000 A 
ATOM     15  N   UNL     1      48.403   3.595  19.664  0.00  0.00    +0.000 N 
ATOM     16  C   UNL     1      48.865   4.785  19.205  0.00  0.00    +0.000 A 
ATOM     17  N   UNL     1      49.321   5.959  19.717  0.00  0.00    +0.000 NA
ATOM     18  C   UNL     1      49.565   6.692  18.571  0.00  0.00    +0.000 C 
ATOM     19  C   UNL     1      49.281   5.943  17.392  0.00  0.00    +0.000 C 
ATOM     20  C   UNL     1      48.819   4.711  17.872  0.00  0.00    +0.000 A 
ATOM     21  H   UNL     1      48.301   3.339  20.635  0.00  0.00    +0.000 HD
ENDBRANCH   8  19
ENDBRANCH   7  10
ENDBRANCH   1   7
BRANCH   4  22
ATOM     22  O   UNL     1      44.472   4.210  10.729  0.00  0.00    +0.000 OA
BRANCH  22  23
ATOM     23  C   UNL     1      44.740   2.804  10.684  0.00  0.00    +0.000 C 
BRANCH  23  24
ATOM     24  C   UNL     1      44.391   2.284   9.289  0.00  0.00    +0.000 C 
BRANCH  24  25
ATOM     25  C   UNL     1      45.565   2.325   8.347  0.00  0.00    +0.000 A 
ATOM     26  C   UNL     1      46.312   1.172   8.072  0.00  0.00    +0.000 A 
ATOM     27  C   UNL     1      47.395   1.223   7.188  0.00  0.00    +0.000 A 
ATOM     28  C   UNL     1      47.748   2.427   6.576  0.00  0.00    +0.000 A 
ATOM     29  C   UNL     1      47.023   3.583   6.855  0.00  0.00    +0.000 A 
ATOM     30  C   UNL     1      45.946   3.525   7.737  0.00  0.00    +0.000 A 
ATOM     31  F   UNL     1      45.269   4.652   8.002  0.00  0.00    +0.000 F 
ENDBRANCH  24  25
ENDBRANCH  23  24
ENDBRANCH  22  23
ENDBRANCH   4  22
TORSDOF 7
ENDMDL
MODEL 3
REMARK VINA RESULT:    -7.602      1.739      2.207
REMARK INTER + INTRA:         -11.863
REMARK INTER:                 -10.608
REMARK INTRA:                  -1.254
REMARK UNBOUND:                -1.150
REMARK  Name = 
REMARK  8 active torsions:
REMARK  status: ('A' for Active; 'I' for Inactive)
REMARK    1  A    between atoms: C_1  and  C_2
REMARK    2  A    between atoms: C_8  and  C_9
REMARK    3  A    between atoms: N_11  and  C_12
REMARK    4  A    between atoms: C_12  and  C_13
REMARK    5  A    between atoms: C_16  and  O_17
REMARK    6  A    between atoms: O_17  and  C_18
REMARK    7  A    between atoms: C_18  and  C_19
REMARK    8  A    between atoms: C_19  and  C_20
REMARK                            x       y       z     vdW  Elec       q    Type
REMARK                         _______ _______ _______ _____ _____    ______ ____
ROOT
ATOM      1  C   UNL     1      47.550   7.557  13.438  0.00  0.00    +0.000 A 
ATOM      2  C   UNL     1      46.421   8.331  13.136  0.00  0.00    +0.000 A 
ATOM      3  C   UNL     1      45.379   7.808  12.362  0.00  0.00    +0.000 A 
ATOM      4  C   UNL     1      45.446   6.500  11.882  0.00  0.00    +0.000 A 
ATOM      5  C   UNL     1      46.548   5.711  12.213  0.00  0.00    +0.000 A 
ATOM      6  C   UNL     1      47.597   6.234  12.980  0.00  0.00    +0.000 A 
ENDROOT
BRANCH   1   7
ATOM      7  C   UNL     1      48.697   8.153  14.207  0.00  0.00    +0.000 C 
BRANCH   7  10
ATOM      8  C   UNL     1      49.251   7.116  16.338  0.00  0.00    +0.000 C 
ATOM      9  O   UNL     1      48.489   7.920  16.878  0.00  0.00    +0.000 OA
ATOM     10  N   UNL     1      49.451   7.177  14.964  0.00  0.00    +0.000 N 
ATOM     11  H   UNL     1      49.866   6.401  14.465  0.00  0.00    +0.000 HD
BRANCH   8  19
ATOM     12  C   UNL     1      47.168   4.285  16.205  0.00  0.00    +0.000 C 
ATOM     13  C   UNL     1      48.423   3.965  16.921  0.00  0.00    +0.000 A 
ATOM     14  C   UNL     1      48.790   2.747  17.513  0.00  0.00    +0.000 A 
ATOM     15  N   UNL     1      50.063   2.859  18.087  0.00  0.00    +0.000 N 
ATOM     16  C   UNL     1      50.503   4.121  17.856  0.00  0.00    +0.000 A 
ATOM     17  N   UNL     1      51.605   4.873  18.122  0.00  0.00    +0.000 NA
ATOM     18  C   UNL     1      51.255   6.092  17.570  0.00  0.00    +0.000 C 
ATOM     19  C   UNL     1      49.969   6.047  16.959  0.00  0.00    +0.000 C 
ATOM     20  C   UNL     1      49.526   4.738  17.188  0.00  0.00    +0.000 A 
ATOM     21  H   UNL     1      50.569   2.142  18.585  0.00  0.00    +0.000 HD
ENDBRANCH   8  19
ENDBRANCH   7  10
ENDBRANCH   1   7
BRANCH   4  22
ATOM     22  O   UNL     1      44.483   5.887  11.125  0.00  0.00    +0.000 OA
BRANCH  22  23
ATOM     23  C   UNL     1      44.721   4.513  10.798  0.00  0.00    +0.000 C 
BRANCH  23  24
ATOM     24  C   UNL     1      44.310   4.278   9.344  0.00  0.00    +0.000 C 
BRANCH  24  25
ATOM     25  C   UNL     1      45.306   3.433   8.593  0.00  0.00    +0.000 A 
ATOM     26  C   UNL     1      46.241   4.015   7.727  0.00  0.00    +0.000 A 
ATOM     27  C   UNL     1      47.165   3.218   7.042  0.00  0.00    +0.000 A 
ATOM     28  C   UNL     1      47.160   1.832   7.211  0.00  0.00    +0.000 A 
ATOM     29  C   UNL     1      46.224   1.242   8.057  0.00  0.00    +0.000 A 
ATOM     30  C   UNL     1      45.306   2.041   8.734  0.00  0.00    +0.000 A 
ATOM     31  F   UNL     1      44.406   1.451   9.534  0.00  0.00    +0.000 F 
ENDBRANCH  24  25
ENDBRANCH  23  24
ENDBRANCH  22  23
ENDBRANCH   4  22
TORSDOF 7
ENDMDL
MODEL 4
REMARK VINA RESULT:    -7.474      1.514      2.439
REMARK INTER + INTRA:         -11.683
REMARK INTER:                 -10.799
REMARK INTRA:                  -0.885
REMARK UNBOUND:                -1.150
REMARK  Name = 
REMARK  8 active torsions:
REMARK  status: ('A' for Active; 'I' for Inactive)
REMARK    1  A    between atoms: C_1  and  C_2
REMARK    2  A    between atoms: C_8  and  C_9
REMARK    3  A    between atoms: N_11  and  C_12
REMARK    4  A    between atoms: C_12  and  C_13
REMARK    5  A    between atoms: C_16  and  O_17
REMARK    6  A    between atoms: O_17  and  C_18
REMARK    7  A    between atoms: C_18  and  C_19
REMARK    8  A    between atoms: C_19  and  C_20
REMARK                            x       y       z     vdW  Elec       q    Type
REMARK                         _______ _______ _______ _____ _____    ______ ____
ROOT
ATOM      1  C   UNL     1      45.968   6.560  12.444  0.00  0.00    +0.000 A 
ATOM      2  C   UNL     1      45.852   6.500  11.048  0.00  0.00    +0.000 A 
ATOM      3  C   UNL     1      45.234   5.410  10.426  0.00  0.00    +0.000 A 
ATOM      4  C   UNL     1      44.715   4.365  11.188  0.00  0.00    +0.000 A 
ATOM      5  C   UNL     1      44.790   4.438  12.580  0.00  0.00    +0.000 A 
ATOM      6  C   UNL     1      45.417   5.523  13.206  0.00  0.00    +0.000 A 
ENDROOT
BRANCH   1   7
ATOM      7  C   UNL     1      46.700   7.699  13.097  0.00  0.00    +0.000 C 
BRANCH   7  10
ATOM      8  C   UNL     1      48.594   6.744  14.290  0.00  0.00    +0.000 C 
ATOM      9  O   UNL     1      49.103   6.496  13.195  0.00  0.00    +0.000 OA
ATOM     10  N   UNL     1      47.338   7.335  14.344  0.00  0.00    +0.000 N 
ATOM     11  H   UNL     1      47.004   7.766  15.196  0.00  0.00    +0.000 HD
BRANCH   8  19
ATOM     12  C   UNL     1      51.780   8.233  14.252  0.00  0.00    +0.000 C 
ATOM     13  C   UNL     1      51.540   7.571  15.553  0.00  0.00    +0.000 A 
ATOM     14  C   UNL     1      52.413   7.480  16.648  0.00  0.00    +0.000 A 
ATOM     15  N   UNL     1      51.800   6.772  17.690  0.00  0.00    +0.000 N 
ATOM     16  C   UNL     1      50.558   6.426  17.271  0.00  0.00    +0.000 A 
ATOM     17  N   UNL     1      49.476   5.759  17.756  0.00  0.00    +0.000 NA
ATOM     18  C   UNL     1      48.607   5.811  16.681  0.00  0.00    +0.000 C 
ATOM     19  C   UNL     1      49.165   6.528  15.583  0.00  0.00    +0.000 C 
ATOM     20  C   UNL     1      50.442   6.895  16.026  0.00  0.00    +0.000 A 
ATOM     21  H   UNL     1      52.201   6.550  18.590  0.00  0.00    +0.000 HD
ENDBRANCH   8  19
ENDBRANCH   7  10
ENDBRANCH   1   7
BRANCH   4  22
ATOM     22  O   UNL     1      44.084   3.257  10.685  0.00  0.00    +0.000 OA
BRANCH  22  23
ATOM     23  C   UNL     1      44.291   2.994   9.293  0.00  0.00    +0.000 C 
BRANCH  23  24
ATOM     24  C   UNL     1      45.445   2.000   9.150  0.00  0.00    +0.000 C 
BRANCH  24  25
ATOM     25  C   UNL     1      46.177   2.150   7.843  0.00  0.00    +0.000 A 
ATOM     26  C   UNL     1      46.164   3.363   7.142  0.00  0.00    +0.000 A 
ATOM     27  C   UNL     1      46.856   3.490   5.933  0.00  0.00    +0.000 A 
ATOM     28  C   UNL     1      47.562   2.405   5.408  0.00  0.00    +0.000 A 
ATOM     29  C   UNL     1      47.568   1.190   6.089  0.00  0.00    +0.000 A 
ATOM     30  C   UNL     1      46.876   1.070   7.291  0.00  0.00    +0.000 A 
ATOM     31  F   UNL     1      46.884  -0.112   7.924  0.00  0.00    +0.000 F 
ENDBRANCH  24  25
ENDBRANCH  23  24
ENDBRANCH  22  23
ENDBRANCH   4  22
TORSDOF 7
ENDMDL
MODEL 5
REMARK VINA RESULT:    -6.833      3.687      8.671
REMARK INTER + INTRA:         -10.779
REMARK INTER:                  -9.233
REMARK INTRA:                  -1.547
REMARK UNBOUND:                -1.150
REMARK  Name = 
REMARK  8 active torsions:
REMARK  status: ('A' for Active; 'I' for Inactive)
REMARK    1  A    between atoms: C_1  and  C_2
REMARK    2  A    between atoms: C_8  and  C_9
REMARK    3  A    between atoms: N_11  and  C_12
REMARK    4  A    between atoms: C_12  and  C_13
REMARK    5  A    between atoms: C_16  and  O_17
REMARK    6  A    between atoms: O_17  and  C_18
REMARK    7  A    between atoms: C_18  and  C_19
REMARK    8  A    between atoms: C_19  and  C_20
REMARK                            x       y       z     vdW  Elec       q    Type
REMARK                         _______ _______ _______ _____ _____    ______ ____
ROOT
ATOM      1  C   UNL     1      48.099   7.833  13.511  0.00  0.00    +0.000 A 
ATOM      2  C   UNL     1      47.702   8.716  14.525  0.00  0.00    +0.000 A 
ATOM      3  C   UNL     1      48.492   8.900  15.665  0.00  0.00    +0.000 A 
ATOM      4  C   UNL     1      49.695   8.210  15.808  0.00  0.00    +0.000 A 
ATOM      5  C   UNL     1      50.116   7.361  14.783  0.00  0.00    +0.000 A 
ATOM      6  C   UNL     1      49.324   7.167  13.646  0.00  0.00    +0.000 A 
ENDROOT
BRANCH   1   7
ATOM      7  C   UNL     1      47.207   7.586  12.326  0.00  0.00    +0.000 C 
BRANCH   7  10
ATOM      8  C   UNL     1      45.224   6.236  11.919  0.00  0.00    +0.000 C 
ATOM      9  O   UNL     1      44.649   7.265  11.560  0.00  0.00    +0.000 OA
ATOM     10  N   UNL     1      46.538   6.303  12.365  0.00  0.00    +0.000 N 
ATOM     11  H   UNL     1      47.107   5.470  12.433  0.00  0.00    +0.000 HD
BRANCH   8  19
ATOM     12  C   UNL     1      45.871   4.930   8.718  0.00  0.00    +0.000 C 
ATOM     13  C   UNL     1      45.126   3.945   9.531  0.00  0.00    +0.000 A 
ATOM     14  C   UNL     1      44.681   2.671   9.147  0.00  0.00    +0.000 A 
ATOM     15  N   UNL     1      44.017   2.054  10.216  0.00  0.00    +0.000 N 
ATOM     16  C   UNL     1      44.046   2.915  11.264  0.00  0.00    +0.000 A 
ATOM     17  N   UNL     1      43.611   2.956  12.551  0.00  0.00    +0.000 NA
ATOM     18  C   UNL     1      44.015   4.218  12.946  0.00  0.00    +0.000 C 
ATOM     19  C   UNL     1      44.708   4.902  11.905  0.00  0.00    +0.000 C 
ATOM     20  C   UNL     1      44.687   4.004  10.832  0.00  0.00    +0.000 A 
ATOM     21  H   UNL     1      43.588   1.140  10.217  0.00  0.00    +0.000 HD
ENDBRANCH   8  19
ENDBRANCH   7  10
ENDBRANCH   1   7
BRANCH   4  22
ATOM     22  O   UNL     1      50.547   8.321  16.875  0.00  0.00    +0.000 OA
BRANCH  22  23
ATOM     23  C   UNL     1      51.024   7.089  17.429  0.00  0.00    +0.000 C 
BRANCH  23  24
ATOM     24  C   UNL     1      49.921   6.487  18.302  0.00  0.00    +0.000 C 
BRANCH  24  25
ATOM     25  C   UNL     1      49.389   5.192  17.747  0.00  0.00    +0.000 A 
ATOM     26  C   UNL     1      48.166   5.147  17.064  0.00  0.00    +0.000 A 
ATOM     27  C   UNL     1      47.687   3.939  16.546  0.00  0.00    +0.000 A 
ATOM     28  C   UNL     1      48.422   2.763  16.711  0.00  0.00    +0.000 A 
ATOM     29  C   UNL     1      49.630   2.793  17.402  0.00  0.00    +0.000 A 
ATOM     30  C   UNL     1      50.100   3.999  17.916  0.00  0.00    +0.000 A 
ATOM     31  F   UNL     1      51.260   4.005  18.589  0.00  0.00    +0.000 F 
ENDBRANCH  24  25
ENDBRANCH  23  24
ENDBRANCH  22  23
ENDBRANCH   4  22
TORSDOF 7
ENDMDL
MODEL 6
REMARK VINA RESULT:    -6.613      4.719     10.239
REMARK INTER + INTRA:         -10.470
REMARK INTER:                  -9.103
REMARK INTRA:                  -1.366
REMARK UNBOUND:                -1.150
REMARK  Name = 
REMARK  8 active torsions:
REMARK  status: ('A' for Active; 'I' for Inactive)
REMARK    1  A    between atoms: C_1  and  C_2
REMARK    2  A    between atoms: C_8  and  C_9
REMARK    3  A    between atoms: N_11  and  C_12
REMARK    4  A    between atoms: C_12  and  C_13
REMARK    5  A    between atoms: C_16  and  O_17
REMARK    6  A    between atoms: O_17  and  C_18
REMARK    7  A    between atoms: C_18  and  C_19
REMARK    8  A    between atoms: C_19  and  C_20
REMARK                            x       y       z     vdW  Elec       q    Type
REMARK                         _______ _______ _______ _____ _____    ______ ____
ROOT
ATOM      1  C   UNL     1      48.525   4.082  16.796  0.00  0.00    +0.000 A 
ATOM      2  C   UNL     1      49.363   3.118  17.374  0.00  0.00    +0.000 A 
ATOM      3  C   UNL     1      50.571   3.487  17.976  0.00  0.00    +0.000 A 
ATOM      4  C   UNL     1      50.958   4.826  18.018  0.00  0.00    +0.000 A 
ATOM      5  C   UNL     1      50.109   5.795  17.481  0.00  0.00    +0.000 A 
ATOM      6  C   UNL     1      48.904   5.428  16.869  0.00  0.00    +0.000 A 
ENDROOT
BRANCH   1   7
ATOM      7  C   UNL     1      47.266   3.667  16.086  0.00  0.00    +0.000 C 
BRANCH   7  10
ATOM      8  C   UNL     1      46.501   4.343  13.878  0.00  0.00    +0.000 C 
ATOM      9  O   UNL     1      46.791   3.213  13.479  0.00  0.00    +0.000 OA
ATOM     10  N   UNL     1      46.741   4.685  15.202  0.00  0.00    +0.000 N 
ATOM     11  H   UNL     1      46.302   5.497  15.616  0.00  0.00    +0.000 HD
BRANCH   8  19
ATOM     12  C   UNL     1      43.590   2.995  12.436  0.00  0.00    +0.000 C 
ATOM     13  C   UNL     1      43.765   4.402  12.015  0.00  0.00    +0.000 A 
ATOM     14  C   UNL     1      42.953   5.150  11.149  0.00  0.00    +0.000 A 
ATOM     15  N   UNL     1      43.466   6.447  11.014  0.00  0.00    +0.000 N 
ATOM     16  C   UNL     1      44.578   6.527  11.786  0.00  0.00    +0.000 A 
ATOM     17  N   UNL     1      45.522   7.452  12.108  0.00  0.00    +0.000 NA
ATOM     18  C   UNL     1      46.353   6.728  12.943  0.00  0.00    +0.000 C 
ATOM     19  C   UNL     1      45.885   5.396  13.132  0.00  0.00    +0.000 C 
ATOM     20  C   UNL     1      44.729   5.324  12.344  0.00  0.00    +0.000 A 
ATOM     21  H   UNL     1      43.088   7.193  10.447  0.00  0.00    +0.000 HD
ENDBRANCH   8  19
ENDBRANCH   7  10
ENDBRANCH   1   7
BRANCH   4  22
ATOM     22  O   UNL     1      52.112   5.297  18.588  0.00  0.00    +0.000 OA
BRANCH  22  23
ATOM     23  C   UNL     1      52.266   5.052  19.990  0.00  0.00    +0.000 C 
BRANCH  23  24
ATOM     24  C   UNL     1      51.715   6.253  20.760  0.00  0.00    +0.000 C 
BRANCH  24  25
ATOM     25  C   UNL     1      50.224   6.174  20.963  0.00  0.00    +0.000 A 
ATOM     26  C   UNL     1      49.616   4.991  21.402  0.00  0.00    +0.000 A 
ATOM     27  C   UNL     1      48.231   4.935  21.594  0.00  0.00    +0.000 A 
ATOM     28  C   UNL     1      47.440   6.058  21.343  0.00  0.00    +0.000 A 
ATOM     29  C   UNL     1      48.033   7.234  20.889  0.00  0.00    +0.000 A 
ATOM     30  C   UNL     1      49.412   7.282  20.699  0.00  0.00    +0.000 A 
ATOM     31  F   UNL     1      49.960   8.420  20.250  0.00  0.00    +0.000 F 
ENDBRANCH  24  25
ENDBRANCH  23  24
ENDBRANCH  22  23
ENDBRANCH   4  22
TORSDOF 7
ENDMDL
MODEL 7
REMARK VINA RESULT:    -6.476      2.534      3.790
REMARK INTER + INTRA:         -10.277
REMARK INTER:                  -8.923
REMARK INTRA:                  -1.353
REMARK UNBOUND:                -1.150
REMARK  Name = 
REMARK  8 active torsions:
REMARK  status: ('A' for Active; 'I' for Inactive)
REMARK    1  A    between atoms: C_1  and  C_2
REMARK    2  A    between atoms: C_8  and  C_9
REMARK    3  A    between atoms: N_11  and  C_12
REMARK    4  A    between atoms: C_12  and  C_13
REMARK    5  A    between atoms: C_16  and  O_17
REMARK    6  A    between atoms: O_17  and  C_18
REMARK    7  A    between atoms: C_18  and  C_19
REMARK    8  A    between atoms: C_19  and  C_20
REMARK                            x       y       z     vdW  Elec       q    Type
REMARK                         _______ _______ _______ _____ _____    ______ ____
ROOT
ATOM      1  C   UNL     1      49.097   8.252  14.819  0.00  0.00    +0.000 A 
ATOM      2  C   UNL     1      49.484   7.251  13.918  0.00  0.00    +0.000 A 
ATOM      3  C   UNL     1      48.677   6.919  12.824  0.00  0.00    +0.000 A 
ATOM      4  C   UNL     1      47.472   7.588  12.609  0.00  0.00    +0.000 A 
ATOM      5  C   UNL     1      47.101   8.614  13.480  0.00  0.00    +0.000 A 
ATOM      6  C   UNL     1      47.902   8.941  14.580  0.00  0.00    +0.000 A 
ENDROOT
BRANCH   1   7
ATOM      7  C   UNL     1      49.935   8.548  16.031  0.00  0.00    +0.000 C 
BRANCH   7  10
ATOM      8  C   UNL     1      48.954   7.454  17.971  0.00  0.00    +0.000 C 
ATOM      9  O   UNL     1      48.132   8.370  18.018  0.00  0.00    +0.000 OA
ATOM     10  N   UNL     1      49.948   7.473  17.000  0.00  0.00    +0.000 N 
ATOM     11  H   UNL     1      50.476   6.639  16.781  0.00  0.00    +0.000 HD
BRANCH   8  19
ATOM     12  C   UNL     1      47.704   4.782  16.055  0.00  0.00    +0.000 C 
ATOM     13  C   UNL     1      48.035   4.321  17.421  0.00  0.00    +0.000 A 
ATOM     14  C   UNL     1      47.876   3.035  17.959  0.00  0.00    +0.000 A 
ATOM     15  N   UNL     1      48.315   3.016  19.289  0.00  0.00    +0.000 N 
ATOM     16  C   UNL     1      48.754   4.263  19.591  0.00  0.00    +0.000 A 
ATOM     17  N   UNL     1      49.288   4.917  20.657  0.00  0.00    +0.000 NA
ATOM     18  C   UNL     1      49.430   6.200  20.159  0.00  0.00    +0.000 C 
ATOM     19  C   UNL     1      49.008   6.291  18.801  0.00  0.00    +0.000 C 
ATOM     20  C   UNL     1      48.569   4.997  18.491  0.00  0.00    +0.000 A 
ATOM     21  H   UNL     1      48.308   2.226  19.919  0.00  0.00    +0.000 HD
ENDBRANCH   8  19
ENDBRANCH   7  10
ENDBRANCH   1   7
BRANCH   4  22
ATOM     22  O   UNL     1      46.611   7.350  11.570  0.00  0.00    +0.000 OA
BRANCH  22  23
ATOM     23  C   UNL     1      45.300   6.899  11.930  0.00  0.00    +0.000 C 
BRANCH  23  24
ATOM     24  C   UNL     1      45.366   5.401  12.235  0.00  0.00    +0.000 C 
BRANCH  24  25
ATOM     25  C   UNL     1      45.116   4.553  11.016  0.00  0.00    +0.000 A 
ATOM     26  C   UNL     1      45.458   5.008   9.736  0.00  0.00    +0.000 A 
ATOM     27  C   UNL     1      45.228   4.205   8.613  0.00  0.00    +0.000 A 
ATOM     28  C   UNL     1      44.646   2.944   8.758  0.00  0.00    +0.000 A 
ATOM     29  C   UNL     1      44.286   2.489  10.024  0.00  0.00    +0.000 A 
ATOM     30  C   UNL     1      44.518   3.294  11.137  0.00  0.00    +0.000 A 
ATOM     31  F   UNL     1      44.153   2.842  12.345  0.00  0.00    +0.000 F 
ENDBRANCH  24  25
ENDBRANCH  23  24
ENDBRANCH  22  23
ENDBRANCH   4  22
TORSDOF 7
ENDMDL
MODEL 8
REMARK VINA RESULT:    -6.386      2.878      4.474
REMARK INTER + INTRA:         -10.149
REMARK INTER:                  -9.418
REMARK INTRA:                  -0.731
REMARK UNBOUND:                -1.150
REMARK  Name = 
REMARK  8 active torsions:
REMARK  status: ('A' for Active; 'I' for Inactive)
REMARK    1  A    between atoms: C_1  and  C_2
REMARK    2  A    between atoms: C_8  and  C_9
REMARK    3  A    between atoms: N_11  and  C_12
REMARK    4  A    between atoms: C_12  and  C_13
REMARK    5  A    between atoms: C_16  and  O_17
REMARK    6  A    between atoms: O_17  and  C_18
REMARK    7  A    between atoms: C_18  and  C_19
REMARK    8  A    between atoms: C_19  and  C_20
REMARK                            x       y       z     vdW  Elec       q    Type
REMARK                         _______ _______ _______ _____ _____    ______ ____
ROOT
ATOM      1  C   UNL     1      45.838   5.244  12.793  0.00  0.00    +0.000 A 
ATOM      2  C   UNL     1      45.753   3.845  12.781  0.00  0.00    +0.000 A 
ATOM      3  C   UNL     1      45.172   3.170  11.701  0.00  0.00    +0.000 A 
ATOM      4  C   UNL     1      44.672   3.883  10.612  0.00  0.00    +0.000 A 
ATOM      5  C   UNL     1      44.791   5.274  10.599  0.00  0.00    +0.000 A 
ATOM      6  C   UNL     1      45.363   5.952  11.682  0.00  0.00    +0.000 A 
ENDROOT
BRANCH   1   7
ATOM      7  C   UNL     1      46.397   5.961  13.990  0.00  0.00    +0.000 C 
BRANCH   7  10
ATOM      8  C   UNL     1      47.950   7.828  13.838  0.00  0.00    +0.000 C 
ATOM      9  O   UNL     1      46.989   8.584  13.990  0.00  0.00    +0.000 OA
ATOM     10  N   UNL     1      47.742   6.455  13.790  0.00  0.00    +0.000 N 
ATOM     11  H   UNL     1      48.511   5.810  13.911  0.00  0.00    +0.000 HD
BRANCH   8  19
ATOM     12  C   UNL     1      48.178  10.258  11.305  0.00  0.00    +0.000 C 
ATOM     13  C   UNL     1      49.523   9.937  11.829  0.00  0.00    +0.000 A 
ATOM     14  C   UNL     1      50.758  10.458  11.412  0.00  0.00    +0.000 A 
ATOM     15  N   UNL     1      51.794   9.896  12.168  0.00  0.00    +0.000 N 
ATOM     16  C   UNL     1      51.231   9.040  13.057  0.00  0.00    +0.000 A 
ATOM     17  N   UNL     1      51.634   8.200  14.048  0.00  0.00    +0.000 NA
ATOM     18  C   UNL     1      50.434   7.651  14.459  0.00  0.00    +0.000 C 
ATOM     19  C   UNL     1      49.330   8.187  13.734  0.00  0.00    +0.000 C 
ATOM     20  C   UNL     1      49.916   9.080  12.828  0.00  0.00    +0.000 A 
ATOM     21  H   UNL     1      52.782  10.083  12.076  0.00  0.00    +0.000 HD
ENDBRANCH   8  19
ENDBRANCH   7  10
ENDBRANCH   1   7
BRANCH   4  22
ATOM     22  O   UNL     1      44.092   3.327   9.502  0.00  0.00    +0.000 OA
BRANCH  22  23
ATOM     23  C   UNL     1      44.407   3.948   8.251  0.00  0.00    +0.000 C 
BRANCH  23  24
ATOM     24  C   UNL     1      45.928   4.016   8.108  0.00  0.00    +0.000 C 
BRANCH  24  25
ATOM     25  C   UNL     1      46.468   2.959   7.180  0.00  0.00    +0.000 A 
ATOM     26  C   UNL     1      46.835   3.270   5.864  0.00  0.00    +0.000 A 
ATOM     27  C   UNL     1      47.343   2.280   5.016  0.00  0.00    +0.000 A 
ATOM     28  C   UNL     1      47.483   0.968   5.472  0.00  0.00    +0.000 A 
ATOM     29  C   UNL     1      47.106   0.644   6.773  0.00  0.00    +0.000 A 
ATOM     30  C   UNL     1      46.600   1.634   7.611  0.00  0.00    +0.000 A 
ATOM     31  F   UNL     1      46.231   1.298   8.856  0.00  0.00    +0.000 F 
ENDBRANCH  24  25
ENDBRANCH  23  24
ENDBRANCH  22  23
ENDBRANCH   4  22
TORSDOF 7
ENDMDL
MODEL 9
REMARK VINA RESULT:    -6.340      3.884      5.696
REMARK INTER + INTRA:         -10.085
REMARK INTER:                  -9.582
REMARK INTRA:                  -0.503
REMARK UNBOUND:                -1.150
REMARK  Name = 
REMARK  8 active torsions:
REMARK  status: ('A' for Active; 'I' for Inactive)
REMARK    1  A    between atoms: C_1  and  C_2
REMARK    2  A    between atoms: C_8  and  C_9
REMARK    3  A    between atoms: N_11  and  C_12
REMARK    4  A    between atoms: C_12  and  C_13
REMARK    5  A    between atoms: C_16  and  O_17
REMARK    6  A    between atoms: O_17  and  C_18
REMARK    7  A    between atoms: C_18  and  C_19
REMARK    8  A    between atoms: C_19  and  C_20
REMARK                            x       y       z     vdW  Elec       q    Type
REMARK                         _______ _______ _______ _____ _____    ______ ____
ROOT
ATOM      1  C   UNL     1      45.636   6.527  12.203  0.00  0.00    +0.000 A 
ATOM      2  C   UNL     1      45.668   6.357  10.812  0.00  0.00    +0.000 A 
ATOM      3  C   UNL     1      45.146   5.203  10.218  0.00  0.00    +0.000 A 
ATOM      4  C   UNL     1      44.576   4.202  11.005  0.00  0.00    +0.000 A 
ATOM      5  C   UNL     1      44.504   4.384  12.387  0.00  0.00    +0.000 A 
ATOM      6  C   UNL     1      45.034   5.533  12.985  0.00  0.00    +0.000 A 
ENDROOT
BRANCH   1   7
ATOM      7  C   UNL     1      46.267   7.736  12.836  0.00  0.00    +0.000 C 
BRANCH   7  10
ATOM      8  C   UNL     1      48.062   9.328  12.431  0.00  0.00    +0.000 C 
ATOM      9  O   UNL     1      47.328  10.207  12.885  0.00  0.00    +0.000 OA
ATOM     10  N   UNL     1      47.593   8.024  12.332  0.00  0.00    +0.000 N 
ATOM     11  H   UNL     1      48.232   7.252  12.198  0.00  0.00    +0.000 HD
BRANCH   8  19
ATOM     12  C   UNL     1      48.136  12.011  10.157  0.00  0.00    +0.000 C 
ATOM     13  C   UNL     1      49.480  11.405  10.278  0.00  0.00    +0.000 A 
ATOM     14  C   UNL     1      50.653  11.769   9.599  0.00  0.00    +0.000 A 
ATOM     15  N   UNL     1      51.713  10.946  10.002  0.00  0.00    +0.000 N 
ATOM     16  C   UNL     1      51.227  10.081  10.927  0.00  0.00    +0.000 A 
ATOM     17  N   UNL     1      51.688   9.058  11.696  0.00  0.00    +0.000 NA
ATOM     18  C   UNL     1      50.540   8.663  12.357  0.00  0.00    +0.000 C 
ATOM     19  C   UNL     1      49.419   9.467  12.000  0.00  0.00    +0.000 C 
ATOM     20  C   UNL     1      49.930  10.366  11.056  0.00  0.00    +0.000 A 
ATOM     21  H   UNL     1      52.666  10.979   9.671  0.00  0.00    +0.000 HD
ENDBRANCH   8  19
ENDBRANCH   7  10
ENDBRANCH   1   7
BRANCH   4  22
ATOM     22  O   UNL     1      44.029   3.039  10.529  0.00  0.00    +0.000 OA
BRANCH  22  23
ATOM     23  C   UNL     1      44.355   2.698   9.177  0.00  0.00    +0.000 C 
BRANCH  23  24
ATOM     24  C   UNL     1      45.731   2.031   9.159  0.00  0.00    +0.000 C 
BRANCH  24  25
ATOM     25  C   UNL     1      46.328   1.977   7.777  0.00  0.00    +0.000 A 
ATOM     26  C   UNL     1      46.803   0.773   7.241  0.00  0.00    +0.000 A 
ATOM     27  C   UNL     1      47.348   0.737   5.953  0.00  0.00    +0.000 A 
ATOM     28  C   UNL     1      47.430   1.903   5.191  0.00  0.00    +0.000 A 
ATOM     29  C   UNL     1      46.976   3.109   5.720  0.00  0.00    +0.000 A 
ATOM     30  C   UNL     1      46.436   3.138   7.004  0.00  0.00    +0.000 A 
ATOM     31  F   UNL     1      46.016   4.311   7.499  0.00  0.00    +0.000 F 
ENDBRANCH  24  25
ENDBRANCH  23  24
ENDBRANCH  22  23
ENDBRANCH   4  22
TORSDOF 7
ENDMDL
