MODEL 1
REMARK VINA RESULT:    -7.644      0.000      0.000
REMARK INTER + INTRA:         -12.734
REMARK INTER:                 -11.219
REMARK INTRA:                  -1.515
REMARK UNBOUND:                -1.515
REMARK  Name = 
REMARK  10 active torsions:
REMARK  status: ('A' for Active; 'I' for Inactive)
REMARK    1  A    between atoms: C_1  and  C_2
REMARK    2  A    between atoms: C_2  and  C_3
REMARK    3  A    between atoms: C_2  and  N_10
REMARK    4  A    between atoms: C_3  and  C_4
REMARK    5  A    between atoms: N_10  and  C_11
REMARK    6  A    between atoms: N_10  and  C_12
REMARK    7  A    between atoms: C_12  and  C_13
REMARK    8  A    between atoms: C_16  and  C_17
REMARK    9  A    between atoms: C_17  and  N_18
REMARK   10  A    between atoms: C_19  and  C_21
REMARK                            x       y       z     vdW  Elec       q    Type
REMARK                         _______ _______ _______ _____ _____    ______ ____
ROOT
ATOM      1  C   UNL     1      45.252   6.800  11.253  0.00  0.00    +0.000 A 
ATOM      2  C   UNL     1      44.918   7.887  12.064  0.00  0.00    +0.000 A 
ATOM      3  C   UNL     1      45.817   8.486  12.934  0.00  0.00    +0.000 A 
ATOM      4  C   UNL     1      47.094   7.961  13.067  0.00  0.00    +0.000 A 
ATOM      5  C   UNL     1      47.436   6.823  12.322  0.00  0.00    +0.000 A 
ATOM      6  C   UNL     1      46.530   6.256  11.412  0.00  0.00    +0.000 A 
ENDROOT
BRANCH   1   7
ATOM      7  C   UNL     1      44.239   6.205  10.286  0.00  0.00    +0.000 C 
BRANCH   7   8
ATOM      8  N   UNL     1      43.615   4.906  10.657  0.00  0.00    +0.000 NA
ATOM      9  C   UNL     1      42.732   5.111  11.813  0.00  0.00    +0.000 C 
BRANCH   8  11
ATOM     10  C   UNL     1      44.426   3.099  12.215  0.00  0.00    +0.000 C 
ATOM     11  C   UNL     1      44.549   3.751  10.821  0.00  0.00    +0.000 C 
BRANCH  11  12
ATOM     12  C   UNL     1      44.353   2.642   9.723  0.00  0.00    +0.000 C 
BRANCH  12  13
ATOM     13  C   UNL     1      45.443   2.592   8.666  0.00  0.00    +0.000 A 
ATOM     14  C   UNL     1      45.792   3.747   7.967  0.00  0.00    +0.000 A 
ATOM     15  C   UNL     1      46.736   3.660   6.956  0.00  0.00    +0.000 A 
ATOM     16  N   UNL     1      47.364   2.516   6.601  0.00  0.00    +0.000 NA
ATOM     17  C   UNL     1      47.043   1.421   7.304  0.00  0.00    +0.000 A 
ATOM     18  C   UNL     1      46.119   1.408   8.338  0.00  0.00    +0.000 A 
ENDBRANCH  12  13
ENDBRANCH  11  12
ENDBRANCH   8  11
ENDBRANCH   7   8
ENDBRANCH   1   7
BRANCH   4  19
ATOM     19  C   UNL     1      48.021   8.560  14.083  0.00  0.00    +0.000 C 
BRANCH  19  20
ATOM     20  N   UNL     1      48.201   7.639  15.174  0.00  0.00    +0.000 N 
ATOM     21  C   UNL     1      49.386   6.991  15.372  0.00  0.00    +0.000 C 
ATOM     22  O   UNL     1      50.363   7.189  14.655  0.00  0.00    +0.000 OA
ATOM     23  H   UNL     1      47.364   7.334  15.663  0.00  0.00    +0.000 HD
BRANCH  21  24
ATOM     24  C   UNL     1      49.451   6.093  16.530  0.00  0.00    +0.000 A 
ATOM     25  C   UNL     1      50.419   6.303  17.502  0.00  0.00    +0.000 A 
ATOM     26  S   UNL     1      50.328   5.206  18.804  0.00  0.00    +0.000 S 
ATOM     27  C   UNL     1      49.021   4.383  18.092  0.00  0.00    +0.000 A 
ATOM     28  N   UNL     1      48.465   3.299  18.699  0.00  0.00    +0.000 NA
ATOM     29  C   UNL     1      47.504   2.750  18.034  0.00  0.00    +0.000 A 
ATOM     30  N   UNL     1      47.046   3.186  16.818  0.00  0.00    +0.000 N 
ATOM     31  C   UNL     1      47.556   4.293  16.183  0.00  0.00    +0.000 A 
ATOM     32  O   UNL     1      47.088   4.683  15.119  0.00  0.00    +0.000 OA
ATOM     33  C   UNL     1      48.648   4.944  16.884  0.00  0.00    +0.000 A 
ATOM     34  H   UNL     1      46.283   2.718  16.354  0.00  0.00    +0.000 HD
ENDBRANCH  21  24
ENDBRANCH  19  20
ENDBRANCH   4  19
TORSDOF 8
ENDMDL
MODEL 2
REMARK VINA RESULT:    -7.363      3.581      9.797
REMARK INTER + INTRA:         -12.322
REMARK INTER:                 -10.014
REMARK INTRA:                  -2.308
REMARK UNBOUND:                -1.515
REMARK  Name = 
REMARK  10 active torsions:
REMARK  status: ('A' for Active; 'I' for Inactive)
REMARK    1  A    between atoms: C_1  and  C_2
REMARK    2  A    between atoms: C_2  and  C_3
REMARK    3  A    between atoms: C_2  and  N_10
REMARK    4  A    between atoms: C_3  and  C_4
REMARK    5  A    between atoms: N_10  and  C_11
REMARK    6  A    between atoms: N_10  and  C_12
REMARK    7  A    between atoms: C_12  and  C_13
REMARK    8  A    between atoms: C_16  and  C_17
REMARK    9  A    between atoms: C_17  and  N_18
REMARK   10  A    between atoms: C_19  and  C_21
REMARK                            x       y       z     vdW  Elec       q    Type
REMARK                         _______ _______ _______ _____ _____    ______ ____
ROOT
ATOM      1  C   UNL     1      51.421   4.392  17.656  0.00  0.00    +0.000 A 
ATOM      2  C   UNL     1      50.477   5.378  17.356  0.00  0.00    +0.000 A 
ATOM      3  C   UNL     1      49.141   5.097  17.110  0.00  0.00    +0.000 A 
ATOM      4  C   UNL     1      48.712   3.778  17.095  0.00  0.00    +0.000 A 
ATOM      5  C   UNL     1      49.649   2.760  17.318  0.00  0.00    +0.000 A 
ATOM      6  C   UNL     1      50.989   3.064  17.610  0.00  0.00    +0.000 A 
ENDROOT
BRANCH   1   7
ATOM      7  C   UNL     1      52.866   4.758  17.957  0.00  0.00    +0.000 C 
BRANCH   7   8
ATOM      8  N   UNL     1      53.197   5.162  19.350  0.00  0.00    +0.000 NA
ATOM      9  C   UNL     1      54.639   5.430  19.442  0.00  0.00    +0.000 C 
BRANCH   8  11
ATOM     10  C   UNL     1      53.829   3.477  21.114  0.00  0.00    +0.000 C 
ATOM     11  C   UNL     1      52.690   4.265  20.433  0.00  0.00    +0.000 C 
BRANCH  11  12
ATOM     12  C   UNL     1      51.874   5.034  21.536  0.00  0.00    +0.000 C 
BRANCH  12  13
ATOM     13  C   UNL     1      50.521   5.553  21.081  0.00  0.00    +0.000 A 
ATOM     14  C   UNL     1      50.359   6.902  20.767  0.00  0.00    +0.000 A 
ATOM     15  C   UNL     1      49.098   7.365  20.428  0.00  0.00    +0.000 A 
ATOM     16  N   UNL     1      47.994   6.585  20.366  0.00  0.00    +0.000 NA
ATOM     17  C   UNL     1      48.172   5.285  20.637  0.00  0.00    +0.000 A 
ATOM     18  C   UNL     1      49.394   4.724  20.978  0.00  0.00    +0.000 A 
ENDBRANCH  12  13
ENDBRANCH  11  12
ENDBRANCH   8  11
ENDBRANCH   7   8
ENDBRANCH   1   7
BRANCH   4  19
ATOM     19  C   UNL     1      47.286   3.486  16.731  0.00  0.00    +0.000 C 
BRANCH  19  20
ATOM     20  N   UNL     1      46.822   4.459  15.778  0.00  0.00    +0.000 N 
ATOM     21  C   UNL     1      46.841   4.209  14.436  0.00  0.00    +0.000 C 
ATOM     22  O   UNL     1      47.220   3.133  13.981  0.00  0.00    +0.000 OA
ATOM     23  H   UNL     1      46.674   5.405  16.119  0.00  0.00    +0.000 HD
BRANCH  21  24
ATOM     24  C   UNL     1      46.324   5.272  13.568  0.00  0.00    +0.000 A 
ATOM     25  C   UNL     1      47.101   6.396  13.328  0.00  0.00    +0.000 A 
ATOM     26  S   UNL     1      46.379   7.512  12.262  0.00  0.00    +0.000 S 
ATOM     27  C   UNL     1      44.979   6.555  12.120  0.00  0.00    +0.000 A 
ATOM     28  N   UNL     1      43.933   6.959  11.350  0.00  0.00    +0.000 NA
ATOM     29  C   UNL     1      42.923   6.156  11.358  0.00  0.00    +0.000 A 
ATOM     30  N   UNL     1      42.864   4.982  12.064  0.00  0.00    +0.000 N 
ATOM     31  C   UNL     1      43.907   4.519  12.830  0.00  0.00    +0.000 A 
ATOM     32  O   UNL     1      43.837   3.441  13.409  0.00  0.00    +0.000 OA
ATOM     33  C   UNL     1      45.067   5.392  12.864  0.00  0.00    +0.000 A 
ATOM     34  H   UNL     1      42.047   4.392  12.021  0.00  0.00    +0.000 HD
ENDBRANCH  21  24
ENDBRANCH  19  20
ENDBRANCH   4  19
TORSDOF 8
ENDMDL
MODEL 3
REMARK VINA RESULT:    -7.362      2.944      8.029
REMARK INTER + INTRA:         -12.320
REMARK INTER:                 -10.199
REMARK INTRA:                  -2.121
REMARK UNBOUND:                -1.515
REMARK  Name = 
REMARK  10 active torsions:
REMARK  status: ('A' for Active; 'I' for Inactive)
REMARK    1  A    between atoms: C_1  and  C_2
REMARK    2  A    between atoms: C_2  and  C_3
REMARK    3  A    between atoms: C_2  and  N_10
REMARK    4  A    between atoms: C_3  and  C_4
REMARK    5  A    between atoms: N_10  and  C_11
REMARK    6  A    between atoms: N_10  and  C_12
REMARK    7  A    between atoms: C_12  and  C_13
REMARK    8  A    between atoms: C_16  and  C_17
REMARK    9  A    between atoms: C_17  and  N_18
REMARK   10  A    between atoms: C_19  and  C_21
REMARK                            x       y       z     vdW  Elec       q    Type
REMARK                         _______ _______ _______ _____ _____    ______ ____
ROOT
ATOM      1  C   UNL     1      48.835   8.096  16.512  0.00  0.00    +0.000 A 
ATOM      2  C   UNL     1      49.051   6.922  15.787  0.00  0.00    +0.000 A 
ATOM      3  C   UNL     1      48.843   6.828  14.419  0.00  0.00    +0.000 A 
ATOM      4  C   UNL     1      48.339   7.920  13.728  0.00  0.00    +0.000 A 
ATOM      5  C   UNL     1      48.040   9.090  14.440  0.00  0.00    +0.000 A 
ATOM      6  C   UNL     1      48.300   9.184  15.817  0.00  0.00    +0.000 A 
ENDROOT
BRANCH   1   7
ATOM      7  C   UNL     1      49.118   8.156  18.005  0.00  0.00    +0.000 C 
BRANCH   7   8
ATOM      8  N   UNL     1      47.976   7.928  18.931  0.00  0.00    +0.000 NA
ATOM      9  C   UNL     1      47.900   9.044  19.883  0.00  0.00    +0.000 C 
BRANCH   8  11
ATOM     10  C   UNL     1      47.429   6.672  21.046  0.00  0.00    +0.000 C 
ATOM     11  C   UNL     1      47.918   6.585  19.585  0.00  0.00    +0.000 C 
BRANCH  11  12
ATOM     12  C   UNL     1      47.013   5.561  18.806  0.00  0.00    +0.000 C 
BRANCH  12  13
ATOM     13  C   UNL     1      47.773   4.490  18.044  0.00  0.00    +0.000 A 
ATOM     14  C   UNL     1      49.103   4.217  18.362  0.00  0.00    +0.000 A 
ATOM     15  C   UNL     1      49.798   3.289  17.602  0.00  0.00    +0.000 A 
ATOM     16  N   UNL     1      49.264   2.607  16.563  0.00  0.00    +0.000 NA
ATOM     17  C   UNL     1      47.976   2.855  16.290  0.00  0.00    +0.000 A 
ATOM     18  C   UNL     1      47.195   3.758  16.996  0.00  0.00    +0.000 A 
ENDBRANCH  12  13
ENDBRANCH  11  12
ENDBRANCH   8  11
ENDBRANCH   7   8
ENDBRANCH   1   7
BRANCH   4  19
ATOM     19  C   UNL     1      48.027   7.771  12.268  0.00  0.00    +0.000 C 
BRANCH  19  20
ATOM     20  N   UNL     1      47.227   6.592  12.063  0.00  0.00    +0.000 N 
ATOM     21  C   UNL     1      45.865   6.630  12.153  0.00  0.00    +0.000 C 
ATOM     22  O   UNL     1      45.257   7.673  12.377  0.00  0.00    +0.000 OA
ATOM     23  H   UNL     1      47.714   5.701  12.053  0.00  0.00    +0.000 HD
BRANCH  21  24
ATOM     24  C   UNL     1      45.162   5.367  11.904  0.00  0.00    +0.000 A 
ATOM     25  C   UNL     1      44.491   4.742  12.946  0.00  0.00    +0.000 A 
ATOM     26  S   UNL     1      43.685   3.315  12.481  0.00  0.00    +0.000 S 
ATOM     27  C   UNL     1      44.243   3.455  10.880  0.00  0.00    +0.000 A 
ATOM     28  N   UNL     1      43.924   2.519   9.945  0.00  0.00    +0.000 NA
ATOM     29  C   UNL     1      44.440   2.730   8.781  0.00  0.00    +0.000 A 
ATOM     30  N   UNL     1      45.246   3.792   8.464  0.00  0.00    +0.000 N 
ATOM     31  C   UNL     1      45.570   4.777   9.367  0.00  0.00    +0.000 A 
ATOM     32  O   UNL     1      46.254   5.739   9.034  0.00  0.00    +0.000 OA
ATOM     33  C   UNL     1      45.023   4.583  10.697  0.00  0.00    +0.000 A 
ATOM     34  H   UNL     1      45.611   3.906   7.531  0.00  0.00    +0.000 HD
ENDBRANCH  21  24
ENDBRANCH  19  20
ENDBRANCH   4  19
TORSDOF 8
ENDMDL
MODEL 4
REMARK VINA RESULT:    -7.199      3.189      7.772
REMARK INTER + INTRA:         -12.081
REMARK INTER:                 -10.124
REMARK INTRA:                  -1.957
REMARK UNBOUND:                -1.515
REMARK  Name = 
REMARK  10 active torsions:
REMARK  status: ('A' for Active; 'I' for Inactive)
REMARK    1  A    between atoms: C_1  and  C_2
REMARK    2  A    between atoms: C_2  and  C_3
REMARK    3  A    between atoms: C_2  and  N_10
REMARK    4  A    between atoms: C_3  and  C_4
REMARK    5  A    between atoms: N_10  and  C_11
REMARK    6  A    between atoms: N_10  and  C_12
REMARK    7  A    between atoms: C_12  and  C_13
REMARK    8  A    between atoms: C_16  and  C_17
REMARK    9  A    between atoms: C_17  and  N_18
REMARK   10  A    between atoms: C_19  and  C_21
REMARK                            x       y       z     vdW  Elec       q    Type
REMARK                         _______ _______ _______ _____ _____    ______ ____
ROOT
ATOM      1  C   UNL     1      48.953   7.769  16.380  0.00  0.00    +0.000 A 
ATOM      2  C   UNL     1      48.447   8.963  15.863  0.00  0.00    +0.000 A 
ATOM      3  C   UNL     1      48.091   9.122  14.531  0.00  0.00    +0.000 A 
ATOM      4  C   UNL     1      48.296   8.077  13.641  0.00  0.00    +0.000 A 
ATOM      5  C   UNL     1      48.872   6.891  14.113  0.00  0.00    +0.000 A 
ATOM      6  C   UNL     1      49.184   6.731  15.473  0.00  0.00    +0.000 A 
ENDROOT
BRANCH   1   7
ATOM      7  C   UNL     1      49.290   7.637  17.857  0.00  0.00    +0.000 C 
BRANCH   7   8
ATOM      8  N   UNL     1      48.161   7.435  18.805  0.00  0.00    +0.000 NA
ATOM      9  C   UNL     1      48.194   8.495  19.822  0.00  0.00    +0.000 C 
BRANCH   8  11
ATOM     10  C   UNL     1      47.270   6.072  20.728  0.00  0.00    +0.000 C 
ATOM     11  C   UNL     1      48.025   6.062  19.382  0.00  0.00    +0.000 C 
BRANCH  11  12
ATOM     12  C   UNL     1      47.313   5.054  18.407  0.00  0.00    +0.000 C 
BRANCH  12  13
ATOM     13  C   UNL     1      48.233   4.032  17.764  0.00  0.00    +0.000 A 
ATOM     14  C   UNL     1      47.735   3.146  16.809  0.00  0.00    +0.000 A 
ATOM     15  C   UNL     1      48.577   2.173  16.293  0.00  0.00    +0.000 A 
ATOM     16  N   UNL     1      49.875   2.027  16.646  0.00  0.00    +0.000 NA
ATOM     17  C   UNL     1      50.348   2.907  17.539  0.00  0.00    +0.000 A 
ATOM     18  C   UNL     1      49.589   3.919  18.107  0.00  0.00    +0.000 A 
ENDBRANCH  12  13
ENDBRANCH  11  12
ENDBRANCH   8  11
ENDBRANCH   7   8
ENDBRANCH   1   7
BRANCH   4  19
ATOM     19  C   UNL     1      47.997   8.298  12.187  0.00  0.00    +0.000 C 
BRANCH  19  20
ATOM     20  N   UNL     1      47.379   7.120  11.637  0.00  0.00    +0.000 N 
ATOM     21  C   UNL     1      46.040   7.075  11.373  0.00  0.00    +0.000 C 
ATOM     22  O   UNL     1      45.308   8.044  11.557  0.00  0.00    +0.000 OA
ATOM     23  H   UNL     1      47.927   6.265  11.645  0.00  0.00    +0.000 HD
BRANCH  21  24
ATOM     24  C   UNL     1      45.533   5.826  10.796  0.00  0.00    +0.000 A 
ATOM     25  C   UNL     1      45.769   5.548   9.457  0.00  0.00    +0.000 A 
ATOM     26  S   UNL     1      45.160   4.037   8.955  0.00  0.00    +0.000 S 
ATOM     27  C   UNL     1      44.516   3.722  10.498  0.00  0.00    +0.000 A 
ATOM     28  N   UNL     1      43.830   2.573  10.746  0.00  0.00    +0.000 NA
ATOM     29  C   UNL     1      43.368   2.476  11.947  0.00  0.00    +0.000 A 
ATOM     30  N   UNL     1      43.530   3.423  12.925  0.00  0.00    +0.000 N 
ATOM     31  C   UNL     1      44.240   4.584  12.729  0.00  0.00    +0.000 A 
ATOM     32  O   UNL     1      44.405   5.385  13.642  0.00  0.00    +0.000 OA
ATOM     33  C   UNL     1      44.774   4.748  11.389  0.00  0.00    +0.000 A 
ATOM     34  H   UNL     1      43.151   3.283  13.850  0.00  0.00    +0.000 HD
ENDBRANCH  21  24
ENDBRANCH  19  20
ENDBRANCH   4  19
TORSDOF 8
ENDMDL
MODEL 5
REMARK VINA RESULT:    -7.160      3.547      8.919
REMARK INTER + INTRA:         -12.024
REMARK INTER:                  -9.343
REMARK INTRA:                  -2.681
REMARK UNBOUND:                -1.515
REMARK  Name = 
REMARK  10 active torsions:
REMARK  status: ('A' for Active; 'I' for Inactive)
REMARK    1  A    between atoms: C_1  and  C_2
REMARK    2  A    between atoms: C_2  and  C_3
REMARK    3  A    between atoms: C_2  and  N_10
REMARK    4  A    between atoms: C_3  and  C_4
REMARK    5  A    between atoms: N_10  and  C_11
REMARK    6  A    between atoms: N_10  and  C_12
REMARK    7  A    between atoms: C_12  and  C_13
REMARK    8  A    between atoms: C_16  and  C_17
REMARK    9  A    between atoms: C_17  and  N_18
REMARK   10  A    between atoms: C_19  and  C_21
REMARK                            x       y       z     vdW  Elec       q    Type
REMARK                         _______ _______ _______ _____ _____    ______ ____
ROOT
ATOM      1  C   UNL     1      48.980   5.691  19.752  0.00  0.00    +0.000 A 
ATOM      2  C   UNL     1      47.651   5.792  19.335  0.00  0.00    +0.000 A 
ATOM      3  C   UNL     1      47.127   5.052  18.285  0.00  0.00    +0.000 A 
ATOM      4  C   UNL     1      47.959   4.210  17.562  0.00  0.00    +0.000 A 
ATOM      5  C   UNL     1      49.316   4.142  17.907  0.00  0.00    +0.000 A 
ATOM      6  C   UNL     1      49.820   4.863  19.001  0.00  0.00    +0.000 A 
ENDROOT
BRANCH   1   7
ATOM      7  C   UNL     1      49.492   6.496  20.936  0.00  0.00    +0.000 C 
BRANCH   7   8
ATOM      8  N   UNL     1      50.379   7.655  20.646  0.00  0.00    +0.000 NA
ATOM      9  C   UNL     1      51.219   7.921  21.822  0.00  0.00    +0.000 C 
BRANCH   8  11
ATOM     10  C   UNL     1      49.738  10.047  21.114  0.00  0.00    +0.000 C 
ATOM     11  C   UNL     1      49.708   8.878  20.107  0.00  0.00    +0.000 C 
BRANCH  11  12
ATOM     12  C   UNL     1      50.324   9.365  18.745  0.00  0.00    +0.000 C 
BRANCH  12  13
ATOM     13  C   UNL     1      50.162   8.394  17.589  0.00  0.00    +0.000 A 
ATOM     14  C   UNL     1      51.264   7.682  17.115  0.00  0.00    +0.000 A 
ATOM     15  C   UNL     1      51.107   6.859  16.011  0.00  0.00    +0.000 A 
ATOM     16  N   UNL     1      49.936   6.683  15.356  0.00  0.00    +0.000 NA
ATOM     17  C   UNL     1      48.880   7.347  15.844  0.00  0.00    +0.000 A 
ATOM     18  C   UNL     1      48.933   8.187  16.946  0.00  0.00    +0.000 A 
ENDBRANCH  12  13
ENDBRANCH  11  12
ENDBRANCH   8  11
ENDBRANCH   7   8
ENDBRANCH   1   7
BRANCH   4  19
ATOM     19  C   UNL     1      47.401   3.491  16.369  0.00  0.00    +0.000 C 
BRANCH  19  20
ATOM     20  N   UNL     1      46.753   4.434  15.496  0.00  0.00    +0.000 N 
ATOM     21  C   UNL     1      46.845   4.329  14.138  0.00  0.00    +0.000 C 
ATOM     22  O   UNL     1      47.451   3.408  13.597  0.00  0.00    +0.000 OA
ATOM     23  H   UNL     1      46.403   5.289  15.920  0.00  0.00    +0.000 HD
BRANCH  21  24
ATOM     24  C   UNL     1      46.124   5.340  13.357  0.00  0.00    +0.000 A 
ATOM     25  C   UNL     1      46.722   6.568  13.114  0.00  0.00    +0.000 A 
ATOM     26  S   UNL     1      45.777   7.610  12.152  0.00  0.00    +0.000 S 
ATOM     27  C   UNL     1      44.514   6.474  12.064  0.00  0.00    +0.000 A 
ATOM     28  N   UNL     1      43.368   6.756  11.388  0.00  0.00    +0.000 NA
ATOM     29  C   UNL     1      42.480   5.820  11.429  0.00  0.00    +0.000 A 
ATOM     30  N   UNL     1      42.633   4.626  12.085  0.00  0.00    +0.000 N 
ATOM     31  C   UNL     1      43.784   4.286  12.755  0.00  0.00    +0.000 A 
ATOM     32  O   UNL     1      43.904   3.188  13.288  0.00  0.00    +0.000 OA
ATOM     33  C   UNL     1      44.814   5.309  12.748  0.00  0.00    +0.000 A 
ATOM     34  H   UNL     1      41.903   3.930  12.071  0.00  0.00    +0.000 HD
ENDBRANCH  21  24
ENDBRANCH  19  20
ENDBRANCH   4  19
TORSDOF 8
ENDMDL
MODEL 6
REMARK VINA RESULT:    -7.065      2.918      8.322
REMARK INTER + INTRA:         -11.885
REMARK INTER:                 -10.203
REMARK INTRA:                  -1.681
REMARK UNBOUND:                -1.515
REMARK  Name = 
REMARK  10 active torsions:
REMARK  status: ('A' for Active; 'I' for Inactive)
REMARK    1  A    between atoms: C_1  and  C_2
REMARK    2  A    between atoms: C_2  and  C_3
REMARK    3  A    between atoms: C_2  and  N_10
REMARK    4  A    between atoms: C_3  and  C_4
REMARK    5  A    between atoms: N_10  and  C_11
REMARK    6  A    between atoms: N_10  and  C_12
REMARK    7  A    between atoms: C_12  and  C_13
REMARK    8  A    between atoms: C_16  and  C_17
REMARK    9  A    between atoms: C_17  and  N_18
REMARK   10  A    between atoms: C_19  and  C_21
REMARK                            x       y       z     vdW  Elec       q    Type
REMARK                         _______ _______ _______ _____ _____    ______ ____
ROOT
ATOM      1  C   UNL     1      50.256   7.327  15.495  0.00  0.00    +0.000 A 
ATOM      2  C   UNL     1      50.708   7.954  14.331  0.00  0.00    +0.000 A 
ATOM      3  C   UNL     1      49.914   8.129  13.207  0.00  0.00    +0.000 A 
ATOM      4  C   UNL     1      48.627   7.612  13.193  0.00  0.00    +0.000 A 
ATOM      5  C   UNL     1      48.168   6.911  14.317  0.00  0.00    +0.000 A 
ATOM      6  C   UNL     1      48.969   6.782  15.464  0.00  0.00    +0.000 A 
ENDROOT
BRANCH   1   7
ATOM      7  C   UNL     1      51.155   7.196  16.714  0.00  0.00    +0.000 C 
BRANCH   7   8
ATOM      8  N   UNL     1      50.500   7.095  18.045  0.00  0.00    +0.000 NA
ATOM      9  C   UNL     1      50.523   8.414  18.692  0.00  0.00    +0.000 C 
BRANCH   8  11
ATOM     10  C   UNL     1      51.526   6.519  20.273  0.00  0.00    +0.000 C 
ATOM     11  C   UNL     1      50.977   5.990  18.931  0.00  0.00    +0.000 C 
BRANCH  11  12
ATOM     12  C   UNL     1      49.867   4.915  19.225  0.00  0.00    +0.000 C 
BRANCH  12  13
ATOM     13  C   UNL     1      49.703   3.858  18.147  0.00  0.00    +0.000 A 
ATOM     14  C   UNL     1      48.475   3.697  17.507  0.00  0.00    +0.000 A 
ATOM     15  C   UNL     1      48.329   2.676  16.581  0.00  0.00    +0.000 A 
ATOM     16  N   UNL     1      49.316   1.816  16.238  0.00  0.00    +0.000 NA
ATOM     17  C   UNL     1      50.500   2.004  16.837  0.00  0.00    +0.000 A 
ATOM     18  C   UNL     1      50.747   3.001  17.769  0.00  0.00    +0.000 A 
ENDBRANCH  12  13
ENDBRANCH  11  12
ENDBRANCH   8  11
ENDBRANCH   7   8
ENDBRANCH   1   7
BRANCH   4  19
ATOM     19  C   UNL     1      47.816   7.724  11.936  0.00  0.00    +0.000 C 
BRANCH  19  20
ATOM     20  N   UNL     1      47.066   6.512  11.736  0.00  0.00    +0.000 N 
ATOM     21  C   UNL     1      45.707   6.483  11.875  0.00  0.00    +0.000 C 
ATOM     22  O   UNL     1      45.060   7.492  12.141  0.00  0.00    +0.000 OA
ATOM     23  H   UNL     1      47.593   5.645  11.691  0.00  0.00    +0.000 HD
BRANCH  21  24
ATOM     24  C   UNL     1      45.055   5.193  11.626  0.00  0.00    +0.000 A 
ATOM     25  C   UNL     1      44.358   4.572  12.652  0.00  0.00    +0.000 A 
ATOM     26  S   UNL     1      43.617   3.109  12.187  0.00  0.00    +0.000 S 
ATOM     27  C   UNL     1      44.243   3.230  10.609  0.00  0.00    +0.000 A 
ATOM     28  N   UNL     1      43.995   2.263   9.685  0.00  0.00    +0.000 NA
ATOM     29  C   UNL     1      44.557   2.463   8.540  0.00  0.00    +0.000 A 
ATOM     30  N   UNL     1      45.344   3.542   8.234  0.00  0.00    +0.000 N 
ATOM     31  C   UNL     1      45.596   4.558   9.125  0.00  0.00    +0.000 A 
ATOM     32  O   UNL     1      46.264   5.533   8.800  0.00  0.00    +0.000 OA
ATOM     33  C   UNL     1      44.995   4.378  10.434  0.00  0.00    +0.000 A 
ATOM     34  H   UNL     1      45.747   3.646   7.315  0.00  0.00    +0.000 HD
ENDBRANCH  21  24
ENDBRANCH  19  20
ENDBRANCH   4  19
TORSDOF 8
ENDMDL
MODEL 7
REMARK VINA RESULT:    -6.982      3.027      3.975
REMARK INTER + INTRA:         -11.762
REMARK INTER:                 -10.682
REMARK INTRA:                  -1.080
REMARK UNBOUND:                -1.515
REMARK  Name = 
REMARK  10 active torsions:
REMARK  status: ('A' for Active; 'I' for Inactive)
REMARK    1  A    between atoms: C_1  and  C_2
REMARK    2  A    between atoms: C_2  and  C_3
REMARK    3  A    between atoms: C_2  and  N_10
REMARK    4  A    between atoms: C_3  and  C_4
REMARK    5  A    between atoms: N_10  and  C_11
REMARK    6  A    between atoms: N_10  and  C_12
REMARK    7  A    between atoms: C_12  and  C_13
REMARK    8  A    between atoms: C_16  and  C_17
REMARK    9  A    between atoms: C_17  and  N_18
REMARK   10  A    between atoms: C_19  and  C_21
REMARK                            x       y       z     vdW  Elec       q    Type
REMARK                         _______ _______ _______ _____ _____    ______ ____
ROOT
ATOM      1  C   UNL     1      47.094   5.633  13.280  0.00  0.00    +0.000 A 
ATOM      2  C   UNL     1      46.684   4.447  13.893  0.00  0.00    +0.000 A 
ATOM      3  C   UNL     1      47.007   4.120  15.202  0.00  0.00    +0.000 A 
ATOM      4  C   UNL     1      47.825   4.967  15.936  0.00  0.00    +0.000 A 
ATOM      5  C   UNL     1      48.316   6.128  15.324  0.00  0.00    +0.000 A 
ATOM      6  C   UNL     1      47.943   6.467  14.013  0.00  0.00    +0.000 A 
ENDROOT
BRANCH   1   7
ATOM      7  C   UNL     1      46.679   5.961  11.854  0.00  0.00    +0.000 C 
BRANCH   7   8
ATOM      8  N   UNL     1      45.223   6.055  11.566  0.00  0.00    +0.000 NA
ATOM      9  C   UNL     1      44.593   6.934  12.561  0.00  0.00    +0.000 C 
BRANCH   8  11
ATOM     10  C   UNL     1      43.305   4.616  12.343  0.00  0.00    +0.000 C 
ATOM     11  C   UNL     1      44.504   4.757  11.381  0.00  0.00    +0.000 C 
BRANCH  11  12
ATOM     12  C   UNL     1      44.001   4.539   9.907  0.00  0.00    +0.000 C 
BRANCH  12  13
ATOM     13  C   UNL     1      44.911   3.684   9.043  0.00  0.00    +0.000 A 
ATOM     14  C   UNL     1      44.929   2.299   9.205  0.00  0.00    +0.000 A 
ATOM     15  C   UNL     1      45.823   1.548   8.458  0.00  0.00    +0.000 A 
ATOM     16  N   UNL     1      46.687   2.070   7.557  0.00  0.00    +0.000 NA
ATOM     17  C   UNL     1      46.634   3.398   7.388  0.00  0.00    +0.000 A 
ATOM     18  C   UNL     1      45.771   4.234   8.081  0.00  0.00    +0.000 A 
ENDBRANCH  12  13
ENDBRANCH  11  12
ENDBRANCH   8  11
ENDBRANCH   7   8
ENDBRANCH   1   7
BRANCH   4  19
ATOM     19  C   UNL     1      48.244   4.551  17.315  0.00  0.00    +0.000 C 
BRANCH  19  20
ATOM     20  N   UNL     1      49.628   4.155  17.300  0.00  0.00    +0.000 N 
ATOM     21  C   UNL     1      50.439   4.356  18.381  0.00  0.00    +0.000 C 
ATOM     22  O   UNL     1      50.020   4.848  19.425  0.00  0.00    +0.000 OA
ATOM     23  H   UNL     1      50.029   3.913  16.399  0.00  0.00    +0.000 HD
BRANCH  21  24
ATOM     24  C   UNL     1      51.824   3.891  18.250  0.00  0.00    +0.000 A 
ATOM     25  C   UNL     1      52.865   4.764  18.527  0.00  0.00    +0.000 A 
ATOM     26  S   UNL     1      54.409   4.056  18.377  0.00  0.00    +0.000 S 
ATOM     27  C   UNL     1      53.740   2.570  17.889  0.00  0.00    +0.000 A 
ATOM     28  N   UNL     1      54.540   1.515  17.576  0.00  0.00    +0.000 NA
ATOM     29  C   UNL     1      53.905   0.460  17.190  0.00  0.00    +0.000 A 
ATOM     30  N   UNL     1      52.542   0.362  17.088  0.00  0.00    +0.000 N 
ATOM     31  C   UNL     1      51.693   1.391  17.422  0.00  0.00    +0.000 A 
ATOM     32  O   UNL     1      50.477   1.251  17.366  0.00  0.00    +0.000 OA
ATOM     33  C   UNL     1      52.358   2.607  17.854  0.00  0.00    +0.000 A 
ATOM     34  H   UNL     1      52.104  -0.496  16.789  0.00  0.00    +0.000 HD
ENDBRANCH  21  24
ENDBRANCH  19  20
ENDBRANCH   4  19
TORSDOF 8
ENDMDL
MODEL 8
REMARK VINA RESULT:    -6.926      2.226      2.841
REMARK INTER + INTRA:         -11.680
REMARK INTER:                 -10.605
REMARK INTRA:                  -1.076
REMARK UNBOUND:                -1.515
REMARK  Name = 
REMARK  10 active torsions:
REMARK  status: ('A' for Active; 'I' for Inactive)
REMARK    1  A    between atoms: C_1  and  C_2
REMARK    2  A    between atoms: C_2  and  C_3
REMARK    3  A    between atoms: C_2  and  N_10
REMARK    4  A    between atoms: C_3  and  C_4
REMARK    5  A    between atoms: N_10  and  C_11
REMARK    6  A    between atoms: N_10  and  C_12
REMARK    7  A    between atoms: C_12  and  C_13
REMARK    8  A    between atoms: C_16  and  C_17
REMARK    9  A    between atoms: C_17  and  N_18
REMARK   10  A    between atoms: C_19  and  C_21
REMARK                            x       y       z     vdW  Elec       q    Type
REMARK                         _______ _______ _______ _____ _____    ______ ____
ROOT
ATOM      1  C   UNL     1      46.469   6.008  12.621  0.00  0.00    +0.000 A 
ATOM      2  C   UNL     1      47.149   5.975  13.840  0.00  0.00    +0.000 A 
ATOM      3  C   UNL     1      48.274   6.743  14.101  0.00  0.00    +0.000 A 
ATOM      4  C   UNL     1      48.802   7.545  13.099  0.00  0.00    +0.000 A 
ATOM      5  C   UNL     1      48.186   7.543  11.839  0.00  0.00    +0.000 A 
ATOM      6  C   UNL     1      47.021   6.794  11.606  0.00  0.00    +0.000 A 
ENDROOT
BRANCH   1   7
ATOM      7  C   UNL     1      45.216   5.174  12.401  0.00  0.00    +0.000 C 
BRANCH   7   8
ATOM      8  N   UNL     1      44.704   5.056  11.010  0.00  0.00    +0.000 NA
ATOM      9  C   UNL     1      43.348   5.618  10.949  0.00  0.00    +0.000 C 
BRANCH   8  11
ATOM     10  C   UNL     1      43.745   2.728  10.910  0.00  0.00    +0.000 C 
ATOM     11  C   UNL     1      44.815   3.705  10.380  0.00  0.00    +0.000 C 
BRANCH  11  12
ATOM     12  C   UNL     1      44.728   3.751   8.810  0.00  0.00    +0.000 C 
BRANCH  12  13
ATOM     13  C   UNL     1      45.790   2.939   8.090  0.00  0.00    +0.000 A 
ATOM     14  C   UNL     1      45.868   1.561   8.286  0.00  0.00    +0.000 A 
ATOM     15  C   UNL     1      46.893   0.853   7.676  0.00  0.00    +0.000 A 
ATOM     16  N   UNL     1      47.832   1.413   6.879  0.00  0.00    +0.000 NA
ATOM     17  C   UNL     1      47.724   2.732   6.673  0.00  0.00    +0.000 A 
ATOM     18  C   UNL     1      46.731   3.525   7.230  0.00  0.00    +0.000 A 
ENDBRANCH  12  13
ENDBRANCH  11  12
ENDBRANCH   8  11
ENDBRANCH   7   8
ENDBRANCH   1   7
BRANCH   4  19
ATOM     19  C   UNL     1      50.074   8.294  13.365  0.00  0.00    +0.000 C 
BRANCH  19  20
ATOM     20  N   UNL     1      50.961   7.475  14.148  0.00  0.00    +0.000 N 
ATOM     21  C   UNL     1      51.540   7.944  15.293  0.00  0.00    +0.000 C 
ATOM     22  O   UNL     1      51.303   9.067  15.728  0.00  0.00    +0.000 OA
ATOM     23  H   UNL     1      51.302   6.621  13.716  0.00  0.00    +0.000 HD
BRANCH  21  24
ATOM     24  C   UNL     1      52.410   7.007  16.012  0.00  0.00    +0.000 A 
ATOM     25  C   UNL     1      53.785   7.195  15.984  0.00  0.00    +0.000 A 
ATOM     26  S   UNL     1      54.649   6.053  16.909  0.00  0.00    +0.000 S 
ATOM     27  C   UNL     1      53.219   5.238  17.340  0.00  0.00    +0.000 A 
ATOM     28  N   UNL     1      53.260   4.127  18.124  0.00  0.00    +0.000 NA
ATOM     29  C   UNL     1      52.108   3.589  18.347  0.00  0.00    +0.000 A 
ATOM     30  N   UNL     1      50.917   4.061  17.859  0.00  0.00    +0.000 N 
ATOM     31  C   UNL     1      50.825   5.196  17.089  0.00  0.00    +0.000 A 
ATOM     32  O   UNL     1      49.737   5.617  16.710  0.00  0.00    +0.000 OA
ATOM     33  C   UNL     1      52.095   5.836  16.799  0.00  0.00    +0.000 A 
ATOM     34  H   UNL     1      50.047   3.600  18.078  0.00  0.00    +0.000 HD
ENDBRANCH  21  24
ENDBRANCH  19  20
ENDBRANCH   4  19
TORSDOF 8
ENDMDL
MODEL 9
REMARK VINA RESULT:    -6.801      3.274      8.032
REMARK INTER + INTRA:         -11.496
REMARK INTER:                  -9.065
REMARK INTRA:                  -2.432
REMARK UNBOUND:                -1.515
REMARK  Name = 
REMARK  10 active torsions:
REMARK  status: ('A' for Active; 'I' for Inactive)
REMARK    1  A    between atoms: C_1  and  C_2
REMARK    2  A    between atoms: C_2  and  C_3
REMARK    3  A    between atoms: C_2  and  N_10
REMARK    4  A    between atoms: C_3  and  C_4
REMARK    5  A    between atoms: N_10  and  C_11
REMARK    6  A    between atoms: N_10  and  C_12
REMARK    7  A    between atoms: C_12  and  C_13
REMARK    8  A    between atoms: C_16  and  C_17
REMARK    9  A    between atoms: C_17  and  N_18
REMARK   10  A    between atoms: C_19  and  C_21
REMARK                            x       y       z     vdW  Elec       q    Type
REMARK                         _______ _______ _______ _____ _____    ______ ____
ROOT
ATOM      1  C   UNL     1      49.647   7.835  18.262  0.00  0.00    +0.000 A 
ATOM      2  C   UNL     1      48.645   8.380  17.457  0.00  0.00    +0.000 A 
ATOM      3  C   UNL     1      48.533   8.111  16.101  0.00  0.00    +0.000 A 
ATOM      4  C   UNL     1      49.485   7.315  15.481  0.00  0.00    +0.000 A 
ATOM      5  C   UNL     1      50.547   6.813  16.246  0.00  0.00    +0.000 A 
ATOM      6  C   UNL     1      50.620   7.057  17.627  0.00  0.00    +0.000 A 
ENDROOT
BRANCH   1   7
ATOM      7  C   UNL     1      49.701   8.131  19.753  0.00  0.00    +0.000 C 
BRANCH   7   8
ATOM      8  N   UNL     1      48.599   7.600  20.600  0.00  0.00    +0.000 NA
ATOM      9  C   UNL     1      48.748   8.124  21.964  0.00  0.00    +0.000 C 
BRANCH   8  11
ATOM     10  C   UNL     1      47.892   5.563  21.902  0.00  0.00    +0.000 C 
ATOM     11  C   UNL     1      48.385   6.122  20.551  0.00  0.00    +0.000 C 
BRANCH  11  12
ATOM     12  C   UNL     1      47.381   5.683  19.423  0.00  0.00    +0.000 C 
BRANCH  12  13
ATOM     13  C   UNL     1      47.935   4.672  18.435  0.00  0.00    +0.000 A 
ATOM     14  C   UNL     1      47.225   4.369  17.273  0.00  0.00    +0.000 A 
ATOM     15  C   UNL     1      47.713   3.387  16.425  0.00  0.00    +0.000 A 
ATOM     16  N   UNL     1      48.858   2.699  16.640  0.00  0.00    +0.000 NA
ATOM     17  C   UNL     1      49.547   3.026  17.743  0.00  0.00    +0.000 A 
ATOM     18  C   UNL     1      49.146   3.997  18.648  0.00  0.00    +0.000 A 
ENDBRANCH  12  13
ENDBRANCH  11  12
ENDBRANCH   8  11
ENDBRANCH   7   8
ENDBRANCH   1   7
BRANCH   4  19
ATOM     19  C   UNL     1      49.405   7.114  13.997  0.00  0.00    +0.000 C 
BRANCH  19  20
ATOM     20  N   UNL     1      48.071   6.716  13.634  0.00  0.00    +0.000 N 
ATOM     21  C   UNL     1      47.603   6.867  12.360  0.00  0.00    +0.000 C 
ATOM     22  O   UNL     1      48.306   7.314  11.458  0.00  0.00    +0.000 OA
ATOM     23  H   UNL     1      47.428   6.512  14.394  0.00  0.00    +0.000 HD
BRANCH  21  24
ATOM     24  C   UNL     1      46.233   6.405  12.111  0.00  0.00    +0.000 A 
ATOM     25  C   UNL     1      45.288   7.301  11.633  0.00  0.00    +0.000 A 
ATOM     26  S   UNL     1      43.762   6.596  11.349  0.00  0.00    +0.000 S 
ATOM     27  C   UNL     1      44.298   5.079  11.901  0.00  0.00    +0.000 A 
ATOM     28  N   UNL     1      43.453   4.013  11.941  0.00  0.00    +0.000 NA
ATOM     29  C   UNL     1      43.979   2.933  12.412  0.00  0.00    +0.000 A 
ATOM     30  N   UNL     1      45.274   2.819  12.847  0.00  0.00    +0.000 N 
ATOM     31  C   UNL     1      46.171   3.860  12.797  0.00  0.00    +0.000 A 
ATOM     32  O   UNL     1      47.335   3.708  13.150  0.00  0.00    +0.000 OA
ATOM     33  C   UNL     1      45.627   5.104  12.284  0.00  0.00    +0.000 A 
ATOM     34  H   UNL     1      45.629   1.942  13.196  0.00  0.00    +0.000 HD
ENDBRANCH  21  24
ENDBRANCH  19  20
ENDBRANCH   4  19
TORSDOF 8
ENDMDL
