MODEL 1
REMARK VINA RESULT:    -8.431      0.000      0.000
REMARK INTER + INTRA:         -12.337
REMARK INTER:                 -11.635
REMARK INTRA:                  -0.702
REMARK UNBOUND:                -0.702
REMARK  Name = 
REMARK  7 active torsions:
REMARK  status: ('A' for Active; 'I' for Inactive)
REMARK    1  A    between atoms: C_2  and  C_4
REMARK    2  A    between atoms: C_7  and  O_8
REMARK    3  A    between atoms: O_8  and  C_9
REMARK    4  A    between atoms: C_9  and  C_10
REMARK    5  A    between atoms: C_10  and  O_11
REMARK    6  A    between atoms: C_10  and  C_12
REMARK    7  A    between atoms: C_16  and  C_17
REMARK                            x       y       z     vdW  Elec       q    Type
REMARK                         _______ _______ _______ _____ _____    ______ ____
ROOT
ATOM      1  C   UNL     1      43.367   4.747  12.527  0.00  0.00    +0.000 C 
ENDROOT
BRANCH   1   2
ATOM      2  C   UNL     1      44.751   5.268  12.863  0.00  0.00    +0.000 A 
ATOM      3  C   UNL     1      45.678   4.467  13.536  0.00  0.00    +0.000 A 
ATOM      4  C   UNL     1      46.962   4.946  13.785  0.00  0.00    +0.000 A 
ATOM      5  C   UNL     1      47.329   6.239  13.390  0.00  0.00    +0.000 A 
ATOM      6  C   UNL     1      46.426   7.085  12.729  0.00  0.00    +0.000 A 
ATOM      7  C   UNL     1      45.149   6.561  12.465  0.00  0.00    +0.000 A 
BRANCH   6   8
ATOM      8  C   UNL     1      46.819   8.439  12.237  0.00  0.00    +0.000 A 
ATOM      9  C   UNL     1      45.835   9.455  12.223  0.00  0.00    +0.000 A 
ATOM     10  C   UNL     1      46.132  10.770  11.859  0.00  0.00    +0.000 A 
ATOM     11  C   UNL     1      47.435  11.118  11.528  0.00  0.00    +0.000 A 
ATOM     12  C   UNL     1      48.431  10.142  11.516  0.00  0.00    +0.000 A 
ATOM     13 CL   UNL     1      50.033  10.672  11.120  0.00  0.00    +0.000 Cl
ATOM     14  C   UNL     1      48.128   8.802  11.831  0.00  0.00    +0.000 A 
ATOM     15 CL   UNL     1      49.380   7.601  11.640  0.00  0.00    +0.000 Cl
ENDBRANCH   6   8
ENDBRANCH   1   2
BRANCH   1  16
ATOM     16  O   UNL     1      42.489   5.861  12.343  0.00  0.00    +0.000 OA
ATOM     17  H   UNL     1      42.572   6.162  11.423  0.00  0.00    +0.000 HD
ENDBRANCH   1  16
BRANCH   1  18
ATOM     18  C   UNL     1      43.413   3.853  11.275  0.00  0.00    +0.000 C 
BRANCH  18  19
ATOM     19  O   UNL     1      43.699   4.622  10.104  0.00  0.00    +0.000 OA
BRANCH  19  23
ATOM     20  C   UNL     1      46.332   2.499   7.825  0.00  0.00    +0.000 A 
ATOM     21  C   UNL     1      45.462   1.907   8.714  0.00  0.00    +0.000 A 
ATOM     22  N   UNL     1      44.550   2.593   9.440  0.00  0.00    +0.000 NA
ATOM     23  C   UNL     1      44.539   3.921   9.264  0.00  0.00    +0.000 A 
ATOM     24  N   UNL     1      45.318   4.597   8.398  0.00  0.00    +0.000 NA
ATOM     25  C   UNL     1      46.208   3.864   7.698  0.00  0.00    +0.000 A 
BRANCH  20  27
ATOM     26  N   UNL     1      48.389   2.536   6.523  0.00  0.00    +0.000 N 
ATOM     27  C   UNL     1      47.395   1.796   7.102  0.00  0.00    +0.000 C 
ATOM     28  O   UNL     1      47.409   0.573   7.032  0.00  0.00    +0.000 OA
ATOM     29  H   UNL     1      49.138   2.011   6.087  0.00  0.00    +0.000 HD
ATOM     30  H   UNL     1      48.567   3.508   6.735  0.00  0.00    +0.000 HD
ENDBRANCH  20  27
ENDBRANCH  19  23
ENDBRANCH  18  19
ENDBRANCH   1  18
TORSDOF 7
ENDMDL
MODEL 2
REMARK VINA RESULT:    -8.415      2.233      4.132
REMARK INTER + INTRA:         -12.315
REMARK INTER:                 -11.486
REMARK INTRA:                  -0.829
REMARK UNBOUND:                -0.702
REMARK  Name = 
REMARK  7 active torsions:
REMARK  status: ('A' for Active; 'I' for Inactive)
REMARK    1  A    between atoms: C_2  and  C_4
REMARK    2  A    between atoms: C_7  and  O_8
REMARK    3  A    between atoms: O_8  and  C_9
REMARK    4  A    between atoms: C_9  and  C_10
REMARK    5  A    between atoms: C_10  and  O_11
REMARK    6  A    between atoms: C_10  and  C_12
REMARK    7  A    between atoms: C_16  and  C_17
REMARK                            x       y       z     vdW  Elec       q    Type
REMARK                         _______ _______ _______ _____ _____    ______ ____
ROOT
ATOM      1  C   UNL     1      43.789   5.629  11.849  0.00  0.00    +0.000 C 
ENDROOT
BRANCH   1   2
ATOM      2  C   UNL     1      45.248   5.858  12.198  0.00  0.00    +0.000 A 
ATOM      3  C   UNL     1      46.084   6.588  11.350  0.00  0.00    +0.000 A 
ATOM      4  C   UNL     1      47.406   6.833  11.716  0.00  0.00    +0.000 A 
ATOM      5  C   UNL     1      47.916   6.329  12.919  0.00  0.00    +0.000 A 
ATOM      6  C   UNL     1      47.118   5.574  13.793  0.00  0.00    +0.000 A 
ATOM      7  C   UNL     1      45.782   5.372  13.409  0.00  0.00    +0.000 A 
BRANCH   6   8
ATOM      8  C   UNL     1      47.622   5.090  15.112  0.00  0.00    +0.000 A 
ATOM      9  C   UNL     1      47.308   3.767  15.501  0.00  0.00    +0.000 A 
ATOM     10  C   UNL     1      47.805   3.201  16.676  0.00  0.00    +0.000 A 
ATOM     11  C   UNL     1      48.662   3.933  17.487  0.00  0.00    +0.000 A 
ATOM     12  C   UNL     1      48.986   5.247  17.146  0.00  0.00    +0.000 A 
ATOM     13 CL   UNL     1      50.086   6.075  18.199  0.00  0.00    +0.000 Cl
ATOM     14  C   UNL     1      48.445   5.842  15.988  0.00  0.00    +0.000 A 
ATOM     15 CL   UNL     1      48.757   7.535  15.703  0.00  0.00    +0.000 Cl
ENDBRANCH   6   8
ENDBRANCH   1   2
BRANCH   1  16
ATOM     16  O   UNL     1      43.331   6.722  11.051  0.00  0.00    +0.000 OA
ATOM     17  H   UNL     1      43.123   7.463  11.643  0.00  0.00    +0.000 HD
ENDBRANCH   1  16
BRANCH   1  18
ATOM     18  C   UNL     1      43.611   4.285  11.119  0.00  0.00    +0.000 C 
BRANCH  18  19
ATOM     19  O   UNL     1      43.561   4.471   9.702  0.00  0.00    +0.000 OA
BRANCH  19  23
ATOM     20  C   UNL     1      46.553   2.568   7.688  0.00  0.00    +0.000 A 
ATOM     21  C   UNL     1      46.362   3.930   7.635  0.00  0.00    +0.000 A 
ATOM     22  N   UNL     1      45.406   4.582   8.336  0.00  0.00    +0.000 NA
ATOM     23  C   UNL     1      44.613   3.816   9.097  0.00  0.00    +0.000 A 
ATOM     24  N   UNL     1      44.734   2.483   9.250  0.00  0.00    +0.000 NA
ATOM     25  C   UNL     1      45.705   1.885   8.530  0.00  0.00    +0.000 A 
BRANCH  20  27
ATOM     26  N   UNL     1      48.581   2.501   6.342  0.00  0.00    +0.000 N 
ATOM     27  C   UNL     1      47.513   1.826   6.866  0.00  0.00    +0.000 C 
ATOM     28  O   UNL     1      47.377   0.625   6.666  0.00  0.00    +0.000 OA
ATOM     29  H   UNL     1      49.254   1.941   5.832  0.00  0.00    +0.000 HD
ATOM     30  H   UNL     1      48.878   3.416   6.650  0.00  0.00    +0.000 HD
ENDBRANCH  20  27
ENDBRANCH  19  23
ENDBRANCH  18  19
ENDBRANCH   1  18
TORSDOF 7
ENDMDL
MODEL 3
REMARK VINA RESULT:    -8.377      1.265      1.848
REMARK INTER + INTRA:         -12.261
REMARK INTER:                 -11.441
REMARK INTRA:                  -0.820
REMARK UNBOUND:                -0.702
REMARK  Name = 
REMARK  7 active torsions:
REMARK  status: ('A' for Active; 'I' for Inactive)
REMARK    1  A    between atoms: C_2  and  C_4
REMARK    2  A    between atoms: C_7  and  O_8
REMARK    3  A    between atoms: O_8  and  C_9
REMARK    4  A    between atoms: C_9  and  C_10
REMARK    5  A    between atoms: C_10  and  O_11
REMARK    6  A    between atoms: C_10  and  C_12
REMARK    7  A    between atoms: C_16  and  C_17
REMARK                            x       y       z     vdW  Elec       q    Type
REMARK                         _______ _______ _______ _____ _____    ______ ____
ROOT
ATOM      1  C   UNL     1      43.296   4.963  12.215  0.00  0.00    +0.000 C 
ENDROOT
BRANCH   1   2
ATOM      2  C   UNL     1      44.728   5.186  12.666  0.00  0.00    +0.000 A 
ATOM      3  C   UNL     1      45.425   4.197  13.363  0.00  0.00    +0.000 A 
ATOM      4  C   UNL     1      46.757   4.401  13.719  0.00  0.00    +0.000 A 
ATOM      5  C   UNL     1      47.399   5.606  13.408  0.00  0.00    +0.000 A 
ATOM      6  C   UNL     1      46.733   6.635  12.726  0.00  0.00    +0.000 A 
ATOM      7  C   UNL     1      45.401   6.385  12.353  0.00  0.00    +0.000 A 
BRANCH   6   8
ATOM      8  C   UNL     1      47.421   7.897  12.322  0.00  0.00    +0.000 A 
ATOM      9  C   UNL     1      48.792   7.829  11.981  0.00  0.00    +0.000 A 
ATOM     10  C   UNL     1      49.495   8.940  11.512  0.00  0.00    +0.000 A 
ATOM     11  C   UNL     1      48.838  10.151  11.337  0.00  0.00    +0.000 A 
ATOM     12  C   UNL     1      47.490  10.263  11.674  0.00  0.00    +0.000 A 
ATOM     13 CL   UNL     1      46.744  11.802  11.394  0.00  0.00    +0.000 Cl
ATOM     14  C   UNL     1      46.787   9.159  12.198  0.00  0.00    +0.000 A 
ATOM     15 CL   UNL     1      45.150   9.405  12.752  0.00  0.00    +0.000 Cl
ENDBRANCH   6   8
ENDBRANCH   1   2
BRANCH   1  16
ATOM     16  O   UNL     1      42.723   6.225  11.866  0.00  0.00    +0.000 OA
ATOM     17  H   UNL     1      42.812   6.820  12.628  0.00  0.00    +0.000 HD
ENDBRANCH   1  16
BRANCH   1  18
ATOM     18  C   UNL     1      43.248   3.976  11.035  0.00  0.00    +0.000 C 
BRANCH  18  19
ATOM     19  O   UNL     1      43.668   4.605   9.821  0.00  0.00    +0.000 OA
BRANCH  19  23
ATOM     20  C   UNL     1      46.464   2.426   7.804  0.00  0.00    +0.000 A 
ATOM     21  C   UNL     1      46.348   3.793   7.683  0.00  0.00    +0.000 A 
ATOM     22  N   UNL     1      45.460   4.535   8.382  0.00  0.00    +0.000 NA
ATOM     23  C   UNL     1      44.656   3.858   9.214  0.00  0.00    +0.000 A 
ATOM     24  N   UNL     1      44.707   2.530   9.435  0.00  0.00    +0.000 NA
ATOM     25  C   UNL     1      45.614   1.839   8.714  0.00  0.00    +0.000 A 
BRANCH  20  27
ATOM     26  N   UNL     1      48.470   2.153   6.452  0.00  0.00    +0.000 N 
ATOM     27  C   UNL     1      47.346   1.586   6.988  0.00  0.00    +0.000 C 
ATOM     28  O   UNL     1      47.098   0.401   6.805  0.00  0.00    +0.000 OA
ATOM     29  H   UNL     1      49.086   1.525   5.947  0.00  0.00    +0.000 HD
ATOM     30  H   UNL     1      48.853   3.039   6.747  0.00  0.00    +0.000 HD
ENDBRANCH  20  27
ENDBRANCH  19  23
ENDBRANCH  18  19
ENDBRANCH   1  18
TORSDOF 7
ENDMDL
MODEL 4
REMARK VINA RESULT:    -8.040      2.748      3.974
REMARK INTER + INTRA:         -11.797
REMARK INTER:                 -11.052
REMARK INTRA:                  -0.744
REMARK UNBOUND:                -0.702
REMARK  Name = 
REMARK  7 active torsions:
REMARK  status: ('A' for Active; 'I' for Inactive)
REMARK    1  A    between atoms: C_2  and  C_4
REMARK    2  A    between atoms: C_7  and  O_8
REMARK    3  A    between atoms: O_8  and  C_9
REMARK    4  A    between atoms: C_9  and  C_10
REMARK    5  A    between atoms: C_10  and  O_11
REMARK    6  A    between atoms: C_10  and  C_12
REMARK    7  A    between atoms: C_16  and  C_17
REMARK                            x       y       z     vdW  Elec       q    Type
REMARK                         _______ _______ _______ _____ _____    ______ ____
ROOT
ATOM      1  C   UNL     1      44.012   4.832  12.467  0.00  0.00    +0.000 C 
ENDROOT
BRANCH   1   2
ATOM      2  C   UNL     1      45.389   5.464  12.538  0.00  0.00    +0.000 A 
ATOM      3  C   UNL     1      45.931   6.132  11.437  0.00  0.00    +0.000 A 
ATOM      4  C   UNL     1      47.175   6.753  11.541  0.00  0.00    +0.000 A 
ATOM      5  C   UNL     1      47.903   6.692  12.736  0.00  0.00    +0.000 A 
ATOM      6  C   UNL     1      47.406   6.016  13.861  0.00  0.00    +0.000 A 
ATOM      7  C   UNL     1      46.137   5.427  13.733  0.00  0.00    +0.000 A 
BRANCH   6   8
ATOM      8  C   UNL     1      48.134   5.999  15.165  0.00  0.00    +0.000 A 
ATOM      9  C   UNL     1      48.826   7.169  15.557  0.00  0.00    +0.000 A 
ATOM     10  C   UNL     1      49.463   7.274  16.795  0.00  0.00    +0.000 A 
ATOM     11  C   UNL     1      49.400   6.220  17.696  0.00  0.00    +0.000 A 
ATOM     12  C   UNL     1      48.738   5.044  17.343  0.00  0.00    +0.000 A 
ATOM     13 CL   UNL     1      48.683   3.793  18.541  0.00  0.00    +0.000 Cl
ATOM     14  C   UNL     1      48.138   4.911  16.074  0.00  0.00    +0.000 A 
ATOM     15 CL   UNL     1      47.469   3.361  15.631  0.00  0.00    +0.000 Cl
ENDBRANCH   6   8
ENDBRANCH   1   2
BRANCH   1  16
ATOM     16  O   UNL     1      43.107   5.614  13.250  0.00  0.00    +0.000 OA
ATOM     17  H   UNL     1      42.611   5.013  13.829  0.00  0.00    +0.000 HD
ENDBRANCH   1  16
BRANCH   1  18
ATOM     18  C   UNL     1      43.542   4.720  11.006  0.00  0.00    +0.000 C 
BRANCH  18  19
ATOM     19  O   UNL     1      43.477   3.353  10.589  0.00  0.00    +0.000 OA
BRANCH  19  23
ATOM     20  C   UNL     1      46.240   2.648   7.673  0.00  0.00    +0.000 A 
ATOM     21  C   UNL     1      45.691   1.647   8.444  0.00  0.00    +0.000 A 
ATOM     22  N   UNL     1      44.738   1.859   9.379  0.00  0.00    +0.000 NA
ATOM     23  C   UNL     1      44.349   3.130   9.544  0.00  0.00    +0.000 A 
ATOM     24  N   UNL     1      44.793   4.179   8.823  0.00  0.00    +0.000 NA
ATOM     25  C   UNL     1      45.741   3.911   7.901  0.00  0.00    +0.000 A 
BRANCH  20  27
ATOM     26  N   UNL     1      47.312   3.160   5.548  0.00  0.00    +0.000 N 
ATOM     27  C   UNL     1      47.342   2.463   6.725  0.00  0.00    +0.000 C 
ATOM     28  O   UNL     1      48.279   1.719   6.984  0.00  0.00    +0.000 OA
ATOM     29  H   UNL     1      48.121   3.053   4.948  0.00  0.00    +0.000 HD
ATOM     30  H   UNL     1      46.707   3.949   5.373  0.00  0.00    +0.000 HD
ENDBRANCH  20  27
ENDBRANCH  19  23
ENDBRANCH  18  19
ENDBRANCH   1  18
TORSDOF 7
ENDMDL
MODEL 5
REMARK VINA RESULT:    -7.752      1.984      2.728
REMARK INTER + INTRA:         -11.399
REMARK INTER:                 -11.000
REMARK INTRA:                  -0.399
REMARK UNBOUND:                -0.702
REMARK  Name = 
REMARK  7 active torsions:
REMARK  status: ('A' for Active; 'I' for Inactive)
REMARK    1  A    between atoms: C_2  and  C_4
REMARK    2  A    between atoms: C_7  and  O_8
REMARK    3  A    between atoms: O_8  and  C_9
REMARK    4  A    between atoms: C_9  and  C_10
REMARK    5  A    between atoms: C_10  and  O_11
REMARK    6  A    between atoms: C_10  and  C_12
REMARK    7  A    between atoms: C_16  and  C_17
REMARK                            x       y       z     vdW  Elec       q    Type
REMARK                         _______ _______ _______ _____ _____    ______ ____
ROOT
ATOM      1  C   UNL     1      44.473   3.683  12.296  0.00  0.00    +0.000 C 
ENDROOT
BRANCH   1   2
ATOM      2  C   UNL     1      44.891   5.133  12.132  0.00  0.00    +0.000 A 
ATOM      3  C   UNL     1      43.951   6.124  11.841  0.00  0.00    +0.000 A 
ATOM      4  C   UNL     1      44.347   7.457  11.749  0.00  0.00    +0.000 A 
ATOM      5  C   UNL     1      45.692   7.812  11.920  0.00  0.00    +0.000 A 
ATOM      6  C   UNL     1      46.674   6.848  12.194  0.00  0.00    +0.000 A 
ATOM      7  C   UNL     1      46.236   5.518  12.311  0.00  0.00    +0.000 A 
BRANCH   6   8
ATOM      8  C   UNL     1      48.098   7.214  12.450  0.00  0.00    +0.000 A 
ATOM      9  C   UNL     1      48.824   7.836  11.407  0.00  0.00    +0.000 A 
ATOM     10  C   UNL     1      50.133   8.288  11.582  0.00  0.00    +0.000 A 
ATOM     11  C   UNL     1      50.748   8.163  12.821  0.00  0.00    +0.000 A 
ATOM     12  C   UNL     1      50.071   7.543  13.871  0.00  0.00    +0.000 A 
ATOM     13 CL   UNL     1      50.904   7.456  15.389  0.00  0.00    +0.000 Cl
ATOM     14  C   UNL     1      48.769   7.036  13.686  0.00  0.00    +0.000 A 
ATOM     15 CL   UNL     1      48.039   6.129  14.987  0.00  0.00    +0.000 Cl
ENDBRANCH   6   8
ENDBRANCH   1   2
BRANCH   1  16
ATOM     16  O   UNL     1      43.588   3.584  13.414  0.00  0.00    +0.000 OA
ATOM     17  H   UNL     1      44.067   3.155  14.141  0.00  0.00    +0.000 HD
ENDBRANCH   1  16
BRANCH   1  18
ATOM     18  C   UNL     1      43.814   3.161  11.007  0.00  0.00    +0.000 C 
BRANCH  18  19
ATOM     19  O   UNL     1      44.086   4.027   9.902  0.00  0.00    +0.000 OA
BRANCH  19  23
ATOM     20  C   UNL     1      46.654   2.338   7.220  0.00  0.00    +0.000 A 
ATOM     21  C   UNL     1      46.344   3.680   7.220  0.00  0.00    +0.000 A 
ATOM     22  N   UNL     1      45.535   4.263   8.132  0.00  0.00    +0.000 NA
ATOM     23  C   UNL     1      45.013   3.449   9.059  0.00  0.00    +0.000 A 
ATOM     24  N   UNL     1      45.275   2.132   9.173  0.00  0.00    +0.000 NA
ATOM     25  C   UNL     1      46.091   1.602   8.239  0.00  0.00    +0.000 A 
BRANCH  20  27
ATOM     26  N   UNL     1      48.429   2.371   5.555  0.00  0.00    +0.000 N 
ATOM     27  C   UNL     1      47.446   1.662   6.188  0.00  0.00    +0.000 C 
ATOM     28  O   UNL     1      47.248   0.486   5.911  0.00  0.00    +0.000 OA
ATOM     29  H   UNL     1      48.995   1.851   4.894  0.00  0.00    +0.000 HD
ATOM     30  H   UNL     1      48.797   3.251   5.888  0.00  0.00    +0.000 HD
ENDBRANCH  20  27
ENDBRANCH  19  23
ENDBRANCH  18  19
ENDBRANCH   1  18
TORSDOF 7
ENDMDL
MODEL 6
REMARK VINA RESULT:    -7.670      4.649      7.616
REMARK INTER + INTRA:         -11.286
REMARK INTER:                 -10.184
REMARK INTRA:                  -1.101
REMARK UNBOUND:                -0.702
REMARK  Name = 
REMARK  7 active torsions:
REMARK  status: ('A' for Active; 'I' for Inactive)
REMARK    1  A    between atoms: C_2  and  C_4
REMARK    2  A    between atoms: C_7  and  O_8
REMARK    3  A    between atoms: O_8  and  C_9
REMARK    4  A    between atoms: C_9  and  C_10
REMARK    5  A    between atoms: C_10  and  O_11
REMARK    6  A    between atoms: C_10  and  C_12
REMARK    7  A    between atoms: C_16  and  C_17
REMARK                            x       y       z     vdW  Elec       q    Type
REMARK                         _______ _______ _______ _____ _____    ______ ____
ROOT
ATOM      1  C   UNL     1      47.787   8.797  13.754  0.00  0.00    +0.000 C 
ENDROOT
BRANCH   1   2
ATOM      2  C   UNL     1      46.558   8.502  12.916  0.00  0.00    +0.000 A 
ATOM      3  C   UNL     1      45.854   9.530  12.283  0.00  0.00    +0.000 A 
ATOM      4  C   UNL     1      44.760   9.231  11.473  0.00  0.00    +0.000 A 
ATOM      5  C   UNL     1      44.339   7.905  11.307  0.00  0.00    +0.000 A 
ATOM      6  C   UNL     1      45.004   6.842  11.939  0.00  0.00    +0.000 A 
ATOM      7  C   UNL     1      46.121   7.175  12.723  0.00  0.00    +0.000 A 
BRANCH   6   8
ATOM      8  C   UNL     1      44.615   5.418  11.718  0.00  0.00    +0.000 A 
ATOM      9  C   UNL     1      43.910   4.752  12.747  0.00  0.00    +0.000 A 
ATOM     10  C   UNL     1      43.433   3.448  12.595  0.00  0.00    +0.000 A 
ATOM     11  C   UNL     1      43.620   2.779  11.393  0.00  0.00    +0.000 A 
ATOM     12  C   UNL     1      44.323   3.396  10.358  0.00  0.00    +0.000 A 
ATOM     13 CL   UNL     1      44.482   2.499   8.884  0.00  0.00    +0.000 Cl
ATOM     14  C   UNL     1      44.853   4.692  10.523  0.00  0.00    +0.000 A 
ATOM     15 CL   UNL     1      45.859   5.344   9.254  0.00  0.00    +0.000 Cl
ENDBRANCH   6   8
ENDBRANCH   1   2
BRANCH   1  16
ATOM     16  O   UNL     1      47.368   9.170  15.069  0.00  0.00    +0.000 OA
ATOM     17  H   UNL     1      47.387  10.139  15.129  0.00  0.00    +0.000 HD
ENDBRANCH   1  16
BRANCH   1  18
ATOM     18  C   UNL     1      48.726   7.578  13.786  0.00  0.00    +0.000 C 
BRANCH  18  19
ATOM     19  O   UNL     1      49.439   7.510  15.024  0.00  0.00    +0.000 OA
BRANCH  19  23
ATOM     20  C   UNL     1      48.177   4.247  17.122  0.00  0.00    +0.000 A 
ATOM     21  C   UNL     1      47.685   4.576  15.878  0.00  0.00    +0.000 A 
ATOM     22  N   UNL     1      48.128   5.625  15.149  0.00  0.00    +0.000 NA
ATOM     23  C   UNL     1      49.088   6.369  15.715  0.00  0.00    +0.000 A 
ATOM     24  N   UNL     1      49.665   6.118  16.907  0.00  0.00    +0.000 NA
ATOM     25  C   UNL     1      49.187   5.058  17.590  0.00  0.00    +0.000 A 
BRANCH  20  27
ATOM     26  N   UNL     1      48.298   2.900  19.145  0.00  0.00    +0.000 N 
ATOM     27  C   UNL     1      47.648   3.180  17.975  0.00  0.00    +0.000 C 
ATOM     28  O   UNL     1      46.638   2.563  17.661  0.00  0.00    +0.000 OA
ATOM     29  H   UNL     1      47.866   2.198  19.736  0.00  0.00    +0.000 HD
ATOM     30  H   UNL     1      48.982   3.508  19.573  0.00  0.00    +0.000 HD
ENDBRANCH  20  27
ENDBRANCH  19  23
ENDBRANCH  18  19
ENDBRANCH   1  18
TORSDOF 7
ENDMDL
MODEL 7
REMARK VINA RESULT:    -7.522      5.639      7.115
REMARK INTER + INTRA:         -11.082
REMARK INTER:                 -10.253
REMARK INTRA:                  -0.829
REMARK UNBOUND:                -0.702
REMARK  Name = 
REMARK  7 active torsions:
REMARK  status: ('A' for Active; 'I' for Inactive)
REMARK    1  A    between atoms: C_2  and  C_4
REMARK    2  A    between atoms: C_7  and  O_8
REMARK    3  A    between atoms: O_8  and  C_9
REMARK    4  A    between atoms: C_9  and  C_10
REMARK    5  A    between atoms: C_10  and  O_11
REMARK    6  A    between atoms: C_10  and  C_12
REMARK    7  A    between atoms: C_16  and  C_17
REMARK                            x       y       z     vdW  Elec       q    Type
REMARK                         _______ _______ _______ _____ _____    ______ ____
ROOT
ATOM      1  C   UNL     1      47.646   3.412  17.035  0.00  0.00    +0.000 C 
ENDROOT
BRANCH   1   2
ATOM      2  C   UNL     1      48.430   4.276  18.006  0.00  0.00    +0.000 A 
ATOM      3  C   UNL     1      49.771   4.006  18.288  0.00  0.00    +0.000 A 
ATOM      4  C   UNL     1      50.487   4.845  19.141  0.00  0.00    +0.000 A 
ATOM      5  C   UNL     1      49.865   5.947  19.742  0.00  0.00    +0.000 A 
ATOM      6  C   UNL     1      48.515   6.245  19.502  0.00  0.00    +0.000 A 
ATOM      7  C   UNL     1      47.830   5.399  18.614  0.00  0.00    +0.000 A 
BRANCH   6   8
ATOM      8  C   UNL     1      47.854   7.454  20.076  0.00  0.00    +0.000 A 
ATOM      9  C   UNL     1      47.462   7.419  21.435  0.00  0.00    +0.000 A 
ATOM     10  C   UNL     1      46.914   8.530  22.078  0.00  0.00    +0.000 A 
ATOM     11  C   UNL     1      46.771   9.727  21.389  0.00  0.00    +0.000 A 
ATOM     12  C   UNL     1      47.132   9.800  20.044  0.00  0.00    +0.000 A 
ATOM     13 CL   UNL     1      46.948  11.341  19.272  0.00  0.00    +0.000 Cl
ATOM     14  C   UNL     1      47.637   8.667  19.373  0.00  0.00    +0.000 A 
ATOM     15 CL   UNL     1      47.918   8.777  17.654  0.00  0.00    +0.000 Cl
ENDBRANCH   6   8
ENDBRANCH   1   2
BRANCH   1  16
ATOM     16  O   UNL     1      46.573   2.785  17.741  0.00  0.00    +0.000 OA
ATOM     17  H   UNL     1      46.048   2.276  17.102  0.00  0.00    +0.000 HD
ENDBRANCH   1  16
BRANCH   1  18
ATOM     18  C   UNL     1      47.128   4.256  15.856  0.00  0.00    +0.000 C 
BRANCH  18  19
ATOM     19  O   UNL     1      47.342   3.586  14.611  0.00  0.00    +0.000 OA
BRANCH  19  23
ATOM     20  C   UNL     1      44.439   4.870  12.049  0.00  0.00    +0.000 A 
ATOM     21  C   UNL     1      45.163   5.724  12.851  0.00  0.00    +0.000 A 
ATOM     22  N   UNL     1      46.162   5.319  13.668  0.00  0.00    +0.000 NA
ATOM     23  C   UNL     1      46.415   4.004  13.679  0.00  0.00    +0.000 A 
ATOM     24  N   UNL     1      45.794   3.086  12.912  0.00  0.00    +0.000 NA
ATOM     25  C   UNL     1      44.808   3.545  12.113  0.00  0.00    +0.000 A 
BRANCH  20  27
ATOM     26  N   UNL     1      42.281   5.974  11.825  0.00  0.00    +0.000 N 
ATOM     27  C   UNL     1      43.289   5.264  11.231  0.00  0.00    +0.000 C 
ATOM     28  O   UNL     1      43.236   4.986  10.040  0.00  0.00    +0.000 OA
ATOM     29  H   UNL     1      41.534   6.282  11.213  0.00  0.00    +0.000 HD
ATOM     30  H   UNL     1      42.363   6.431  12.722  0.00  0.00    +0.000 HD
ENDBRANCH  20  27
ENDBRANCH  19  23
ENDBRANCH  18  19
ENDBRANCH   1  18
TORSDOF 7
ENDMDL
MODEL 8
REMARK VINA RESULT:    -7.491      1.930      3.037
REMARK INTER + INTRA:         -11.039
REMARK INTER:                 -10.121
REMARK INTRA:                  -0.917
REMARK UNBOUND:                -0.702
REMARK  Name = 
REMARK  7 active torsions:
REMARK  status: ('A' for Active; 'I' for Inactive)
REMARK    1  A    between atoms: C_2  and  C_4
REMARK    2  A    between atoms: C_7  and  O_8
REMARK    3  A    between atoms: O_8  and  C_9
REMARK    4  A    between atoms: C_9  and  C_10
REMARK    5  A    between atoms: C_10  and  O_11
REMARK    6  A    between atoms: C_10  and  C_12
REMARK    7  A    between atoms: C_16  and  C_17
REMARK                            x       y       z     vdW  Elec       q    Type
REMARK                         _______ _______ _______ _____ _____    ______ ____
ROOT
ATOM      1  C   UNL     1      44.443   6.548  11.806  0.00  0.00    +0.000 C 
ENDROOT
BRANCH   1   2
ATOM      2  C   UNL     1      45.314   7.788  11.873  0.00  0.00    +0.000 A 
ATOM      3  C   UNL     1      44.758   9.065  11.758  0.00  0.00    +0.000 A 
ATOM      4  C   UNL     1      45.569  10.192  11.877  0.00  0.00    +0.000 A 
ATOM      5  C   UNL     1      46.947  10.058  12.086  0.00  0.00    +0.000 A 
ATOM      6  C   UNL     1      47.552   8.796  12.189  0.00  0.00    +0.000 A 
ATOM      7  C   UNL     1      46.702   7.680  12.096  0.00  0.00    +0.000 A 
BRANCH   6   8
ATOM      8  C   UNL     1      49.006   8.632  12.483  0.00  0.00    +0.000 A 
ATOM      9  C   UNL     1      49.880   8.372  11.401  0.00  0.00    +0.000 A 
ATOM     10  C   UNL     1      51.263   8.289  11.569  0.00  0.00    +0.000 A 
ATOM     11  C   UNL     1      51.822   8.496  12.823  0.00  0.00    +0.000 A 
ATOM     12  C   UNL     1      50.994   8.741  13.919  0.00  0.00    +0.000 A 
ATOM     13 CL   UNL     1      51.777   9.017  15.440  0.00  0.00    +0.000 Cl
ATOM     14  C   UNL     1      49.592   8.774  13.766  0.00  0.00    +0.000 A 
ATOM     15 CL   UNL     1      48.606   8.923  15.198  0.00  0.00    +0.000 Cl
ENDBRANCH   6   8
ENDBRANCH   1   2
BRANCH   1  16
ATOM     16  O   UNL     1      43.199   6.892  11.192  0.00  0.00    +0.000 OA
ATOM     17  H   UNL     1      42.828   7.654  11.666  0.00  0.00    +0.000 HD
ENDBRANCH   1  16
BRANCH   1  18
ATOM     18  C   UNL     1      45.160   5.424  11.036  0.00  0.00    +0.000 C 
BRANCH  18  19
ATOM     19  O   UNL     1      44.275   4.791  10.108  0.00  0.00    +0.000 OA
BRANCH  19  23
ATOM     20  C   UNL     1      46.561   2.555   7.577  0.00  0.00    +0.000 A 
ATOM     21  C   UNL     1      45.725   2.000   8.520  0.00  0.00    +0.000 A 
ATOM     22  N   UNL     1      44.924   2.726   9.332  0.00  0.00    +0.000 NA
ATOM     23  C   UNL     1      44.994   4.056   9.188  0.00  0.00    +0.000 A 
ATOM     24  N   UNL     1      45.748   4.701   8.276  0.00  0.00    +0.000 NA
ATOM     25  C   UNL     1      46.525   3.928   7.490  0.00  0.00    +0.000 A 
BRANCH  20  27
ATOM     26  N   UNL     1      48.582   2.464   6.222  0.00  0.00    +0.000 N 
ATOM     27  C   UNL     1      47.511   1.800   6.754  0.00  0.00    +0.000 C 
ATOM     28  O   UNL     1      47.365   0.600   6.562  0.00  0.00    +0.000 OA
ATOM     29  H   UNL     1      49.248   1.896   5.712  0.00  0.00    +0.000 HD
ATOM     30  H   UNL     1      48.888   3.378   6.523  0.00  0.00    +0.000 HD
ENDBRANCH  20  27
ENDBRANCH  19  23
ENDBRANCH  18  19
ENDBRANCH   1  18
TORSDOF 7
ENDMDL
MODEL 9
REMARK VINA RESULT:    -7.099      5.541      6.746
REMARK INTER + INTRA:         -10.499
REMARK INTER:                  -9.768
REMARK INTRA:                  -0.731
REMARK UNBOUND:                -0.702
REMARK  Name = 
REMARK  7 active torsions:
REMARK  status: ('A' for Active; 'I' for Inactive)
REMARK    1  A    between atoms: C_2  and  C_4
REMARK    2  A    between atoms: C_7  and  O_8
REMARK    3  A    between atoms: O_8  and  C_9
REMARK    4  A    between atoms: C_9  and  C_10
REMARK    5  A    between atoms: C_10  and  O_11
REMARK    6  A    between atoms: C_10  and  C_12
REMARK    7  A    between atoms: C_16  and  C_17
REMARK                            x       y       z     vdW  Elec       q    Type
REMARK                         _______ _______ _______ _____ _____    ______ ____
ROOT
ATOM      1  C   UNL     1      47.710   3.645  17.011  0.00  0.00    +0.000 C 
ENDROOT
BRANCH   1   2
ATOM      2  C   UNL     1      48.221   4.572  18.098  0.00  0.00    +0.000 A 
ATOM      3  C   UNL     1      49.038   4.094  19.125  0.00  0.00    +0.000 A 
ATOM      4  C   UNL     1      49.541   4.973  20.083  0.00  0.00    +0.000 A 
ATOM      5  C   UNL     1      49.212   6.334  20.041  0.00  0.00    +0.000 A 
ATOM      6  C   UNL     1      48.379   6.855  19.039  0.00  0.00    +0.000 A 
ATOM      7  C   UNL     1      47.915   5.948  18.072  0.00  0.00    +0.000 A 
BRANCH   6   8
ATOM      8  C   UNL     1      48.075   8.313  18.936  0.00  0.00    +0.000 A 
ATOM      9  C   UNL     1      48.433   8.986  17.745  0.00  0.00    +0.000 A 
ATOM     10  C   UNL     1      48.113  10.327  17.526  0.00  0.00    +0.000 A 
ATOM     11  C   UNL     1      47.393  11.031  18.482  0.00  0.00    +0.000 A 
ATOM     12  C   UNL     1      47.033  10.408  19.677  0.00  0.00    +0.000 A 
ATOM     13 CL   UNL     1      46.111  11.352  20.800  0.00  0.00    +0.000 Cl
ATOM     14  C   UNL     1      47.399   9.069  19.927  0.00  0.00    +0.000 A 
ATOM     15 CL   UNL     1      47.062   8.397  21.502  0.00  0.00    +0.000 Cl
ENDBRANCH   6   8
ENDBRANCH   1   2
BRANCH   1  16
ATOM     16  O   UNL     1      46.573   2.936  17.508  0.00  0.00    +0.000 OA
ATOM     17  H   UNL     1      46.883   2.102  17.896  0.00  0.00    +0.000 HD
ENDBRANCH   1  16
BRANCH   1  18
ATOM     18  C   UNL     1      47.366   4.441  15.739  0.00  0.00    +0.000 C 
BRANCH  18  19
ATOM     19  O   UNL     1      47.253   3.576  14.605  0.00  0.00    +0.000 OA
BRANCH  19  23
ATOM     20  C   UNL     1      44.430   4.835  11.944  0.00  0.00    +0.000 A 
ATOM     21  C   UNL     1      44.839   3.524  12.040  0.00  0.00    +0.000 A 
ATOM     22  N   UNL     1      45.737   3.082  12.950  0.00  0.00    +0.000 NA
ATOM     23  C   UNL     1      46.243   4.010  13.772  0.00  0.00    +0.000 A 
ATOM     24  N   UNL     1      45.889   5.310  13.790  0.00  0.00    +0.000 NA
ATOM     25  C   UNL     1      44.988   5.696  12.863  0.00  0.00    +0.000 A 
BRANCH  20  27
ATOM     26  N   UNL     1      42.808   6.483  11.183  0.00  0.00    +0.000 N 
ATOM     27  C   UNL     1      43.537   5.359  10.907  0.00  0.00    +0.000 C 
ATOM     28  O   UNL     1      43.457   4.819   9.811  0.00  0.00    +0.000 OA
ATOM     29  H   UNL     1      42.251   6.850  10.420  0.00  0.00    +0.000 HD
ATOM     30  H   UNL     1      42.994   7.102  11.959  0.00  0.00    +0.000 HD
ENDBRANCH  20  27
ENDBRANCH  19  23
ENDBRANCH  18  19
ENDBRANCH   1  18
TORSDOF 7
ENDMDL
