MODEL 1
REMARK VINA RESULT:    -8.066      0.000      0.000
REMARK INTER + INTRA:         -12.437
REMARK INTER:                 -11.367
REMARK INTRA:                  -1.071
REMARK UNBOUND:                -1.071
REMARK  Name = 
REMARK  7 active torsions:
REMARK  status: ('A' for Active; 'I' for Inactive)
REMARK    1  A    between atoms: C_2  and  C_3
REMARK    2  A    between atoms: C_7  and  C_8
REMARK    3  A    between atoms: C_8  and  O_9
REMARK    4  A    between atoms: O_9  and  C_10
REMARK    5  A    between atoms: C_13  and  C_14
REMARK    6  A    between atoms: C_14  and  N_15
REMARK    7  A    between atoms: C_16  and  C_18
REMARK                            x       y       z     vdW  Elec       q    Type
REMARK                         _______ _______ _______ _____ _____    ______ ____
ROOT
ATOM      1  C   UNL     1      46.817   1.808   6.977  0.00  0.00    +0.000 A 
ATOM      2  C   UNL     1      46.534   3.163   6.839  0.00  0.00    +0.000 A 
ATOM      3  C   UNL     1      45.718   3.793   7.778  0.00  0.00    +0.000 A 
ATOM      4  C   UNL     1      45.177   3.035   8.815  0.00  0.00    +0.000 A 
ATOM      5  N   UNL     1      45.421   1.709   8.952  0.00  0.00    +0.000 NA
ATOM      6  C   UNL     1      46.221   1.131   8.033  0.00  0.00    +0.000 A 
ENDROOT
BRANCH   1   7
ATOM      7  O   UNL     1      47.658   1.255   6.055  0.00  0.00    +0.000 OA
BRANCH   7   8
ATOM      8  C   UNL     1      47.459   1.732   4.719  0.00  0.00    +0.000 C 
BRANCH   8  13
ATOM      9  C   UNL     1      46.422  -1.627   3.261  0.00  0.00    +0.000 A 
ATOM     10  C   UNL     1      45.544  -1.239   2.248  0.00  0.00    +0.000 A 
ATOM     11  C   UNL     1      45.274   0.112   2.039  0.00  0.00    +0.000 A 
ATOM     12  C   UNL     1      45.876   1.078   2.843  0.00  0.00    +0.000 A 
ATOM     13  C   UNL     1      46.743   0.703   3.878  0.00  0.00    +0.000 A 
ATOM     14  C   UNL     1      47.020  -0.660   4.072  0.00  0.00    +0.000 A 
BRANCH   9  16
ATOM     15  C   UNL     1      46.960  -4.174   3.633  0.00  0.00    +0.000 C 
ATOM     16  C   UNL     1      46.719  -3.010   3.461  0.00  0.00    +0.000 C 
ENDBRANCH   9  16
ENDBRANCH   8  13
ENDBRANCH   7   8
ENDBRANCH   1   7
BRANCH   4  17
ATOM     17  C   UNL     1      44.287   3.663   9.855  0.00  0.00    +0.000 C 
BRANCH  17  18
ATOM     18  N   UNL     1      44.870   4.852  10.435  0.00  0.00    +0.000 N 
ATOM     19  C   UNL     1      44.119   5.762  11.127  0.00  0.00    +0.000 C 
ATOM     20  O   UNL     1      42.905   5.628  11.268  0.00  0.00    +0.000 OA
ATOM     21  H   UNL     1      45.815   5.083  10.140  0.00  0.00    +0.000 HD
BRANCH  19  22
ATOM     22  C   UNL     1      44.838   6.875  11.754  0.00  0.00    +0.000 A 
ATOM     23  C   UNL     1      44.505   8.179  11.411  0.00  0.00    +0.000 A 
ATOM     24  S   UNL     1      45.434   9.361  12.213  0.00  0.00    +0.000 S 
ATOM     25  C   UNL     1      46.339   8.171  13.027  0.00  0.00    +0.000 A 
ATOM     26  N   UNL     1      47.356   8.518  13.860  0.00  0.00    +0.000 NA
ATOM     27  C   UNL     1      47.974   7.517  14.392  0.00  0.00    +0.000 A 
ATOM     28  N   UNL     1      47.654   6.201  14.181  0.00  0.00    +0.000 N 
ATOM     29  C   UNL     1      46.598   5.805  13.393  0.00  0.00    +0.000 A 
ATOM     30  O   UNL     1      46.271   4.627  13.308  0.00  0.00    +0.000 OA
ATOM     31  C   UNL     1      45.906   6.891  12.726  0.00  0.00    +0.000 A 
ATOM     32  H   UNL     1      48.155   5.464  14.656  0.00  0.00    +0.000 HD
ENDBRANCH  19  22
ENDBRANCH  17  18
ENDBRANCH   4  17
TORSDOF 7
ENDMDL
MODEL 2
REMARK VINA RESULT:    -7.920      3.786      6.677
REMARK INTER + INTRA:         -12.232
REMARK INTER:                 -11.255
REMARK INTRA:                  -0.977
REMARK UNBOUND:                -1.071
REMARK  Name = 
REMARK  7 active torsions:
REMARK  status: ('A' for Active; 'I' for Inactive)
REMARK    1  A    between atoms: C_2  and  C_3
REMARK    2  A    between atoms: C_7  and  C_8
REMARK    3  A    between atoms: C_8  and  O_9
REMARK    4  A    between atoms: O_9  and  C_10
REMARK    5  A    between atoms: C_13  and  C_14
REMARK    6  A    between atoms: C_14  and  N_15
REMARK    7  A    between atoms: C_16  and  C_18
REMARK                            x       y       z     vdW  Elec       q    Type
REMARK                         _______ _______ _______ _____ _____    ______ ____
ROOT
ATOM      1  C   UNL     1      45.466   4.021  12.390  0.00  0.00    +0.000 A 
ATOM      2  C   UNL     1      45.246   5.376  12.168  0.00  0.00    +0.000 A 
ATOM      3  C   UNL     1      46.138   6.311  12.693  0.00  0.00    +0.000 A 
ATOM      4  C   UNL     1      47.210   5.860  13.462  0.00  0.00    +0.000 A 
ATOM      5  N   UNL     1      47.426   4.545  13.710  0.00  0.00    +0.000 NA
ATOM      6  C   UNL     1      46.551   3.665  13.181  0.00  0.00    +0.000 A 
ENDROOT
BRANCH   1   7
ATOM      7  O   UNL     1      44.587   3.150  11.814  0.00  0.00    +0.000 OA
BRANCH   7   8
ATOM      8  C   UNL     1      43.993   3.632  10.602  0.00  0.00    +0.000 C 
BRANCH   8  13
ATOM      9  C   UNL     1      46.146   1.789   8.062  0.00  0.00    +0.000 A 
ATOM     10  C   UNL     1      46.672   2.844   7.315  0.00  0.00    +0.000 A 
ATOM     11  C   UNL     1      46.323   4.158   7.623  0.00  0.00    +0.000 A 
ATOM     12  C   UNL     1      45.445   4.421   8.674  0.00  0.00    +0.000 A 
ATOM     13  C   UNL     1      44.892   3.370   9.418  0.00  0.00    +0.000 A 
ATOM     14  C   UNL     1      45.261   2.051   9.110  0.00  0.00    +0.000 A 
BRANCH   9  16
ATOM     15  C   UNL     1      46.837  -0.690   7.521  0.00  0.00    +0.000 C 
ATOM     16  C   UNL     1      46.522   0.443   7.763  0.00  0.00    +0.000 C 
ENDBRANCH   9  16
ENDBRANCH   8  13
ENDBRANCH   7   8
ENDBRANCH   1   7
BRANCH   4  17
ATOM     17  C   UNL     1      48.202   6.825  14.056  0.00  0.00    +0.000 C 
BRANCH  17  18
ATOM     18  N   UNL     1      48.103   6.903  15.496  0.00  0.00    +0.000 N 
ATOM     19  C   UNL     1      49.154   6.587  16.311  0.00  0.00    +0.000 C 
ATOM     20  O   UNL     1      50.229   6.195  15.862  0.00  0.00    +0.000 OA
ATOM     21  H   UNL     1      47.168   7.009  15.880  0.00  0.00    +0.000 HD
BRANCH  19  22
ATOM     22  C   UNL     1      48.964   6.801  17.750  0.00  0.00    +0.000 A 
ATOM     23  C   UNL     1      48.947   8.097  18.247  0.00  0.00    +0.000 A 
ATOM     24  S   UNL     1      48.730   8.184  19.935  0.00  0.00    +0.000 S 
ATOM     25  C   UNL     1      48.681   6.488  20.067  0.00  0.00    +0.000 A 
ATOM     26  N   UNL     1      48.556   5.887  21.281  0.00  0.00    +0.000 NA
ATOM     27  C   UNL     1      48.558   4.597  21.239  0.00  0.00    +0.000 A 
ATOM     28  N   UNL     1      48.654   3.853  20.091  0.00  0.00    +0.000 N 
ATOM     29  C   UNL     1      48.723   4.417  18.839  0.00  0.00    +0.000 A 
ATOM     30  O   UNL     1      48.702   3.727  17.826  0.00  0.00    +0.000 OA
ATOM     31  C   UNL     1      48.782   5.866  18.835  0.00  0.00    +0.000 A 
ATOM     32  H   UNL     1      48.614   2.845  20.124  0.00  0.00    +0.000 HD
ENDBRANCH  19  22
ENDBRANCH  17  18
ENDBRANCH   4  17
TORSDOF 7
ENDMDL
MODEL 3
REMARK VINA RESULT:    -7.324      3.790      6.790
REMARK INTER + INTRA:         -11.392
REMARK INTER:                 -10.517
REMARK INTRA:                  -0.875
REMARK UNBOUND:                -1.071
REMARK  Name = 
REMARK  7 active torsions:
REMARK  status: ('A' for Active; 'I' for Inactive)
REMARK    1  A    between atoms: C_2  and  C_3
REMARK    2  A    between atoms: C_7  and  C_8
REMARK    3  A    between atoms: C_8  and  O_9
REMARK    4  A    between atoms: O_9  and  C_10
REMARK    5  A    between atoms: C_13  and  C_14
REMARK    6  A    between atoms: C_14  and  N_15
REMARK    7  A    between atoms: C_16  and  C_18
REMARK                            x       y       z     vdW  Elec       q    Type
REMARK                         _______ _______ _______ _____ _____    ______ ____
ROOT
ATOM      1  C   UNL     1      44.971   5.370  11.835  0.00  0.00    +0.000 A 
ATOM      2  C   UNL     1      45.441   6.661  11.621  0.00  0.00    +0.000 A 
ATOM      3  C   UNL     1      46.522   7.131  12.365  0.00  0.00    +0.000 A 
ATOM      4  C   UNL     1      47.082   6.301  13.335  0.00  0.00    +0.000 A 
ATOM      5  N   UNL     1      46.622   5.048  13.576  0.00  0.00    +0.000 NA
ATOM      6  C   UNL     1      45.581   4.621  12.833  0.00  0.00    +0.000 A 
ENDROOT
BRANCH   1   7
ATOM      7  O   UNL     1      43.940   4.948  11.046  0.00  0.00    +0.000 OA
BRANCH   7   8
ATOM      8  C   UNL     1      43.989   3.556  10.710  0.00  0.00    +0.000 C 
BRANCH   8  13
ATOM      9  C   UNL     1      46.125   1.782   8.108  0.00  0.00    +0.000 A 
ATOM     10  C   UNL     1      46.592   2.852   7.344  0.00  0.00    +0.000 A 
ATOM     11  C   UNL     1      46.209   4.154   7.661  0.00  0.00    +0.000 A 
ATOM     12  C   UNL     1      45.355   4.389   8.737  0.00  0.00    +0.000 A 
ATOM     13  C   UNL     1      44.860   3.323   9.500  0.00  0.00    +0.000 A 
ATOM     14  C   UNL     1      45.264   2.016   9.182  0.00  0.00    +0.000 A 
BRANCH   9  16
ATOM     15  C   UNL     1      46.875  -0.675   7.542  0.00  0.00    +0.000 C 
ATOM     16  C   UNL     1      46.537   0.449   7.800  0.00  0.00    +0.000 C 
ENDBRANCH   9  16
ENDBRANCH   8  13
ENDBRANCH   7   8
ENDBRANCH   1   7
BRANCH   4  17
ATOM     17  C   UNL     1      48.250   6.757  14.170  0.00  0.00    +0.000 C 
BRANCH  17  18
ATOM     18  N   UNL     1      48.070   6.470  15.575  0.00  0.00    +0.000 N 
ATOM     19  C   UNL     1      49.123   6.161  16.391  0.00  0.00    +0.000 C 
ATOM     20  O   UNL     1      50.273   6.085  15.965  0.00  0.00    +0.000 OA
ATOM     21  H   UNL     1      47.115   6.313  15.886  0.00  0.00    +0.000 HD
BRANCH  19  22
ATOM     22  C   UNL     1      48.828   5.989  17.817  0.00  0.00    +0.000 A 
ATOM     23  C   UNL     1      49.067   4.759  18.417  0.00  0.00    +0.000 A 
ATOM     24  S   UNL     1      48.665   4.711  20.072  0.00  0.00    +0.000 S 
ATOM     25  C   UNL     1      48.127   6.325  20.041  0.00  0.00    +0.000 A 
ATOM     26  N   UNL     1      47.601   6.906  21.153  0.00  0.00    +0.000 NA
ATOM     27  C   UNL     1      47.210   8.125  20.983  0.00  0.00    +0.000 A 
ATOM     28  N   UNL     1      47.314   8.821  19.807  0.00  0.00    +0.000 N 
ATOM     29  C   UNL     1      47.890   8.294  18.675  0.00  0.00    +0.000 A 
ATOM     30  O   UNL     1      48.065   8.975  17.670  0.00  0.00    +0.000 OA
ATOM     31  C   UNL     1      48.295   6.907  18.796  0.00  0.00    +0.000 A 
ATOM     32  H   UNL     1      47.020   9.785  19.750  0.00  0.00    +0.000 HD
ENDBRANCH  19  22
ENDBRANCH  17  18
ENDBRANCH   4  17
TORSDOF 7
ENDMDL
MODEL 4
REMARK VINA RESULT:    -7.255      5.648     10.179
REMARK INTER + INTRA:         -11.295
REMARK INTER:                 -10.025
REMARK INTRA:                  -1.270
REMARK UNBOUND:                -1.071
REMARK  Name = 
REMARK  7 active torsions:
REMARK  status: ('A' for Active; 'I' for Inactive)
REMARK    1  A    between atoms: C_2  and  C_3
REMARK    2  A    between atoms: C_7  and  C_8
REMARK    3  A    between atoms: C_8  and  O_9
REMARK    4  A    between atoms: O_9  and  C_10
REMARK    5  A    between atoms: C_13  and  C_14
REMARK    6  A    between atoms: C_14  and  N_15
REMARK    7  A    between atoms: C_16  and  C_18
REMARK                            x       y       z     vdW  Elec       q    Type
REMARK                         _______ _______ _______ _____ _____    ______ ____
ROOT
ATOM      1  C   UNL     1      49.434   7.514  16.296  0.00  0.00    +0.000 A 
ATOM      2  C   UNL     1      48.447   8.467  16.067  0.00  0.00    +0.000 A 
ATOM      3  C   UNL     1      48.027   8.722  14.762  0.00  0.00    +0.000 A 
ATOM      4  C   UNL     1      48.639   8.038  13.714  0.00  0.00    +0.000 A 
ATOM      5  N   UNL     1      49.620   7.123  13.914  0.00  0.00    +0.000 NA
ATOM      6  C   UNL     1      49.997   6.893  15.189  0.00  0.00    +0.000 A 
ENDROOT
BRANCH   1   7
ATOM      7  O   UNL     1      49.771   7.273  17.596  0.00  0.00    +0.000 OA
BRANCH   7   8
ATOM      8  C   UNL     1      48.757   6.597  18.350  0.00  0.00    +0.000 C 
BRANCH   8  13
ATOM      9  C   UNL     1      49.643   3.012  17.428  0.00  0.00    +0.000 A 
ATOM     10  C   UNL     1      48.428   2.536  16.934  0.00  0.00    +0.000 A 
ATOM     11  C   UNL     1      47.312   3.370  16.907  0.00  0.00    +0.000 A 
ATOM     12  C   UNL     1      47.405   4.679  17.377  0.00  0.00    +0.000 A 
ATOM     13  C   UNL     1      48.613   5.164  17.897  0.00  0.00    +0.000 A 
ATOM     14  C   UNL     1      49.736   4.321  17.907  0.00  0.00    +0.000 A 
BRANCH   9  16
ATOM     15  C   UNL     1      51.766   1.460  17.445  0.00  0.00    +0.000 C 
ATOM     16  C   UNL     1      50.794   2.166  17.434  0.00  0.00    +0.000 C 
ENDBRANCH   9  16
ENDBRANCH   8  13
ENDBRANCH   7   8
ENDBRANCH   1   7
BRANCH   4  17
ATOM     17  C   UNL     1      48.228   8.275  12.284  0.00  0.00    +0.000 C 
BRANCH  17  18
ATOM     18  N   UNL     1      47.578   7.125  11.698  0.00  0.00    +0.000 N 
ATOM     19  C   UNL     1      46.225   6.943  11.772  0.00  0.00    +0.000 C 
ATOM     20  O   UNL     1      45.495   7.735  12.365  0.00  0.00    +0.000 OA
ATOM     21  H   UNL     1      48.184   6.363  11.404  0.00  0.00    +0.000 HD
BRANCH  19  22
ATOM     22  C   UNL     1      45.671   5.791  11.053  0.00  0.00    +0.000 A 
ATOM     23  C   UNL     1      45.868   5.686   9.683  0.00  0.00    +0.000 A 
ATOM     24  S   UNL     1      45.157   4.302   8.989  0.00  0.00    +0.000 S 
ATOM     25  C   UNL     1      44.531   3.807  10.493  0.00  0.00    +0.000 A 
ATOM     26  N   UNL     1      43.764   2.689  10.594  0.00  0.00    +0.000 NA
ATOM     27  C   UNL     1      43.335   2.443  11.787  0.00  0.00    +0.000 A 
ATOM     28  N   UNL     1      43.620   3.204  12.890  0.00  0.00    +0.000 N 
ATOM     29  C   UNL     1      44.438   4.309  12.846  0.00  0.00    +0.000 A 
ATOM     30  O   UNL     1      44.759   4.908  13.866  0.00  0.00    +0.000 OA
ATOM     31  C   UNL     1      44.900   4.661  11.517  0.00  0.00    +0.000 A 
ATOM     32  H   UNL     1      43.281   2.937  13.804  0.00  0.00    +0.000 HD
ENDBRANCH  19  22
ENDBRANCH  17  18
ENDBRANCH   4  17
TORSDOF 7
ENDMDL
MODEL 5
REMARK VINA RESULT:    -7.148      3.966      7.274
REMARK INTER + INTRA:         -11.144
REMARK INTER:                 -10.161
REMARK INTRA:                  -0.982
REMARK UNBOUND:                -1.071
REMARK  Name = 
REMARK  7 active torsions:
REMARK  status: ('A' for Active; 'I' for Inactive)
REMARK    1  A    between atoms: C_2  and  C_3
REMARK    2  A    between atoms: C_7  and  C_8
REMARK    3  A    between atoms: C_8  and  O_9
REMARK    4  A    between atoms: O_9  and  C_10
REMARK    5  A    between atoms: C_13  and  C_14
REMARK    6  A    between atoms: C_14  and  N_15
REMARK    7  A    between atoms: C_16  and  C_18
REMARK                            x       y       z     vdW  Elec       q    Type
REMARK                         _______ _______ _______ _____ _____    ______ ____
ROOT
ATOM      1  C   UNL     1      45.077   5.653  12.311  0.00  0.00    +0.000 A 
ATOM      2  C   UNL     1      45.795   4.712  13.043  0.00  0.00    +0.000 A 
ATOM      3  C   UNL     1      46.957   5.101  13.708  0.00  0.00    +0.000 A 
ATOM      4  C   UNL     1      47.390   6.420  13.590  0.00  0.00    +0.000 A 
ATOM      5  N   UNL     1      46.718   7.345  12.861  0.00  0.00    +0.000 NA
ATOM      6  C   UNL     1      45.593   6.940  12.237  0.00  0.00    +0.000 A 
ENDROOT
BRANCH   1   7
ATOM      7  O   UNL     1      43.923   5.227  11.720  0.00  0.00    +0.000 OA
BRANCH   7   8
ATOM      8  C   UNL     1      43.920   5.339  10.291  0.00  0.00    +0.000 C 
BRANCH   8  13
ATOM      9  C   UNL     1      45.708   3.063   7.820  0.00  0.00    +0.000 A 
ATOM     10  C   UNL     1      45.432   1.800   8.344  0.00  0.00    +0.000 A 
ATOM     11  C   UNL     1      44.674   1.678   9.507  0.00  0.00    +0.000 A 
ATOM     12  C   UNL     1      44.195   2.818  10.152  0.00  0.00    +0.000 A 
ATOM     13  C   UNL     1      44.483   4.094   9.650  0.00  0.00    +0.000 A 
ATOM     14  C   UNL     1      45.235   4.206   8.470  0.00  0.00    +0.000 A 
BRANCH   9  16
ATOM     15  C   UNL     1      47.103   3.286   5.601  0.00  0.00    +0.000 C 
ATOM     16  C   UNL     1      46.464   3.188   6.614  0.00  0.00    +0.000 C 
ENDBRANCH   9  16
ENDBRANCH   8  13
ENDBRANCH   7   8
ENDBRANCH   1   7
BRANCH   4  17
ATOM     17  C   UNL     1      48.640   6.894  14.285  0.00  0.00    +0.000 C 
BRANCH  17  18
ATOM     18  N   UNL     1      48.455   7.047  15.710  0.00  0.00    +0.000 N 
ATOM     19  C   UNL     1      49.324   6.501  16.614  0.00  0.00    +0.000 C 
ATOM     20  O   UNL     1      50.291   5.830  16.261  0.00  0.00    +0.000 OA
ATOM     21  H   UNL     1      47.553   7.403  16.015  0.00  0.00    +0.000 HD
BRANCH  19  22
ATOM     22  C   UNL     1      49.088   6.807  18.029  0.00  0.00    +0.000 A 
ATOM     23  C   UNL     1      49.104   8.131  18.449  0.00  0.00    +0.000 A 
ATOM     24  S   UNL     1      48.826   8.327  20.118  0.00  0.00    +0.000 S 
ATOM     25  C   UNL     1      48.703   6.645  20.348  0.00  0.00    +0.000 A 
ATOM     26  N   UNL     1      48.508   6.123  21.588  0.00  0.00    +0.000 NA
ATOM     27  C   UNL     1      48.459   4.833  21.622  0.00  0.00    +0.000 A 
ATOM     28  N   UNL     1      48.569   4.019  20.524  0.00  0.00    +0.000 N 
ATOM     29  C   UNL     1      48.709   4.504  19.245  0.00  0.00    +0.000 A 
ATOM     30  O   UNL     1      48.699   3.756  18.274  0.00  0.00    +0.000 OA
ATOM     31  C   UNL     1      48.827   5.947  19.159  0.00  0.00    +0.000 A 
ATOM     32  H   UNL     1      48.487   3.017  20.614  0.00  0.00    +0.000 HD
ENDBRANCH  19  22
ENDBRANCH  17  18
ENDBRANCH   4  17
TORSDOF 7
ENDMDL
MODEL 6
REMARK VINA RESULT:    -7.047      1.886      2.816
REMARK INTER + INTRA:         -11.002
REMARK INTER:                  -9.912
REMARK INTRA:                  -1.089
REMARK UNBOUND:                -1.071
REMARK  Name = 
REMARK  7 active torsions:
REMARK  status: ('A' for Active; 'I' for Inactive)
REMARK    1  A    between atoms: C_2  and  C_3
REMARK    2  A    between atoms: C_7  and  C_8
REMARK    3  A    between atoms: C_8  and  O_9
REMARK    4  A    between atoms: O_9  and  C_10
REMARK    5  A    between atoms: C_13  and  C_14
REMARK    6  A    between atoms: C_14  and  N_15
REMARK    7  A    between atoms: C_16  and  C_18
REMARK                            x       y       z     vdW  Elec       q    Type
REMARK                         _______ _______ _______ _____ _____    ______ ____
ROOT
ATOM      1  C   UNL     1      45.587   1.950   8.687  0.00  0.00    +0.000 A 
ATOM      2  C   UNL     1      45.832   3.232   8.207  0.00  0.00    +0.000 A 
ATOM      3  C   UNL     1      45.171   4.318   8.779  0.00  0.00    +0.000 A 
ATOM      4  C   UNL     1      44.250   4.083   9.798  0.00  0.00    +0.000 A 
ATOM      5  N   UNL     1      43.979   2.838  10.263  0.00  0.00    +0.000 NA
ATOM      6  C   UNL     1      44.641   1.810   9.694  0.00  0.00    +0.000 A 
ENDROOT
BRANCH   1   7
ATOM      7  O   UNL     1      46.297   0.932   8.119  0.00  0.00    +0.000 OA
BRANCH   7   8
ATOM      8  C   UNL     1      47.349   1.364   7.248  0.00  0.00    +0.000 C 
BRANCH   8  13
ATOM      9  C   UNL     1      46.789  -0.644   4.064  0.00  0.00    +0.000 A 
ATOM     10  C   UNL     1      46.588   0.366   3.122  0.00  0.00    +0.000 A 
ATOM     11  C   UNL     1      46.622   1.702   3.515  0.00  0.00    +0.000 A 
ATOM     12  C   UNL     1      46.852   2.033   4.849  0.00  0.00    +0.000 A 
ATOM     13  C   UNL     1      47.032   1.030   5.810  0.00  0.00    +0.000 A 
ATOM     14  C   UNL     1      47.012  -0.313   5.403  0.00  0.00    +0.000 A 
BRANCH   9  16
ATOM     15  C   UNL     1      46.763  -3.165   3.313  0.00  0.00    +0.000 C 
ATOM     16  C   UNL     1      46.779  -2.014   3.658  0.00  0.00    +0.000 C 
ENDBRANCH   9  16
ENDBRANCH   8  13
ENDBRANCH   7   8
ENDBRANCH   1   7
BRANCH   4  17
ATOM     17  C   UNL     1      43.505   5.218  10.451  0.00  0.00    +0.000 C 
BRANCH  17  18
ATOM     18  N   UNL     1      44.370   6.327  10.784  0.00  0.00    +0.000 N 
ATOM     19  C   UNL     1      44.907   6.476  12.033  0.00  0.00    +0.000 C 
ATOM     20  O   UNL     1      44.660   5.688  12.944  0.00  0.00    +0.000 OA
ATOM     21  H   UNL     1      44.402   7.093  10.116  0.00  0.00    +0.000 HD
BRANCH  19  22
ATOM     22  C   UNL     1      45.848   7.585  12.222  0.00  0.00    +0.000 A 
ATOM     23  C   UNL     1      47.102   7.327  12.759  0.00  0.00    +0.000 A 
ATOM     24  S   UNL     1      48.077   8.714  12.927  0.00  0.00    +0.000 S 
ATOM     25  C   UNL     1      46.846   9.717  12.315  0.00  0.00    +0.000 A 
ATOM     26  N   UNL     1      47.020  11.063  12.234  0.00  0.00    +0.000 NA
ATOM     27  C   UNL     1      45.998  11.705  11.775  0.00  0.00    +0.000 A 
ATOM     28  N   UNL     1      44.825  11.121  11.374  0.00  0.00    +0.000 N 
ATOM     29  C   UNL     1      44.626   9.760  11.384  0.00  0.00    +0.000 A 
ATOM     30  O   UNL     1      43.607   9.260  10.921  0.00  0.00    +0.000 OA
ATOM     31  C   UNL     1      45.724   8.996  11.945  0.00  0.00    +0.000 A 
ATOM     32  H   UNL     1      44.075  11.678  10.991  0.00  0.00    +0.000 HD
ENDBRANCH  19  22
ENDBRANCH  17  18
ENDBRANCH   4  17
TORSDOF 7
ENDMDL
MODEL 7
REMARK VINA RESULT:    -6.812      4.292     10.514
REMARK INTER + INTRA:         -10.670
REMARK INTER:                  -9.549
REMARK INTRA:                  -1.121
REMARK UNBOUND:                -1.071
REMARK  Name = 
REMARK  7 active torsions:
REMARK  status: ('A' for Active; 'I' for Inactive)
REMARK    1  A    between atoms: C_2  and  C_3
REMARK    2  A    between atoms: C_7  and  C_8
REMARK    3  A    between atoms: C_8  and  O_9
REMARK    4  A    between atoms: O_9  and  C_10
REMARK    5  A    between atoms: C_13  and  C_14
REMARK    6  A    between atoms: C_14  and  N_15
REMARK    7  A    between atoms: C_16  and  C_18
REMARK                            x       y       z     vdW  Elec       q    Type
REMARK                         _______ _______ _______ _____ _____    ______ ____
ROOT
ATOM      1  C   UNL     1      49.449   7.811  16.099  0.00  0.00    +0.000 A 
ATOM      2  C   UNL     1      48.366   8.636  15.816  0.00  0.00    +0.000 A 
ATOM      3  C   UNL     1      47.789   8.602  14.547  0.00  0.00    +0.000 A 
ATOM      4  C   UNL     1      48.342   7.764  13.580  0.00  0.00    +0.000 A 
ATOM      5  N   UNL     1      49.413   6.971  13.829  0.00  0.00    +0.000 NA
ATOM      6  C   UNL     1      49.942   7.021  15.069  0.00  0.00    +0.000 A 
ENDROOT
BRANCH   1   7
ATOM      7  O   UNL     1      49.943   7.853  17.371  0.00  0.00    +0.000 OA
BRANCH   7   8
ATOM      8  C   UNL     1      49.106   7.221  18.346  0.00  0.00    +0.000 C 
BRANCH   8  13
ATOM      9  C   UNL     1      50.054   3.587  17.729  0.00  0.00    +0.000 A 
ATOM     10  C   UNL     1      48.816   3.015  17.435  0.00  0.00    +0.000 A 
ATOM     11  C   UNL     1      47.665   3.801  17.446  0.00  0.00    +0.000 A 
ATOM     12  C   UNL     1      47.747   5.158  17.755  0.00  0.00    +0.000 A 
ATOM     13  C   UNL     1      48.981   5.741  18.074  0.00  0.00    +0.000 A 
ATOM     14  C   UNL     1      50.137   4.945  18.046  0.00  0.00    +0.000 A 
BRANCH   9  16
ATOM     15  C   UNL     1      52.239   2.124  17.665  0.00  0.00    +0.000 C 
ATOM     16  C   UNL     1      51.239   2.788  17.694  0.00  0.00    +0.000 C 
ENDBRANCH   9  16
ENDBRANCH   8  13
ENDBRANCH   7   8
ENDBRANCH   1   7
BRANCH   4  17
ATOM     17  C   UNL     1      47.762   7.689  12.192  0.00  0.00    +0.000 C 
BRANCH  17  18
ATOM     18  N   UNL     1      47.003   6.478  11.975  0.00  0.00    +0.000 N 
ATOM     19  C   UNL     1      45.635   6.473  11.968  0.00  0.00    +0.000 C 
ATOM     20  O   UNL     1      44.982   7.494  12.171  0.00  0.00    +0.000 OA
ATOM     21  H   UNL     1      47.520   5.604  12.027  0.00  0.00    +0.000 HD
BRANCH  19  22
ATOM     22  C   UNL     1      44.978   5.204  11.639  0.00  0.00    +0.000 A 
ATOM     23  C   UNL     1      44.221   4.560  12.608  0.00  0.00    +0.000 A 
ATOM     24  S   UNL     1      43.531   3.094  12.080  0.00  0.00    +0.000 S 
ATOM     25  C   UNL     1      44.246   3.251  10.543  0.00  0.00    +0.000 A 
ATOM     26  N   UNL     1      44.086   2.286   9.598  0.00  0.00    +0.000 NA
ATOM     27  C   UNL     1      44.702   2.521   8.488  0.00  0.00    +0.000 A 
ATOM     28  N   UNL     1      45.447   3.643   8.231  0.00  0.00    +0.000 N 
ATOM     29  C   UNL     1      45.588   4.670   9.134  0.00  0.00    +0.000 A 
ATOM     30  O   UNL     1      46.172   5.706   8.838  0.00  0.00    +0.000 OA
ATOM     31  C   UNL     1      44.962   4.429  10.420  0.00  0.00    +0.000 A 
ATOM     32  H   UNL     1      45.876   3.782   7.327  0.00  0.00    +0.000 HD
ENDBRANCH  19  22
ENDBRANCH  17  18
ENDBRANCH   4  17
TORSDOF 7
ENDMDL
MODEL 8
REMARK VINA RESULT:    -6.746      4.055      7.526
REMARK INTER + INTRA:         -10.578
REMARK INTER:                  -9.517
REMARK INTRA:                  -1.060
REMARK UNBOUND:                -1.071
REMARK  Name = 
REMARK  7 active torsions:
REMARK  status: ('A' for Active; 'I' for Inactive)
REMARK    1  A    between atoms: C_2  and  C_3
REMARK    2  A    between atoms: C_7  and  C_8
REMARK    3  A    between atoms: C_8  and  O_9
REMARK    4  A    between atoms: O_9  and  C_10
REMARK    5  A    between atoms: C_13  and  C_14
REMARK    6  A    between atoms: C_14  and  N_15
REMARK    7  A    between atoms: C_16  and  C_18
REMARK                            x       y       z     vdW  Elec       q    Type
REMARK                         _______ _______ _______ _____ _____    ______ ____
ROOT
ATOM      1  C   UNL     1      45.925   6.665  12.370  0.00  0.00    +0.000 A 
ATOM      2  C   UNL     1      47.006   5.886  12.766  0.00  0.00    +0.000 A 
ATOM      3  C   UNL     1      47.956   6.420  13.636  0.00  0.00    +0.000 A 
ATOM      4  C   UNL     1      47.813   7.741  14.059  0.00  0.00    +0.000 A 
ATOM      5  N   UNL     1      46.779   8.524  13.664  0.00  0.00    +0.000 NA
ATOM      6  C   UNL     1      45.873   7.975  12.829  0.00  0.00    +0.000 A 
ENDROOT
BRANCH   1   7
ATOM      7  O   UNL     1      45.003   6.075  11.554  0.00  0.00    +0.000 OA
BRANCH   7   8
ATOM      8  C   UNL     1      45.362   6.075  10.167  0.00  0.00    +0.000 C 
BRANCH   8  13
ATOM      9  C   UNL     1      45.873   3.155   7.780  0.00  0.00    +0.000 A 
ATOM     10  C   UNL     1      45.225   2.119   8.454  0.00  0.00    +0.000 A 
ATOM     11  C   UNL     1      44.628   2.358   9.690  0.00  0.00    +0.000 A 
ATOM     12  C   UNL     1      44.681   3.630  10.259  0.00  0.00    +0.000 A 
ATOM     13  C   UNL     1      45.348   4.674   9.604  0.00  0.00    +0.000 A 
ATOM     14  C   UNL     1      45.933   4.428   8.352  0.00  0.00    +0.000 A 
BRANCH   9  16
ATOM     15  C   UNL     1      46.960   2.727   5.424  0.00  0.00    +0.000 C 
ATOM     16  C   UNL     1      46.464   2.918   6.501  0.00  0.00    +0.000 C 
ENDBRANCH   9  16
ENDBRANCH   8  13
ENDBRANCH   7   8
ENDBRANCH   1   7
BRANCH   4  17
ATOM     17  C   UNL     1      48.809   8.370  14.996  0.00  0.00    +0.000 C 
BRANCH  17  18
ATOM     18  N   UNL     1      49.724   7.403  15.560  0.00  0.00    +0.000 N 
ATOM     19  C   UNL     1      49.579   6.927  16.834  0.00  0.00    +0.000 C 
ATOM     20  O   UNL     1      48.678   7.317  17.573  0.00  0.00    +0.000 OA
ATOM     21  H   UNL     1      50.587   7.243  15.047  0.00  0.00    +0.000 HD
BRANCH  19  22
ATOM     22  C   UNL     1      50.509   5.876  17.258  0.00  0.00    +0.000 A 
ATOM     23  C   UNL     1      51.752   6.232  17.764  0.00  0.00    +0.000 A 
ATOM     24  S   UNL     1      52.723   4.903  18.203  0.00  0.00    +0.000 S 
ATOM     25  C   UNL     1      51.528   3.799  17.705  0.00  0.00    +0.000 A 
ATOM     26  N   UNL     1      51.746   2.458  17.772  0.00  0.00    +0.000 NA
ATOM     27  C   UNL     1      50.767   1.737  17.339  0.00  0.00    +0.000 A 
ATOM     28  N   UNL     1      49.582   2.235  16.862  0.00  0.00    +0.000 N 
ATOM     29  C   UNL     1      49.295   3.580  16.830  0.00  0.00    +0.000 A 
ATOM     30  O   UNL     1      48.188   3.989  16.497  0.00  0.00    +0.000 OA
ATOM     31  C   UNL     1      50.386   4.437  17.253  0.00  0.00    +0.000 A 
ATOM     32  H   UNL     1      48.841   1.614  16.570  0.00  0.00    +0.000 HD
ENDBRANCH  19  22
ENDBRANCH  17  18
ENDBRANCH   4  17
TORSDOF 7
ENDMDL
MODEL 9
REMARK VINA RESULT:    -6.679      4.489     10.939
REMARK INTER + INTRA:         -10.483
REMARK INTER:                  -9.173
REMARK INTRA:                  -1.310
REMARK UNBOUND:                -1.071
REMARK  Name = 
REMARK  7 active torsions:
REMARK  status: ('A' for Active; 'I' for Inactive)
REMARK    1  A    between atoms: C_2  and  C_3
REMARK    2  A    between atoms: C_7  and  C_8
REMARK    3  A    between atoms: C_8  and  O_9
REMARK    4  A    between atoms: O_9  and  C_10
REMARK    5  A    between atoms: C_13  and  C_14
REMARK    6  A    between atoms: C_14  and  N_15
REMARK    7  A    between atoms: C_16  and  C_18
REMARK                            x       y       z     vdW  Elec       q    Type
REMARK                         _______ _______ _______ _____ _____    ______ ____
ROOT
ATOM      1  C   UNL     1      49.723   8.707  15.577  0.00  0.00    +0.000 A 
ATOM      2  C   UNL     1      50.465   7.976  14.654  0.00  0.00    +0.000 A 
ATOM      3  C   UNL     1      49.923   7.704  13.399  0.00  0.00    +0.000 A 
ATOM      4  C   UNL     1      48.630   8.142  13.115  0.00  0.00    +0.000 A 
ATOM      5  N   UNL     1      47.883   8.834  14.010  0.00  0.00    +0.000 NA
ATOM      6  C   UNL     1      48.439   9.089  15.212  0.00  0.00    +0.000 A 
ENDROOT
BRANCH   1   7
ATOM      7  O   UNL     1      50.323   8.984  16.771  0.00  0.00    +0.000 OA
BRANCH   7   8
ATOM      8  C   UNL     1      50.690   7.823  17.526  0.00  0.00    +0.000 C 
BRANCH   8  13
ATOM      9  C   UNL     1      47.966   5.262  18.238  0.00  0.00    +0.000 A 
ATOM     10  C   UNL     1      47.145   5.957  19.127  0.00  0.00    +0.000 A 
ATOM     11  C   UNL     1      47.475   7.256  19.509  0.00  0.00    +0.000 A 
ATOM     12  C   UNL     1      48.628   7.861  19.009  0.00  0.00    +0.000 A 
ATOM     13  C   UNL     1      49.473   7.166  18.134  0.00  0.00    +0.000 A 
ATOM     14  C   UNL     1      49.125   5.864  17.742  0.00  0.00    +0.000 A 
BRANCH   9  16
ATOM     15  C   UNL     1      47.316   2.830  17.473  0.00  0.00    +0.000 C 
ATOM     16  C   UNL     1      47.616   3.939  17.826  0.00  0.00    +0.000 C 
ENDBRANCH   9  16
ENDBRANCH   8  13
ENDBRANCH   7   8
ENDBRANCH   1   7
BRANCH   4  17
ATOM     17  C   UNL     1      47.993   7.873  11.777  0.00  0.00    +0.000 C 
BRANCH  17  18
ATOM     18  N   UNL     1      47.156   6.695  11.790  0.00  0.00    +0.000 N 
ATOM     19  C   UNL     1      45.793   6.776  11.726  0.00  0.00    +0.000 C 
ATOM     20  O   UNL     1      45.208   7.856  11.680  0.00  0.00    +0.000 OA
ATOM     21  H   UNL     1      47.608   5.821  12.049  0.00  0.00    +0.000 HD
BRANCH  19  22
ATOM     22  C   UNL     1      45.056   5.510  11.646  0.00  0.00    +0.000 A 
ATOM     23  C   UNL     1      44.324   5.080  12.744  0.00  0.00    +0.000 A 
ATOM     24  S   UNL     1      43.534   3.589  12.504  0.00  0.00    +0.000 S 
ATOM     25  C   UNL     1      44.168   3.449  10.930  0.00  0.00    +0.000 A 
ATOM     26  N   UNL     1      43.908   2.352  10.170  0.00  0.00    +0.000 NA
ATOM     27  C   UNL     1      44.471   2.363   9.008  0.00  0.00    +0.000 A 
ATOM     28  N   UNL     1      45.256   3.382   8.532  0.00  0.00    +0.000 N 
ATOM     29  C   UNL     1      45.498   4.534   9.242  0.00  0.00    +0.000 A 
ATOM     30  O   UNL     1      46.115   5.471   8.748  0.00  0.00    +0.000 OA
ATOM     31  C   UNL     1      44.934   4.546  10.578  0.00  0.00    +0.000 A 
ATOM     32  H   UNL     1      45.639   3.345   7.598  0.00  0.00    +0.000 HD
ENDBRANCH  19  22
ENDBRANCH  17  18
ENDBRANCH   4  17
TORSDOF 7
ENDMDL
