MODEL 1
REMARK VINA RESULT:    -7.752      0.000      0.000
REMARK INTER + INTRA:         -11.899
REMARK INTER:                 -10.470
REMARK INTRA:                  -1.429
REMARK UNBOUND:                -1.429
REMARK  Name = 
REMARK  7 active torsions:
REMARK  status: ('A' for Active; 'I' for Inactive)
REMARK    1  A    between atoms: C_1  and  C_2
REMARK    2  A    between atoms: C_2  and  N_3
REMARK    3  A    between atoms: N_3  and  C_4
REMARK    4  A    between atoms: C_4  and  C_5
REMARK    5  A    between atoms: C_8  and  C_9
REMARK    6  A    between atoms: C_9  and  C_10
REMARK    7  A    between atoms: C_18  and  C_20
REMARK                            x       y       z     vdW  Elec       q    Type
REMARK                         _______ _______ _______ _____ _____    ______ ____
ROOT
ATOM      1  N   UNL     1      46.464   7.185  12.244  0.00  0.00    +0.000 N 
ATOM      2  C   UNL     1      45.189   6.872  11.742  0.00  0.00    +0.000 C 
ATOM      3  O   UNL     1      44.414   7.748  11.364  0.00  0.00    +0.000 OA
ENDROOT
BRANCH   2   4
ATOM      4  C   UNL     1      44.750   5.475  11.715  0.00  0.00    +0.000 A 
ATOM      5  C   UNL     1      44.035   4.854  12.727  0.00  0.00    +0.000 A 
ATOM      6  S   UNL     1      43.571   3.256  12.351  0.00  0.00    +0.000 S 
ATOM      7  C   UNL     1      44.203   3.392  10.779  0.00  0.00    +0.000 A 
ATOM      8  N   UNL     1      44.044   2.397   9.870  0.00  0.00    +0.000 NA
ATOM      9  C   UNL     1      44.524   2.658   8.706  0.00  0.00    +0.000 A 
ATOM     10  N   UNL     1      45.179   3.818   8.368  0.00  0.00    +0.000 N 
ATOM     11  C   UNL     1      45.480   4.801   9.287  0.00  0.00    +0.000 A 
ATOM     12  O   UNL     1      46.267   5.700   9.022  0.00  0.00    +0.000 OA
ATOM     13  C   UNL     1      44.846   4.597  10.581  0.00  0.00    +0.000 A 
ATOM     14  H   UNL     1      45.594   3.931   7.456  0.00  0.00    +0.000 HD
ENDBRANCH   2   4
BRANCH   1  16
ATOM     15  C   UNL     1      48.197   8.961  11.928  0.00  0.00    +0.000 C 
ATOM     16  C   UNL     1      46.772   8.620  12.356  0.00  0.00    +0.000 C 
ENDBRANCH   1  16
BRANCH   1  17
ATOM     17  C   UNL     1      47.464   6.160  12.606  0.00  0.00    +0.000 C 
BRANCH  17  18
ATOM     18  C   UNL     1      47.589   5.850  14.073  0.00  0.00    +0.000 A 
ATOM     19  C   UNL     1      48.419   6.626  14.895  0.00  0.00    +0.000 A 
ATOM     20  C   UNL     1      48.767   6.164  16.162  0.00  0.00    +0.000 A 
ATOM     21  C   UNL     1      48.256   4.948  16.635  0.00  0.00    +0.000 A 
ATOM     22  C   UNL     1      47.301   4.264  15.871  0.00  0.00    +0.000 A 
ATOM     23  C   UNL     1      46.976   4.710  14.594  0.00  0.00    +0.000 A 
BRANCH  21  24
ATOM     24  C   UNL     1      48.801   4.313  17.892  0.00  0.00    +0.000 C 
BRANCH  24  25
ATOM     25  C   UNL     1      50.110   3.578  17.767  0.00  0.00    +0.000 A 
ATOM     26  C   UNL     1      50.149   2.275  17.277  0.00  0.00    +0.000 A 
ATOM     27  C   UNL     1      51.347   1.570  17.331  0.00  0.00    +0.000 A 
ATOM     28  C   UNL     1      52.476   2.186  17.857  0.00  0.00    +0.000 A 
ATOM     29  C   UNL     1      52.362   3.492  18.298  0.00  0.00    +0.000 A 
ATOM     30  N   UNL     1      51.210   4.196  18.269  0.00  0.00    +0.000 NA
ENDBRANCH  24  25
ENDBRANCH  21  24
ENDBRANCH  17  18
ENDBRANCH   1  17
TORSDOF 6
ENDMDL
MODEL 2
REMARK VINA RESULT:    -7.298      1.479      2.412
REMARK INTER + INTRA:         -11.287
REMARK INTER:                  -9.856
REMARK INTRA:                  -1.431
REMARK UNBOUND:                -1.429
REMARK  Name = 
REMARK  7 active torsions:
REMARK  status: ('A' for Active; 'I' for Inactive)
REMARK    1  A    between atoms: C_1  and  C_2
REMARK    2  A    between atoms: C_2  and  N_3
REMARK    3  A    between atoms: N_3  and  C_4
REMARK    4  A    between atoms: C_4  and  C_5
REMARK    5  A    between atoms: C_8  and  C_9
REMARK    6  A    between atoms: C_9  and  C_10
REMARK    7  A    between atoms: C_18  and  C_20
REMARK                            x       y       z     vdW  Elec       q    Type
REMARK                         _______ _______ _______ _____ _____    ______ ____
ROOT
ATOM      1  N   UNL     1      46.235   7.138  12.229  0.00  0.00    +0.000 N 
ATOM      2  C   UNL     1      44.979   6.779  11.711  0.00  0.00    +0.000 C 
ATOM      3  O   UNL     1      44.161   7.628  11.362  0.00  0.00    +0.000 OA
ENDROOT
BRANCH   2   4
ATOM      4  C   UNL     1      44.613   5.363  11.629  0.00  0.00    +0.000 A 
ATOM      5  C   UNL     1      43.889   4.681  12.594  0.00  0.00    +0.000 A 
ATOM      6  S   UNL     1      43.521   3.073  12.158  0.00  0.00    +0.000 S 
ATOM      7  C   UNL     1      44.212   3.283  10.619  0.00  0.00    +0.000 A 
ATOM      8  N   UNL     1      44.142   2.306   9.680  0.00  0.00    +0.000 NA
ATOM      9  C   UNL     1      44.656   2.622   8.544  0.00  0.00    +0.000 A 
ATOM     10  N   UNL     1      45.266   3.821   8.264  0.00  0.00    +0.000 N 
ATOM     11  C   UNL     1      45.478   4.793   9.219  0.00  0.00    +0.000 A 
ATOM     12  O   UNL     1      46.229   5.737   9.012  0.00  0.00    +0.000 OA
ATOM     13  C   UNL     1      44.801   4.523  10.479  0.00  0.00    +0.000 A 
ATOM     14  H   UNL     1      45.712   3.979   7.374  0.00  0.00    +0.000 HD
ENDBRANCH   2   4
BRANCH   1  16
ATOM     15  C   UNL     1      47.860   9.019  11.945  0.00  0.00    +0.000 C 
ATOM     16  C   UNL     1      46.469   8.582  12.397  0.00  0.00    +0.000 C 
ENDBRANCH   1  16
BRANCH   1  17
ATOM     17  C   UNL     1      47.286   6.154  12.558  0.00  0.00    +0.000 C 
BRANCH  17  18
ATOM     18  C   UNL     1      47.488   5.868  14.021  0.00  0.00    +0.000 A 
ATOM     19  C   UNL     1      48.381   6.638  14.780  0.00  0.00    +0.000 A 
ATOM     20  C   UNL     1      48.790   6.192  16.034  0.00  0.00    +0.000 A 
ATOM     21  C   UNL     1      48.279   4.997  16.558  0.00  0.00    +0.000 A 
ATOM     22  C   UNL     1      47.267   4.322  15.863  0.00  0.00    +0.000 A 
ATOM     23  C   UNL     1      46.879   4.752  14.598  0.00  0.00    +0.000 A 
BRANCH  21  24
ATOM     24  C   UNL     1      48.881   4.372  17.794  0.00  0.00    +0.000 C 
BRANCH  24  25
ATOM     25  C   UNL     1      48.342   4.840  19.121  0.00  0.00    +0.000 A 
ATOM     26  C   UNL     1      47.398   5.863  19.184  0.00  0.00    +0.000 A 
ATOM     27  C   UNL     1      47.048   6.381  20.427  0.00  0.00    +0.000 A 
ATOM     28  C   UNL     1      47.635   5.858  21.572  0.00  0.00    +0.000 A 
ATOM     29  C   UNL     1      48.543   4.825  21.427  0.00  0.00    +0.000 A 
ATOM     30  N   UNL     1      48.911   4.311  20.234  0.00  0.00    +0.000 NA
ENDBRANCH  24  25
ENDBRANCH  21  24
ENDBRANCH  17  18
ENDBRANCH   1  17
TORSDOF 6
ENDMDL
MODEL 3
REMARK VINA RESULT:    -6.874      2.908      7.911
REMARK INTER + INTRA:         -10.714
REMARK INTER:                  -9.455
REMARK INTRA:                  -1.260
REMARK UNBOUND:                -1.429
REMARK  Name = 
REMARK  7 active torsions:
REMARK  status: ('A' for Active; 'I' for Inactive)
REMARK    1  A    between atoms: C_1  and  C_2
REMARK    2  A    between atoms: C_2  and  N_3
REMARK    3  A    between atoms: N_3  and  C_4
REMARK    4  A    between atoms: C_4  and  C_5
REMARK    5  A    between atoms: C_8  and  C_9
REMARK    6  A    between atoms: C_9  and  C_10
REMARK    7  A    between atoms: C_18  and  C_20
REMARK                            x       y       z     vdW  Elec       q    Type
REMARK                         _______ _______ _______ _____ _____    ______ ____
ROOT
ATOM      1  N   UNL     1      48.623   7.152  15.314  0.00  0.00    +0.000 N 
ATOM      2  C   UNL     1      48.463   6.790  16.662  0.00  0.00    +0.000 C 
ATOM      3  O   UNL     1      48.359   7.635  17.548  0.00  0.00    +0.000 OA
ENDROOT
BRANCH   2   4
ATOM      4  C   UNL     1      48.470   5.372  17.031  0.00  0.00    +0.000 A 
ATOM      5  C   UNL     1      47.355   4.549  17.012  0.00  0.00    +0.000 A 
ATOM      6  S   UNL     1      47.705   2.920  17.383  0.00  0.00    +0.000 S 
ATOM      7  C   UNL     1      49.372   3.247  17.457  0.00  0.00    +0.000 A 
ATOM      8  N   UNL     1      50.274   2.249  17.635  0.00  0.00    +0.000 NA
ATOM      9  C   UNL     1      51.502   2.633  17.614  0.00  0.00    +0.000 A 
ATOM     10  N   UNL     1      51.916   3.934  17.461  0.00  0.00    +0.000 N 
ATOM     11  C   UNL     1      51.038   4.996  17.408  0.00  0.00    +0.000 A 
ATOM     12  O   UNL     1      51.429   6.151  17.516  0.00  0.00    +0.000 OA
ATOM     13  C   UNL     1      49.645   4.591  17.302  0.00  0.00    +0.000 A 
ATOM     14  H   UNL     1      52.893   4.177  17.525  0.00  0.00    +0.000 HD
ENDBRANCH   2   4
BRANCH   1  16
ATOM     15  C   UNL     1      49.786   8.930  13.993  0.00  0.00    +0.000 C 
ATOM     16  C   UNL     1      48.736   8.596  15.049  0.00  0.00    +0.000 C 
ENDBRANCH   1  16
BRANCH   1  17
ATOM     17  C   UNL     1      48.642   6.172  14.210  0.00  0.00    +0.000 C 
BRANCH  17  18
ATOM     18  C   UNL     1      47.360   6.025  13.436  0.00  0.00    +0.000 A 
ATOM     19  C   UNL     1      46.514   4.930  13.663  0.00  0.00    +0.000 A 
ATOM     20  C   UNL     1      45.501   4.637  12.753  0.00  0.00    +0.000 A 
ATOM     21  C   UNL     1      45.297   5.457  11.635  0.00  0.00    +0.000 A 
ATOM     22  C   UNL     1      46.041   6.637  11.507  0.00  0.00    +0.000 A 
ATOM     23  C   UNL     1      47.073   6.915  12.399  0.00  0.00    +0.000 A 
BRANCH  21  24
ATOM     24  C   UNL     1      44.375   5.030  10.518  0.00  0.00    +0.000 C 
BRANCH  24  25
ATOM     25  C   UNL     1      44.948   4.096   9.486  0.00  0.00    +0.000 A 
ATOM     26  C   UNL     1      44.855   2.715   9.647  0.00  0.00    +0.000 A 
ATOM     27  C   UNL     1      45.537   1.885   8.763  0.00  0.00    +0.000 A 
ATOM     28  C   UNL     1      46.281   2.451   7.735  0.00  0.00    +0.000 A 
ATOM     29  C   UNL     1      46.302   3.830   7.626  0.00  0.00    +0.000 A 
ATOM     30  N   UNL     1      45.659   4.660   8.476  0.00  0.00    +0.000 NA
ENDBRANCH  24  25
ENDBRANCH  21  24
ENDBRANCH  17  18
ENDBRANCH   1  17
TORSDOF 6
ENDMDL
MODEL 4
REMARK VINA RESULT:    -6.766      3.957      8.321
REMARK INTER + INTRA:         -10.568
REMARK INTER:                  -9.669
REMARK INTRA:                  -0.899
REMARK UNBOUND:                -1.429
REMARK  Name = 
REMARK  7 active torsions:
REMARK  status: ('A' for Active; 'I' for Inactive)
REMARK    1  A    between atoms: C_1  and  C_2
REMARK    2  A    between atoms: C_2  and  N_3
REMARK    3  A    between atoms: N_3  and  C_4
REMARK    4  A    between atoms: C_4  and  C_5
REMARK    5  A    between atoms: C_8  and  C_9
REMARK    6  A    between atoms: C_9  and  C_10
REMARK    7  A    between atoms: C_18  and  C_20
REMARK                            x       y       z     vdW  Elec       q    Type
REMARK                         _______ _______ _______ _____ _____    ______ ____
ROOT
ATOM      1  N   UNL     1      46.930   6.395  13.650  0.00  0.00    +0.000 N 
ATOM      2  C   UNL     1      48.261   6.842  13.717  0.00  0.00    +0.000 C 
ATOM      3  O   UNL     1      49.126   6.201  14.310  0.00  0.00    +0.000 OA
ENDROOT
BRANCH   2   4
ATOM      4  C   UNL     1      48.619   8.125  13.108  0.00  0.00    +0.000 A 
ATOM      5  C   UNL     1      48.741   8.343  11.745  0.00  0.00    +0.000 A 
ATOM      6  S   UNL     1      49.055   9.971  11.342  0.00  0.00    +0.000 S 
ATOM      7  C   UNL     1      48.915  10.450  12.967  0.00  0.00    +0.000 A 
ATOM      8  N   UNL     1      48.970  11.759  13.319  0.00  0.00    +0.000 NA
ATOM      9  C   UNL     1      48.793  11.980  14.574  0.00  0.00    +0.000 A 
ATOM     10  N   UNL     1      48.593  11.006  15.522  0.00  0.00    +0.000 N 
ATOM     11  C   UNL     1      48.659   9.659  15.236  0.00  0.00    +0.000 A 
ATOM     12  O   UNL     1      48.721   8.821  16.126  0.00  0.00    +0.000 OA
ATOM     13  C   UNL     1      48.733   9.374  13.811  0.00  0.00    +0.000 A 
ATOM     14  H   UNL     1      48.532  11.242  16.501  0.00  0.00    +0.000 HD
ENDBRANCH   2   4
BRANCH   1  16
ATOM     15  C   UNL     1      46.799   3.898  13.559  0.00  0.00    +0.000 C 
ATOM     16  C   UNL     1      46.632   5.162  14.398  0.00  0.00    +0.000 C 
ENDBRANCH   1  16
BRANCH   1  17
ATOM     17  C   UNL     1      45.887   7.076  12.857  0.00  0.00    +0.000 C 
BRANCH  17  18
ATOM     18  C   UNL     1      45.359   6.316  11.671  0.00  0.00    +0.000 A 
ATOM     19  C   UNL     1      44.101   5.698  11.724  0.00  0.00    +0.000 A 
ATOM     20  C   UNL     1      43.749   4.758  10.759  0.00  0.00    +0.000 A 
ATOM     21  C   UNL     1      44.630   4.458   9.711  0.00  0.00    +0.000 A 
ATOM     22  C   UNL     1      45.812   5.199   9.578  0.00  0.00    +0.000 A 
ATOM     23  C   UNL     1      46.177   6.118  10.557  0.00  0.00    +0.000 A 
BRANCH  21  24
ATOM     24  C   UNL     1      44.379   3.281   8.800  0.00  0.00    +0.000 C 
BRANCH  24  25
ATOM     25  C   UNL     1      45.573   2.721   8.071  0.00  0.00    +0.000 A 
ATOM     26  C   UNL     1      46.127   3.400   6.988  0.00  0.00    +0.000 A 
ATOM     27  C   UNL     1      47.120   2.777   6.239  0.00  0.00    +0.000 A 
ATOM     28  C   UNL     1      47.543   1.503   6.595  0.00  0.00    +0.000 A 
ATOM     29  C   UNL     1      46.962   0.907   7.700  0.00  0.00    +0.000 A 
ATOM     30  N   UNL     1      45.989   1.483   8.439  0.00  0.00    +0.000 NA
ENDBRANCH  24  25
ENDBRANCH  21  24
ENDBRANCH  17  18
ENDBRANCH   1  17
TORSDOF 6
ENDMDL
MODEL 5
REMARK VINA RESULT:    -6.592      1.370      2.162
REMARK INTER + INTRA:         -10.333
REMARK INTER:                  -9.212
REMARK INTRA:                  -1.122
REMARK UNBOUND:                -1.429
REMARK  Name = 
REMARK  7 active torsions:
REMARK  status: ('A' for Active; 'I' for Inactive)
REMARK    1  A    between atoms: C_1  and  C_2
REMARK    2  A    between atoms: C_2  and  N_3
REMARK    3  A    between atoms: N_3  and  C_4
REMARK    4  A    between atoms: C_4  and  C_5
REMARK    5  A    between atoms: C_8  and  C_9
REMARK    6  A    between atoms: C_9  and  C_10
REMARK    7  A    between atoms: C_18  and  C_20
REMARK                            x       y       z     vdW  Elec       q    Type
REMARK                         _______ _______ _______ _____ _____    ______ ____
ROOT
ATOM      1  N   UNL     1      46.551   7.193  12.413  0.00  0.00    +0.000 N 
ATOM      2  C   UNL     1      45.575   7.148  11.403  0.00  0.00    +0.000 C 
ATOM      3  O   UNL     1      44.965   8.155  11.052  0.00  0.00    +0.000 OA
ENDROOT
BRANCH   2   4
ATOM      4  C   UNL     1      45.239   5.862  10.785  0.00  0.00    +0.000 A 
ATOM      5  C   UNL     1      45.720   5.428   9.560  0.00  0.00    +0.000 A 
ATOM      6  S   UNL     1      45.240   3.839   9.165  0.00  0.00    +0.000 S 
ATOM      7  C   UNL     1      44.480   3.644  10.674  0.00  0.00    +0.000 A 
ATOM      8  N   UNL     1      43.945   2.451  11.040  0.00  0.00    +0.000 NA
ATOM      9  C   UNL     1      43.454   2.432  12.229  0.00  0.00    +0.000 A 
ATOM     10  N   UNL     1      43.420   3.508  13.083  0.00  0.00    +0.000 N 
ATOM     11  C   UNL     1      43.831   4.770  12.711  0.00  0.00    +0.000 A 
ATOM     12  O   UNL     1      43.569   5.752  13.393  0.00  0.00    +0.000 OA
ATOM     13  C   UNL     1      44.506   4.803  11.422  0.00  0.00    +0.000 A 
ATOM     14  H   UNL     1      42.956   3.445  13.976  0.00  0.00    +0.000 HD
ENDBRANCH   2   4
BRANCH   1  16
ATOM     15  C   UNL     1      47.913   9.289  12.509  0.00  0.00    +0.000 C 
ATOM     16  C   UNL     1      46.733   8.499  13.068  0.00  0.00    +0.000 C 
ENDBRANCH   1  16
BRANCH   1  17
ATOM     17  C   UNL     1      47.382   6.031  12.788  0.00  0.00    +0.000 C 
BRANCH  17  18
ATOM     18  C   UNL     1      47.524   5.770  14.262  0.00  0.00    +0.000 A 
ATOM     19  C   UNL     1      48.369   6.568  15.048  0.00  0.00    +0.000 A 
ATOM     20  C   UNL     1      48.730   6.148  16.325  0.00  0.00    +0.000 A 
ATOM     21  C   UNL     1      48.218   4.951  16.846  0.00  0.00    +0.000 A 
ATOM     22  C   UNL     1      47.250   4.248  16.117  0.00  0.00    +0.000 A 
ATOM     23  C   UNL     1      46.911   4.652  14.830  0.00  0.00    +0.000 A 
BRANCH  21  24
ATOM     24  C   UNL     1      48.776   4.356  18.116  0.00  0.00    +0.000 C 
BRANCH  24  25
ATOM     25  C   UNL     1      50.014   3.509  17.981  0.00  0.00    +0.000 A 
ATOM     26  C   UNL     1      51.259   4.004  18.362  0.00  0.00    +0.000 A 
ATOM     27  C   UNL     1      52.398   3.260  18.071  0.00  0.00    +0.000 A 
ATOM     28  C   UNL     1      52.266   2.039  17.423  0.00  0.00    +0.000 A 
ATOM     29  C   UNL     1      50.993   1.604  17.102  0.00  0.00    +0.000 A 
ATOM     30  N   UNL     1      49.871   2.310  17.361  0.00  0.00    +0.000 NA
ENDBRANCH  24  25
ENDBRANCH  21  24
ENDBRANCH  17  18
ENDBRANCH   1  17
TORSDOF 6
ENDMDL
MODEL 6
REMARK VINA RESULT:    -6.576      3.427      8.240
REMARK INTER + INTRA:         -10.311
REMARK INTER:                  -8.877
REMARK INTRA:                  -1.434
REMARK UNBOUND:                -1.429
REMARK  Name = 
REMARK  7 active torsions:
REMARK  status: ('A' for Active; 'I' for Inactive)
REMARK    1  A    between atoms: C_1  and  C_2
REMARK    2  A    between atoms: C_2  and  N_3
REMARK    3  A    between atoms: N_3  and  C_4
REMARK    4  A    between atoms: C_4  and  C_5
REMARK    5  A    between atoms: C_8  and  C_9
REMARK    6  A    between atoms: C_9  and  C_10
REMARK    7  A    between atoms: C_18  and  C_20
REMARK                            x       y       z     vdW  Elec       q    Type
REMARK                         _______ _______ _______ _____ _____    ______ ____
ROOT
ATOM      1  N   UNL     1      49.498   7.517  14.654  0.00  0.00    +0.000 N 
ATOM      2  C   UNL     1      49.994   6.859  15.793  0.00  0.00    +0.000 C 
ATOM      3  O   UNL     1      51.201   6.752  16.000  0.00  0.00    +0.000 OA
ENDROOT
BRANCH   2   4
ATOM      4  C   UNL     1      49.054   6.243  16.733  0.00  0.00    +0.000 A 
ATOM      5  C   UNL     1      48.631   4.924  16.671  0.00  0.00    +0.000 A 
ATOM      6  S   UNL     1      47.627   4.471  17.974  0.00  0.00    +0.000 S 
ATOM      7  C   UNL     1      47.830   5.985  18.719  0.00  0.00    +0.000 A 
ATOM      8  N   UNL     1      47.313   6.237  19.948  0.00  0.00    +0.000 NA
ATOM      9  C   UNL     1      47.591   7.403  20.414  0.00  0.00    +0.000 A 
ATOM     10  N   UNL     1      48.320   8.360  19.751  0.00  0.00    +0.000 N 
ATOM     11  C   UNL     1      48.755   8.201  18.452  0.00  0.00    +0.000 A 
ATOM     12  O   UNL     1      49.183   9.147  17.803  0.00  0.00    +0.000 OA
ATOM     13  C   UNL     1      48.567   6.853  17.939  0.00  0.00    +0.000 A 
ATOM     14  H   UNL     1      48.443   9.281  20.143  0.00  0.00    +0.000 HD
ENDBRANCH   2   4
BRANCH   1  16
ATOM     15  C   UNL     1      50.405   9.486  13.407  0.00  0.00    +0.000 C 
ATOM     16  C   UNL     1      50.512   7.993  13.699  0.00  0.00    +0.000 C 
ENDBRANCH   1  16
BRANCH   1  17
ATOM     17  C   UNL     1      48.061   7.763  14.424  0.00  0.00    +0.000 C 
BRANCH  17  18
ATOM     18  C   UNL     1      47.420   6.954  13.330  0.00  0.00    +0.000 A 
ATOM     19  C   UNL     1      47.186   7.521  12.069  0.00  0.00    +0.000 A 
ATOM     20  C   UNL     1      46.335   6.886  11.169  0.00  0.00    +0.000 A 
ATOM     21  C   UNL     1      45.745   5.658  11.502  0.00  0.00    +0.000 A 
ATOM     22  C   UNL     1      46.115   5.023  12.695  0.00  0.00    +0.000 A 
ATOM     23  C   UNL     1      46.942   5.672  13.607  0.00  0.00    +0.000 A 
BRANCH  21  24
ATOM     24  C   UNL     1      44.641   5.073  10.655  0.00  0.00    +0.000 C 
BRANCH  24  25
ATOM     25  C   UNL     1      45.055   4.114   9.569  0.00  0.00    +0.000 A 
ATOM     26  C   UNL     1      44.916   2.739   9.744  0.00  0.00    +0.000 A 
ATOM     27  C   UNL     1      45.459   1.880   8.794  0.00  0.00    +0.000 A 
ATOM     28  C   UNL     1      46.113   2.412   7.690  0.00  0.00    +0.000 A 
ATOM     29  C   UNL     1      46.186   3.789   7.575  0.00  0.00    +0.000 A 
ATOM     30  N   UNL     1      45.678   4.646   8.487  0.00  0.00    +0.000 NA
ENDBRANCH  24  25
ENDBRANCH  21  24
ENDBRANCH  17  18
ENDBRANCH   1  17
TORSDOF 6
ENDMDL
MODEL 7
REMARK VINA RESULT:    -6.434      3.497      7.848
REMARK INTER + INTRA:         -10.120
REMARK INTER:                  -8.800
REMARK INTRA:                  -1.320
REMARK UNBOUND:                -1.429
REMARK  Name = 
REMARK  7 active torsions:
REMARK  status: ('A' for Active; 'I' for Inactive)
REMARK    1  A    between atoms: C_1  and  C_2
REMARK    2  A    between atoms: C_2  and  N_3
REMARK    3  A    between atoms: N_3  and  C_4
REMARK    4  A    between atoms: C_4  and  C_5
REMARK    5  A    between atoms: C_8  and  C_9
REMARK    6  A    between atoms: C_9  and  C_10
REMARK    7  A    between atoms: C_18  and  C_20
REMARK                            x       y       z     vdW  Elec       q    Type
REMARK                         _______ _______ _______ _____ _____    ______ ____
ROOT
ATOM      1  N   UNL     1      48.366   9.365  13.610  0.00  0.00    +0.000 N 
ATOM      2  C   UNL     1      49.265   9.630  14.658  0.00  0.00    +0.000 C 
ATOM      3  O   UNL     1      50.374  10.115  14.446  0.00  0.00    +0.000 OA
ENDROOT
BRANCH   2   4
ATOM      4  C   UNL     1      48.894   9.276  16.030  0.00  0.00    +0.000 A 
ATOM      5  C   UNL     1      48.416  10.173  16.972  0.00  0.00    +0.000 A 
ATOM      6  S   UNL     1      47.962   9.437  18.443  0.00  0.00    +0.000 S 
ATOM      7  C   UNL     1      48.275   7.887  17.819  0.00  0.00    +0.000 A 
ATOM      8  N   UNL     1      47.991   6.771  18.536  0.00  0.00    +0.000 NA
ATOM      9  C   UNL     1      48.226   5.668  17.919  0.00  0.00    +0.000 A 
ATOM     10  N   UNL     1      48.750   5.572  16.652  0.00  0.00    +0.000 N 
ATOM     11  C   UNL     1      49.176   6.670  15.935  0.00  0.00    +0.000 A 
ATOM     12  O   UNL     1      49.855   6.546  14.924  0.00  0.00    +0.000 OA
ATOM     13  C   UNL     1      48.812   7.938  16.548  0.00  0.00    +0.000 A 
ATOM     14  H   UNL     1      48.977   4.674  16.253  0.00  0.00    +0.000 HD
ENDBRANCH   2   4
BRANCH   1  16
ATOM     15  C   UNL     1      49.727   8.497  11.700  0.00  0.00    +0.000 C 
ATOM     16  C   UNL     1      48.870   9.631  12.253  0.00  0.00    +0.000 C 
ENDBRANCH   1  16
BRANCH   1  17
ATOM     17  C   UNL     1      46.986   8.887  13.830  0.00  0.00    +0.000 C 
BRANCH  17  18
ATOM     18  C   UNL     1      46.461   7.903  12.821  0.00  0.00    +0.000 A 
ATOM     19  C   UNL     1      45.410   8.258  11.962  0.00  0.00    +0.000 A 
ATOM     20  C   UNL     1      44.732   7.271  11.251  0.00  0.00    +0.000 A 
ATOM     21  C   UNL     1      45.124   5.930  11.357  0.00  0.00    +0.000 A 
ATOM     22  C   UNL     1      46.275   5.609  12.088  0.00  0.00    +0.000 A 
ATOM     23  C   UNL     1      46.935   6.590  12.822  0.00  0.00    +0.000 A 
BRANCH  21  24
ATOM     24  C   UNL     1      44.264   4.824  10.794  0.00  0.00    +0.000 C 
BRANCH  24  25
ATOM     25  C   UNL     1      44.854   4.011   9.671  0.00  0.00    +0.000 A 
ATOM     26  C   UNL     1      44.814   2.619   9.705  0.00  0.00    +0.000 A 
ATOM     27  C   UNL     1      45.511   1.901   8.739  0.00  0.00    +0.000 A 
ATOM     28  C   UNL     1      46.218   2.587   7.759  0.00  0.00    +0.000 A 
ATOM     29  C   UNL     1      46.186   3.970   7.778  0.00  0.00    +0.000 A 
ATOM     30  N   UNL     1      45.528   4.692   8.710  0.00  0.00    +0.000 NA
ENDBRANCH  24  25
ENDBRANCH  21  24
ENDBRANCH  17  18
ENDBRANCH   1  17
TORSDOF 6
ENDMDL
MODEL 8
REMARK VINA RESULT:    -6.158      3.254      7.861
REMARK INTER + INTRA:          -9.747
REMARK INTER:                  -8.344
REMARK INTRA:                  -1.403
REMARK UNBOUND:                -1.429
REMARK  Name = 
REMARK  7 active torsions:
REMARK  status: ('A' for Active; 'I' for Inactive)
REMARK    1  A    between atoms: C_1  and  C_2
REMARK    2  A    between atoms: C_2  and  N_3
REMARK    3  A    between atoms: N_3  and  C_4
REMARK    4  A    between atoms: C_4  and  C_5
REMARK    5  A    between atoms: C_8  and  C_9
REMARK    6  A    between atoms: C_9  and  C_10
REMARK    7  A    between atoms: C_18  and  C_20
REMARK                            x       y       z     vdW  Elec       q    Type
REMARK                         _______ _______ _______ _____ _____    ______ ____
ROOT
ATOM      1  N   UNL     1      49.108   7.393  17.249  0.00  0.00    +0.000 N 
ATOM      2  C   UNL     1      48.442   6.416  18.008  0.00  0.00    +0.000 C 
ATOM      3  O   UNL     1      47.901   6.690  19.077  0.00  0.00    +0.000 OA
ENDROOT
BRANCH   2   4
ATOM      4  C   UNL     1      48.433   5.026  17.544  0.00  0.00    +0.000 A 
ATOM      5  C   UNL     1      47.430   4.462  16.772  0.00  0.00    +0.000 A 
ATOM      6  S   UNL     1      47.762   2.858  16.293  0.00  0.00    +0.000 S 
ATOM      7  C   UNL     1      49.308   2.917  16.998  0.00  0.00    +0.000 A 
ATOM      8  N   UNL     1      50.181   1.888  16.860  0.00  0.00    +0.000 NA
ATOM      9  C   UNL     1      51.332   2.092  17.397  0.00  0.00    +0.000 A 
ATOM     10  N   UNL     1      51.686   3.225  18.089  0.00  0.00    +0.000 N 
ATOM     11  C   UNL     1      50.795   4.240  18.368  0.00  0.00    +0.000 A 
ATOM     12  O   UNL     1      51.060   5.113  19.184  0.00  0.00    +0.000 OA
ATOM     13  C   UNL     1      49.525   4.101  17.673  0.00  0.00    +0.000 A 
ATOM     14  H   UNL     1      52.583   3.292  18.547  0.00  0.00    +0.000 HD
ENDBRANCH   2   4
BRANCH   1  16
ATOM     15  C   UNL     1      50.514   9.010  18.538  0.00  0.00    +0.000 C 
ATOM     16  C   UNL     1      49.179   8.733  17.853  0.00  0.00    +0.000 C 
ENDBRANCH   1  16
BRANCH   1  17
ATOM     17  C   UNL     1      49.675   7.129  15.911  0.00  0.00    +0.000 C 
BRANCH  17  18
ATOM     18  C   UNL     1      48.741   7.326  14.748  0.00  0.00    +0.000 A 
ATOM     19  C   UNL     1      48.058   8.540  14.582  0.00  0.00    +0.000 A 
ATOM     20  C   UNL     1      46.983   8.616  13.700  0.00  0.00    +0.000 A 
ATOM     21  C   UNL     1      46.609   7.496  12.945  0.00  0.00    +0.000 A 
ATOM     22  C   UNL     1      47.400   6.340  12.999  0.00  0.00    +0.000 A 
ATOM     23  C   UNL     1      48.455   6.254  13.901  0.00  0.00    +0.000 A 
BRANCH  21  24
ATOM     24  C   UNL     1      45.314   7.480  12.170  0.00  0.00    +0.000 C 
BRANCH  24  25
ATOM     25  C   UNL     1      44.643   6.142  11.998  0.00  0.00    +0.000 A 
ATOM     26  C   UNL     1      44.695   5.473  10.778  0.00  0.00    +0.000 A 
ATOM     27  C   UNL     1      43.929   4.324  10.605  0.00  0.00    +0.000 A 
ATOM     28  C   UNL     1      43.144   3.866  11.656  0.00  0.00    +0.000 A 
ATOM     29  C   UNL     1      43.168   4.571  12.845  0.00  0.00    +0.000 A 
ATOM     30  N   UNL     1      43.892   5.695  13.037  0.00  0.00    +0.000 NA
ENDBRANCH  24  25
ENDBRANCH  21  24
ENDBRANCH  17  18
ENDBRANCH   1  17
TORSDOF 6
ENDMDL
MODEL 9
REMARK VINA RESULT:    -6.093      3.556      7.981
REMARK INTER + INTRA:          -9.659
REMARK INTER:                  -8.328
REMARK INTRA:                  -1.331
REMARK UNBOUND:                -1.429
REMARK  Name = 
REMARK  7 active torsions:
REMARK  status: ('A' for Active; 'I' for Inactive)
REMARK    1  A    between atoms: C_1  and  C_2
REMARK    2  A    between atoms: C_2  and  N_3
REMARK    3  A    between atoms: N_3  and  C_4
REMARK    4  A    between atoms: C_4  and  C_5
REMARK    5  A    between atoms: C_8  and  C_9
REMARK    6  A    between atoms: C_9  and  C_10
REMARK    7  A    between atoms: C_18  and  C_20
REMARK                            x       y       z     vdW  Elec       q    Type
REMARK                         _______ _______ _______ _____ _____    ______ ____
ROOT
ATOM      1  N   UNL     1      48.744   7.515  14.693  0.00  0.00    +0.000 N 
ATOM      2  C   UNL     1      48.918   8.908  14.628  0.00  0.00    +0.000 C 
ATOM      3  O   UNL     1      48.935   9.603  15.641  0.00  0.00    +0.000 OA
ENDROOT
BRANCH   2   4
ATOM      4  C   UNL     1      49.032   9.558  13.319  0.00  0.00    +0.000 A 
ATOM      5  C   UNL     1      48.002  10.230  12.682  0.00  0.00    +0.000 A 
ATOM      6  S   UNL     1      48.477  10.979  11.225  0.00  0.00    +0.000 S 
ATOM      7  C   UNL     1      50.099  10.531  11.468  0.00  0.00    +0.000 A 
ATOM      8  N   UNL     1      51.077  10.953  10.628  0.00  0.00    +0.000 NA
ATOM      9  C   UNL     1      52.263  10.585  10.964  0.00  0.00    +0.000 A 
ATOM     10  N   UNL     1      52.563   9.805  12.055  0.00  0.00    +0.000 N 
ATOM     11  C   UNL     1      51.596   9.245  12.863  0.00  0.00    +0.000 A 
ATOM     12  O   UNL     1      51.871   8.367  13.670  0.00  0.00    +0.000 OA
ATOM     13  C   UNL     1      50.256   9.739  12.588  0.00  0.00    +0.000 A 
ATOM     14  H   UNL     1      53.508   9.493  12.223  0.00  0.00    +0.000 HD
ENDBRANCH   2   4
BRANCH   1  16
ATOM     15  C   UNL     1      49.690   6.160  16.570  0.00  0.00    +0.000 C 
ATOM     16  C   UNL     1      48.507   6.963  16.036  0.00  0.00    +0.000 C 
ENDBRANCH   1  16
BRANCH   1  17
ATOM     17  C   UNL     1      48.826   6.634  13.511  0.00  0.00    +0.000 C 
BRANCH  17  18
ATOM     18  C   UNL     1      47.515   6.256  12.877  0.00  0.00    +0.000 A 
ATOM     19  C   UNL     1      46.825   5.111  13.298  0.00  0.00    +0.000 A 
ATOM     20  C   UNL     1      45.787   4.601  12.522  0.00  0.00    +0.000 A 
ATOM     21  C   UNL     1      45.402   5.254  11.343  0.00  0.00    +0.000 A 
ATOM     22  C   UNL     1      45.989   6.485  11.019  0.00  0.00    +0.000 A 
ATOM     23  C   UNL     1      47.045   6.979  11.778  0.00  0.00    +0.000 A 
BRANCH  21  24
ATOM     24  C   UNL     1      44.454   4.599  10.367  0.00  0.00    +0.000 C 
BRANCH  24  25
ATOM     25  C   UNL     1      45.074   3.771   9.272  0.00  0.00    +0.000 A 
ATOM     26  C   UNL     1      45.140   2.384   9.380  0.00  0.00    +0.000 A 
ATOM     27  C   UNL     1      45.863   1.667   8.432  0.00  0.00    +0.000 A 
ATOM     28  C   UNL     1      46.490   2.348   7.396  0.00  0.00    +0.000 A 
ATOM     29  C   UNL     1      46.355   3.724   7.343  0.00  0.00    +0.000 A 
ATOM     30  N   UNL     1      45.668   4.446   8.255  0.00  0.00    +0.000 NA
ENDBRANCH  24  25
ENDBRANCH  21  24
ENDBRANCH  17  18
ENDBRANCH   1  17
TORSDOF 6
ENDMDL
