MODEL 1
REMARK VINA RESULT:    -7.601      0.000      0.000
REMARK INTER + INTRA:         -12.966
REMARK INTER:                 -11.823
REMARK INTRA:                  -1.143
REMARK UNBOUND:                -1.143
REMARK  Name = 
REMARK  12 active torsions:
REMARK  status: ('A' for Active; 'I' for Inactive)
REMARK    1  A    between atoms: C_1  and  C_2
REMARK    2  A    between atoms: C_2  and  C_3
REMARK    3  A    between atoms: C_2  and  N_11
REMARK    4  A    between atoms: C_3  and  C_4
REMARK    5  A    between atoms: C_8  and  O_9
REMARK    6  A    between atoms: N_11  and  C_12
REMARK    7  A    between atoms: N_11  and  C_13
REMARK    8  A    between atoms: C_13  and  C_14
REMARK    9  A    between atoms: C_17  and  C_18
REMARK   10  A    between atoms: C_18  and  N_19
REMARK   11  A    between atoms: N_19  and  C_20
REMARK   12  A    between atoms: C_20  and  C_21
REMARK                            x       y       z     vdW  Elec       q    Type
REMARK                         _______ _______ _______ _____ _____    ______ ____
ROOT
ATOM      1  C   UNL     1      46.907   5.840  13.090  0.00  0.00    +0.000 A 
ATOM      2  C   UNL     1      46.518   6.184  11.793  0.00  0.00    +0.000 A 
ATOM      3  C   UNL     1      45.378   5.627  11.227  0.00  0.00    +0.000 A 
ATOM      4  C   UNL     1      44.687   4.651  11.935  0.00  0.00    +0.000 A 
ATOM      5  N   UNL     1      45.077   4.249  13.172  0.00  0.00    +0.000 NA
ATOM      6  C   UNL     1      46.150   4.860  13.725  0.00  0.00    +0.000 A 
ENDROOT
BRANCH   1   7
ATOM      7  C   UNL     1      48.131   6.431  13.753  0.00  0.00    +0.000 C 
BRANCH   7   8
ATOM      8  N   UNL     1      47.912   7.561  14.691  0.00  0.00    +0.000 NA
ATOM      9  C   UNL     1      47.570   8.804  13.986  0.00  0.00    +0.000 C 
BRANCH   8  11
ATOM     10  C   UNL     1      50.436   7.316  14.991  0.00  0.00    +0.000 C 
ATOM     11  C   UNL     1      49.091   7.781  15.581  0.00  0.00    +0.000 C 
BRANCH  11  12
ATOM     12  C   UNL     1      48.965   7.182  17.023  0.00  0.00    +0.000 C 
BRANCH  12  13
ATOM     13  C   UNL     1      48.989   5.682  17.256  0.00  0.00    +0.000 A 
ATOM     14  C   UNL     1      50.153   4.910  17.352  0.00  0.00    +0.000 A 
ATOM     15  C   UNL     1      50.087   3.519  17.498  0.00  0.00    +0.000 A 
ATOM     16  C   UNL     1      48.854   2.870  17.543  0.00  0.00    +0.000 A 
ATOM     17  C   UNL     1      47.696   3.626  17.434  0.00  0.00    +0.000 A 
ATOM     18  C   UNL     1      47.755   5.010  17.290  0.00  0.00    +0.000 A 
BRANCH  17  19
ATOM     19  O   UNL     1      46.461   3.047  17.451  0.00  0.00    +0.000 OA
ATOM     20  H   UNL     1      45.820   3.688  17.104  0.00  0.00    +0.000 HD
ENDBRANCH  17  19
ENDBRANCH  12  13
ENDBRANCH  11  12
ENDBRANCH   8  11
ENDBRANCH   7   8
ENDBRANCH   1   7
BRANCH   4  21
ATOM     21  C   UNL     1      43.503   3.962  11.295  0.00  0.00    +0.000 C 
BRANCH  21  22
ATOM     22  N   UNL     1      43.752   3.567   9.917  0.00  0.00    +0.000 NA
ATOM     23  H   UNL     1      44.233   4.319   9.423  0.00  0.00    +0.000 HD
BRANCH  22  24
ATOM     24  C   UNL     1      44.553   2.348   9.857  0.00  0.00    +0.000 C 
BRANCH  24  25
ATOM     25  C   UNL     1      45.506   2.352   8.683  0.00  0.00    +0.000 A 
ATOM     26  C   UNL     1      45.711   3.527   7.957  0.00  0.00    +0.000 A 
ATOM     27  C   UNL     1      46.596   3.509   6.886  0.00  0.00    +0.000 A 
ATOM     28  C   UNL     1      47.248   2.322   6.566  0.00  0.00    +0.000 A 
ATOM     29  C   UNL     1      46.986   1.200   7.335  0.00  0.00    +0.000 A 
ATOM     30  N   UNL     1      46.133   1.187   8.382  0.00  0.00    +0.000 NA
ENDBRANCH  24  25
ENDBRANCH  22  24
ENDBRANCH  21  22
ENDBRANCH   4  21
TORSDOF 10
ENDMDL
MODEL 2
REMARK VINA RESULT:    -7.190      1.775      2.426
REMARK INTER + INTRA:         -12.326
REMARK INTER:                 -11.796
REMARK INTRA:                  -0.530
REMARK UNBOUND:                -1.143
REMARK  Name = 
REMARK  12 active torsions:
REMARK  status: ('A' for Active; 'I' for Inactive)
REMARK    1  A    between atoms: C_1  and  C_2
REMARK    2  A    between atoms: C_2  and  C_3
REMARK    3  A    between atoms: C_2  and  N_11
REMARK    4  A    between atoms: C_3  and  C_4
REMARK    5  A    between atoms: C_8  and  O_9
REMARK    6  A    between atoms: N_11  and  C_12
REMARK    7  A    between atoms: N_11  and  C_13
REMARK    8  A    between atoms: C_13  and  C_14
REMARK    9  A    between atoms: C_17  and  C_18
REMARK   10  A    between atoms: C_18  and  N_19
REMARK   11  A    between atoms: N_19  and  C_20
REMARK   12  A    between atoms: C_20  and  C_21
REMARK                            x       y       z     vdW  Elec       q    Type
REMARK                         _______ _______ _______ _____ _____    ______ ____
ROOT
ATOM      1  C   UNL     1      46.818   5.058  13.899  0.00  0.00    +0.000 A 
ATOM      2  C   UNL     1      45.769   5.800  13.352  0.00  0.00    +0.000 A 
ATOM      3  C   UNL     1      44.746   5.169  12.654  0.00  0.00    +0.000 A 
ATOM      4  C   UNL     1      44.835   3.800  12.428  0.00  0.00    +0.000 A 
ATOM      5  N   UNL     1      45.874   3.061  12.893  0.00  0.00    +0.000 NA
ATOM      6  C   UNL     1      46.819   3.693  13.628  0.00  0.00    +0.000 A 
ENDROOT
BRANCH   1   7
ATOM      7  C   UNL     1      47.944   5.699  14.678  0.00  0.00    +0.000 C 
BRANCH   7   8
ATOM      8  N   UNL     1      48.402   4.999  15.905  0.00  0.00    +0.000 NA
ATOM      9  C   UNL     1      47.283   4.406  16.651  0.00  0.00    +0.000 C 
BRANCH   8  11
ATOM     10  C   UNL     1      50.419   6.550  16.120  0.00  0.00    +0.000 C 
ATOM     11  C   UNL     1      49.197   5.897  16.795  0.00  0.00    +0.000 C 
BRANCH  11  12
ATOM     12  C   UNL     1      49.675   5.258  18.142  0.00  0.00    +0.000 C 
BRANCH  12  13
ATOM     13  C   UNL     1      50.819   4.260  18.175  0.00  0.00    +0.000 A 
ATOM     14  C   UNL     1      52.105   4.539  18.655  0.00  0.00    +0.000 A 
ATOM     15  C   UNL     1      53.125   3.583  18.587  0.00  0.00    +0.000 A 
ATOM     16  C   UNL     1      52.882   2.329  18.030  0.00  0.00    +0.000 A 
ATOM     17  C   UNL     1      51.614   2.048  17.540  0.00  0.00    +0.000 A 
ATOM     18  C   UNL     1      50.595   2.994  17.606  0.00  0.00    +0.000 A 
BRANCH  17  19
ATOM     19  O   UNL     1      51.320   0.846  16.965  0.00  0.00    +0.000 OA
ATOM     20  H   UNL     1      50.606   0.432  17.475  0.00  0.00    +0.000 HD
ENDBRANCH  17  19
ENDBRANCH  12  13
ENDBRANCH  11  12
ENDBRANCH   8  11
ENDBRANCH   7   8
ENDBRANCH   1   7
BRANCH   4  21
ATOM     21  C   UNL     1      43.784   3.113  11.587  0.00  0.00    +0.000 C 
BRANCH  21  22
ATOM     22  N   UNL     1      44.350   2.327  10.501  0.00  0.00    +0.000 NA
ATOM     23  H   UNL     1      43.754   1.521  10.311  0.00  0.00    +0.000 HD
BRANCH  22  24
ATOM     24  C   UNL     1      44.492   3.130   9.290  0.00  0.00    +0.000 C 
BRANCH  24  25
ATOM     25  C   UNL     1      45.570   2.593   8.376  0.00  0.00    +0.000 A 
ATOM     26  C   UNL     1      46.176   3.437   7.442  0.00  0.00    +0.000 A 
ATOM     27  C   UNL     1      47.169   2.923   6.617  0.00  0.00    +0.000 A 
ATOM     28  C   UNL     1      47.528   1.586   6.742  0.00  0.00    +0.000 A 
ATOM     29  C   UNL     1      46.876   0.815   7.692  0.00  0.00    +0.000 A 
ATOM     30  N   UNL     1      45.909   1.286   8.509  0.00  0.00    +0.000 NA
ENDBRANCH  24  25
ENDBRANCH  22  24
ENDBRANCH  21  22
ENDBRANCH   4  21
TORSDOF 10
ENDMDL
MODEL 3
REMARK VINA RESULT:    -6.718      2.493      8.614
REMARK INTER + INTRA:         -11.591
REMARK INTER:                 -10.908
REMARK INTRA:                  -0.683
REMARK UNBOUND:                -1.143
REMARK  Name = 
REMARK  12 active torsions:
REMARK  status: ('A' for Active; 'I' for Inactive)
REMARK    1  A    between atoms: C_1  and  C_2
REMARK    2  A    between atoms: C_2  and  C_3
REMARK    3  A    between atoms: C_2  and  N_11
REMARK    4  A    between atoms: C_3  and  C_4
REMARK    5  A    between atoms: C_8  and  O_9
REMARK    6  A    between atoms: N_11  and  C_12
REMARK    7  A    between atoms: N_11  and  C_13
REMARK    8  A    between atoms: C_13  and  C_14
REMARK    9  A    between atoms: C_17  and  C_18
REMARK   10  A    between atoms: C_18  and  N_19
REMARK   11  A    between atoms: N_19  and  C_20
REMARK   12  A    between atoms: C_20  and  C_21
REMARK                            x       y       z     vdW  Elec       q    Type
REMARK                         _______ _______ _______ _____ _____    ______ ____
ROOT
ATOM      1  C   UNL     1      45.826   5.924  13.236  0.00  0.00    +0.000 A 
ATOM      2  C   UNL     1      46.177   7.258  13.013  0.00  0.00    +0.000 A 
ATOM      3  C   UNL     1      47.440   7.723  13.360  0.00  0.00    +0.000 A 
ATOM      4  C   UNL     1      48.312   6.864  14.018  0.00  0.00    +0.000 A 
ATOM      5  N   UNL     1      47.976   5.580  14.305  0.00  0.00    +0.000 NA
ATOM      6  C   UNL     1      46.765   5.137  13.894  0.00  0.00    +0.000 A 
ENDROOT
BRANCH   1   7
ATOM      7  C   UNL     1      44.469   5.370  12.862  0.00  0.00    +0.000 C 
BRANCH   7   8
ATOM      8  N   UNL     1      44.080   5.444  11.431  0.00  0.00    +0.000 NA
ATOM      9  C   UNL     1      42.760   4.845  11.188  0.00  0.00    +0.000 C 
BRANCH   8  11
ATOM     10  C   UNL     1      45.983   5.816   9.771  0.00  0.00    +0.000 C 
ATOM     11  C   UNL     1      45.103   4.815  10.543  0.00  0.00    +0.000 C 
BRANCH  11  12
ATOM     12  C   UNL     1      44.551   3.768   9.518  0.00  0.00    +0.000 C 
BRANCH  12  13
ATOM     13  C   UNL     1      45.468   3.095   8.512  0.00  0.00    +0.000 A 
ATOM     14  C   UNL     1      46.009   3.724   7.383  0.00  0.00    +0.000 A 
ATOM     15  C   UNL     1      46.790   3.014   6.465  0.00  0.00    +0.000 A 
ATOM     16  C   UNL     1      47.041   1.656   6.652  0.00  0.00    +0.000 A 
ATOM     17  C   UNL     1      46.498   1.021   7.760  0.00  0.00    +0.000 A 
ATOM     18  C   UNL     1      45.721   1.723   8.678  0.00  0.00    +0.000 A 
BRANCH  17  19
ATOM     19  O   UNL     1      46.691  -0.311   7.987  0.00  0.00    +0.000 OA
ATOM     20  H   UNL     1      46.699  -0.767   7.131  0.00  0.00    +0.000 HD
ENDBRANCH  17  19
ENDBRANCH  12  13
ENDBRANCH  11  12
ENDBRANCH   8  11
ENDBRANCH   7   8
ENDBRANCH   1   7
BRANCH   4  21
ATOM     21  C   UNL     1      49.651   7.379  14.492  0.00  0.00    +0.000 C 
BRANCH  21  22
ATOM     22  N   UNL     1      49.713   7.563  15.934  0.00  0.00    +0.000 NA
ATOM     23  H   UNL     1      48.779   7.468  16.334  0.00  0.00    +0.000 HD
BRANCH  22  24
ATOM     24  C   UNL     1      50.612   6.591  16.548  0.00  0.00    +0.000 C 
BRANCH  24  25
ATOM     25  C   UNL     1      49.857   5.472  17.230  0.00  0.00    +0.000 A 
ATOM     26  C   UNL     1      50.436   4.206  17.338  0.00  0.00    +0.000 A 
ATOM     27  C   UNL     1      49.727   3.195  17.975  0.00  0.00    +0.000 A 
ATOM     28  C   UNL     1      48.462   3.472  18.483  0.00  0.00    +0.000 A 
ATOM     29  C   UNL     1      47.959   4.754  18.332  0.00  0.00    +0.000 A 
ATOM     30  N   UNL     1      48.625   5.757  17.720  0.00  0.00    +0.000 NA
ENDBRANCH  24  25
ENDBRANCH  22  24
ENDBRANCH  21  22
ENDBRANCH   4  21
TORSDOF 10
ENDMDL
MODEL 4
REMARK VINA RESULT:    -6.687      2.868      8.735
REMARK INTER + INTRA:         -11.544
REMARK INTER:                 -10.942
REMARK INTRA:                  -0.602
REMARK UNBOUND:                -1.143
REMARK  Name = 
REMARK  12 active torsions:
REMARK  status: ('A' for Active; 'I' for Inactive)
REMARK    1  A    between atoms: C_1  and  C_2
REMARK    2  A    between atoms: C_2  and  C_3
REMARK    3  A    between atoms: C_2  and  N_11
REMARK    4  A    between atoms: C_3  and  C_4
REMARK    5  A    between atoms: C_8  and  O_9
REMARK    6  A    between atoms: N_11  and  C_12
REMARK    7  A    between atoms: N_11  and  C_13
REMARK    8  A    between atoms: C_13  and  C_14
REMARK    9  A    between atoms: C_17  and  C_18
REMARK   10  A    between atoms: C_18  and  N_19
REMARK   11  A    between atoms: N_19  and  C_20
REMARK   12  A    between atoms: C_20  and  C_21
REMARK                            x       y       z     vdW  Elec       q    Type
REMARK                         _______ _______ _______ _____ _____    ______ ____
ROOT
ATOM      1  C   UNL     1      46.894   5.208  13.368  0.00  0.00    +0.000 A 
ATOM      2  C   UNL     1      46.859   4.561  14.605  0.00  0.00    +0.000 A 
ATOM      3  C   UNL     1      47.672   4.987  15.648  0.00  0.00    +0.000 A 
ATOM      4  C   UNL     1      48.587   6.005  15.411  0.00  0.00    +0.000 A 
ATOM      5  N   UNL     1      48.689   6.612  14.200  0.00  0.00    +0.000 NA
ATOM      6  C   UNL     1      47.836   6.221  13.225  0.00  0.00    +0.000 A 
ENDROOT
BRANCH   1   7
ATOM      7  C   UNL     1      46.017   4.789  12.209  0.00  0.00    +0.000 C 
BRANCH   7   8
ATOM      8  N   UNL     1      45.022   5.776  11.723  0.00  0.00    +0.000 NA
ATOM      9  C   UNL     1      44.383   6.505  12.828  0.00  0.00    +0.000 C 
BRANCH   8  11
ATOM     10  C   UNL     1      42.546   5.240  11.402  0.00  0.00    +0.000 C 
ATOM     11  C   UNL     1      43.983   5.140  10.857  0.00  0.00    +0.000 C 
BRANCH  11  12
ATOM     12  C   UNL     1      44.251   3.645  10.475  0.00  0.00    +0.000 C 
BRANCH  12  13
ATOM     13  C   UNL     1      45.152   3.282   9.309  0.00  0.00    +0.000 A 
ATOM     14  C   UNL     1      45.617   4.190   8.349  0.00  0.00    +0.000 A 
ATOM     15  C   UNL     1      46.390   3.761   7.263  0.00  0.00    +0.000 A 
ATOM     16  C   UNL     1      46.706   2.412   7.110  0.00  0.00    +0.000 A 
ATOM     17  C   UNL     1      46.238   1.504   8.048  0.00  0.00    +0.000 A 
ATOM     18  C   UNL     1      45.471   1.924   9.131  0.00  0.00    +0.000 A 
BRANCH  17  19
ATOM     19  O   UNL     1      46.498   0.168   7.942  0.00  0.00    +0.000 OA
ATOM     20  H   UNL     1      46.262  -0.116   7.045  0.00  0.00    +0.000 HD
ENDBRANCH  17  19
ENDBRANCH  12  13
ENDBRANCH  11  12
ENDBRANCH   8  11
ENDBRANCH   7   8
ENDBRANCH   1   7
BRANCH   4  21
ATOM     21  C   UNL     1      49.548   6.415  16.503  0.00  0.00    +0.000 C 
BRANCH  21  22
ATOM     22  N   UNL     1      50.648   5.478  16.674  0.00  0.00    +0.000 NA
ATOM     23  H   UNL     1      51.531   5.987  16.724  0.00  0.00    +0.000 HD
BRANCH  22  24
ATOM     24  C   UNL     1      50.472   4.678  17.882  0.00  0.00    +0.000 C 
BRANCH  24  25
ATOM     25  C   UNL     1      51.265   3.391  17.832  0.00  0.00    +0.000 A 
ATOM     26  C   UNL     1      52.601   3.380  18.238  0.00  0.00    +0.000 A 
ATOM     27  C   UNL     1      53.308   2.185  18.189  0.00  0.00    +0.000 A 
ATOM     28  C   UNL     1      52.668   1.038  17.734  0.00  0.00    +0.000 A 
ATOM     29  C   UNL     1      51.341   1.135  17.346  0.00  0.00    +0.000 A 
ATOM     30  N   UNL     1      50.627   2.281  17.384  0.00  0.00    +0.000 NA
ENDBRANCH  24  25
ENDBRANCH  22  24
ENDBRANCH  21  22
ENDBRANCH   4  21
TORSDOF 10
ENDMDL
MODEL 5
REMARK VINA RESULT:    -6.587      1.704      2.487
REMARK INTER + INTRA:         -11.388
REMARK INTER:                  -9.964
REMARK INTRA:                  -1.424
REMARK UNBOUND:                -1.143
REMARK  Name = 
REMARK  12 active torsions:
REMARK  status: ('A' for Active; 'I' for Inactive)
REMARK    1  A    between atoms: C_1  and  C_2
REMARK    2  A    between atoms: C_2  and  C_3
REMARK    3  A    between atoms: C_2  and  N_11
REMARK    4  A    between atoms: C_3  and  C_4
REMARK    5  A    between atoms: C_8  and  O_9
REMARK    6  A    between atoms: N_11  and  C_12
REMARK    7  A    between atoms: N_11  and  C_13
REMARK    8  A    between atoms: C_13  and  C_14
REMARK    9  A    between atoms: C_17  and  C_18
REMARK   10  A    between atoms: C_18  and  N_19
REMARK   11  A    between atoms: N_19  and  C_20
REMARK   12  A    between atoms: C_20  and  C_21
REMARK                            x       y       z     vdW  Elec       q    Type
REMARK                         _______ _______ _______ _____ _____    ______ ____
ROOT
ATOM      1  C   UNL     1      47.321   8.646  12.596  0.00  0.00    +0.000 A 
ATOM      2  C   UNL     1      45.981   8.588  12.984  0.00  0.00    +0.000 A 
ATOM      3  C   UNL     1      45.209   7.470  12.692  0.00  0.00    +0.000 A 
ATOM      4  C   UNL     1      45.766   6.454  11.924  0.00  0.00    +0.000 A 
ATOM      5  N   UNL     1      47.047   6.510  11.478  0.00  0.00    +0.000 NA
ATOM      6  C   UNL     1      47.794   7.580  11.838  0.00  0.00    +0.000 A 
ENDROOT
BRANCH   1   7
ATOM      7  C   UNL     1      48.204   9.835  12.905  0.00  0.00    +0.000 C 
BRANCH   7   8
ATOM      8  N   UNL     1      49.046   9.753  14.125  0.00  0.00    +0.000 NA
ATOM      9  C   UNL     1      50.420   9.334  13.818  0.00  0.00    +0.000 C 
BRANCH   8  11
ATOM     10  C   UNL     1      48.125   9.532  16.496  0.00  0.00    +0.000 C 
ATOM     11  C   UNL     1      48.448   8.849  15.153  0.00  0.00    +0.000 C 
BRANCH  11  12
ATOM     12  C   UNL     1      49.263   7.547  15.459  0.00  0.00    +0.000 C 
BRANCH  12  13
ATOM     13  C   UNL     1      48.562   6.243  15.794  0.00  0.00    +0.000 A 
ATOM     14  C   UNL     1      47.864   5.454  14.871  0.00  0.00    +0.000 A 
ATOM     15  C   UNL     1      47.185   4.299  15.275  0.00  0.00    +0.000 A 
ATOM     16  C   UNL     1      47.184   3.911  16.614  0.00  0.00    +0.000 A 
ATOM     17  C   UNL     1      47.862   4.694  17.538  0.00  0.00    +0.000 A 
ATOM     18  C   UNL     1      48.540   5.843  17.142  0.00  0.00    +0.000 A 
BRANCH  17  19
ATOM     19  O   UNL     1      47.881   4.378  18.865  0.00  0.00    +0.000 OA
ATOM     20  H   UNL     1      47.065   3.896  19.074  0.00  0.00    +0.000 HD
ENDBRANCH  17  19
ENDBRANCH  12  13
ENDBRANCH  11  12
ENDBRANCH   8  11
ENDBRANCH   7   8
ENDBRANCH   1   7
BRANCH   4  21
ATOM     21  C   UNL     1      44.913   5.277  11.512  0.00  0.00    +0.000 C 
BRANCH  21  22
ATOM     22  N   UNL     1      44.476   5.349  10.125  0.00  0.00    +0.000 NA
ATOM     23  H   UNL     1      45.228   5.721   9.545  0.00  0.00    +0.000 HD
BRANCH  22  24
ATOM     24  C   UNL     1      44.079   4.033   9.632  0.00  0.00    +0.000 C 
BRANCH  24  25
ATOM     25  C   UNL     1      45.139   3.416   8.747  0.00  0.00    +0.000 A 
ATOM     26  C   UNL     1      45.414   2.050   8.837  0.00  0.00    +0.000 A 
ATOM     27  C   UNL     1      46.386   1.504   8.009  0.00  0.00    +0.000 A 
ATOM     28  C   UNL     1      47.060   2.332   7.119  0.00  0.00    +0.000 A 
ATOM     29  C   UNL     1      46.730   3.678   7.093  0.00  0.00    +0.000 A 
ATOM     30  N   UNL     1      45.788   4.237   7.883  0.00  0.00    +0.000 NA
ENDBRANCH  24  25
ENDBRANCH  22  24
ENDBRANCH  21  22
ENDBRANCH   4  21
TORSDOF 10
ENDMDL
MODEL 6
REMARK VINA RESULT:    -6.390      2.656      8.818
REMARK INTER + INTRA:         -11.082
REMARK INTER:                 -10.375
REMARK INTRA:                  -0.707
REMARK UNBOUND:                -1.143
REMARK  Name = 
REMARK  12 active torsions:
REMARK  status: ('A' for Active; 'I' for Inactive)
REMARK    1  A    between atoms: C_1  and  C_2
REMARK    2  A    between atoms: C_2  and  C_3
REMARK    3  A    between atoms: C_2  and  N_11
REMARK    4  A    between atoms: C_3  and  C_4
REMARK    5  A    between atoms: C_8  and  O_9
REMARK    6  A    between atoms: N_11  and  C_12
REMARK    7  A    between atoms: N_11  and  C_13
REMARK    8  A    between atoms: C_13  and  C_14
REMARK    9  A    between atoms: C_17  and  C_18
REMARK   10  A    between atoms: C_18  and  N_19
REMARK   11  A    between atoms: N_19  and  C_20
REMARK   12  A    between atoms: C_20  and  C_21
REMARK                            x       y       z     vdW  Elec       q    Type
REMARK                         _______ _______ _______ _____ _____    ______ ____
ROOT
ATOM      1  C   UNL     1      46.230   6.135  13.123  0.00  0.00    +0.000 A 
ATOM      2  C   UNL     1      47.017   5.270  13.886  0.00  0.00    +0.000 A 
ATOM      3  C   UNL     1      48.081   5.757  14.636  0.00  0.00    +0.000 A 
ATOM      4  C   UNL     1      48.407   7.105  14.538  0.00  0.00    +0.000 A 
ATOM      5  N   UNL     1      47.699   7.960  13.756  0.00  0.00    +0.000 NA
ATOM      6  C   UNL     1      46.627   7.468  13.092  0.00  0.00    +0.000 A 
ENDROOT
BRANCH   1   7
ATOM      7  C   UNL     1      45.054   5.652  12.304  0.00  0.00    +0.000 C 
BRANCH   7   8
ATOM      8  N   UNL     1      45.354   5.051  10.980  0.00  0.00    +0.000 NA
ATOM      9  C   UNL     1      45.983   6.016  10.067  0.00  0.00    +0.000 C 
BRANCH   8  11
ATOM     10  C   UNL     1      42.852   4.588  11.191  0.00  0.00    +0.000 C 
ATOM     11  C   UNL     1      44.135   4.462  10.348  0.00  0.00    +0.000 C 
BRANCH  11  12
ATOM     12  C   UNL     1      44.269   2.969   9.895  0.00  0.00    +0.000 C 
BRANCH  12  13
ATOM     13  C   UNL     1      45.204   2.571   8.767  0.00  0.00    +0.000 A 
ATOM     14  C   UNL     1      45.796   1.309   8.632  0.00  0.00    +0.000 A 
ATOM     15  C   UNL     1      46.704   1.043   7.600  0.00  0.00    +0.000 A 
ATOM     16  C   UNL     1      47.045   2.038   6.685  0.00  0.00    +0.000 A 
ATOM     17  C   UNL     1      46.474   3.296   6.820  0.00  0.00    +0.000 A 
ATOM     18  C   UNL     1      45.570   3.566   7.843  0.00  0.00    +0.000 A 
BRANCH  17  19
ATOM     19  O   UNL     1      46.784   4.316   5.969  0.00  0.00    +0.000 OA
ATOM     20  H   UNL     1      45.971   4.592   5.517  0.00  0.00    +0.000 HD
ENDBRANCH  17  19
ENDBRANCH  12  13
ENDBRANCH  11  12
ENDBRANCH   8  11
ENDBRANCH   7   8
ENDBRANCH   1   7
BRANCH   4  21
ATOM     21  C   UNL     1      49.620   7.634  15.267  0.00  0.00    +0.000 C 
BRANCH  21  22
ATOM     22  N   UNL     1      50.609   6.604  15.549  0.00  0.00    +0.000 NA
ATOM     23  H   UNL     1      51.490   6.837  15.091  0.00  0.00    +0.000 HD
BRANCH  22  24
ATOM     24  C   UNL     1      50.822   6.461  16.986  0.00  0.00    +0.000 C 
BRANCH  24  25
ATOM     25  C   UNL     1      50.023   5.315  17.566  0.00  0.00    +0.000 A 
ATOM     26  C   UNL     1      49.148   5.545  18.629  0.00  0.00    +0.000 A 
ATOM     27  C   UNL     1      48.419   4.478  19.142  0.00  0.00    +0.000 A 
ATOM     28  C   UNL     1      48.586   3.215  18.586  0.00  0.00    +0.000 A 
ATOM     29  C   UNL     1      49.478   3.071  17.534  0.00  0.00    +0.000 A 
ATOM     30  N   UNL     1      50.197   4.088  17.014  0.00  0.00    +0.000 NA
ENDBRANCH  24  25
ENDBRANCH  22  24
ENDBRANCH  21  22
ENDBRANCH   4  21
TORSDOF 10
ENDMDL
MODEL 7
REMARK VINA RESULT:    -6.270      2.186      2.901
REMARK INTER + INTRA:         -10.894
REMARK INTER:                 -10.175
REMARK INTRA:                  -0.720
REMARK UNBOUND:                -1.143
REMARK  Name = 
REMARK  12 active torsions:
REMARK  status: ('A' for Active; 'I' for Inactive)
REMARK    1  A    between atoms: C_1  and  C_2
REMARK    2  A    between atoms: C_2  and  C_3
REMARK    3  A    between atoms: C_2  and  N_11
REMARK    4  A    between atoms: C_3  and  C_4
REMARK    5  A    between atoms: C_8  and  O_9
REMARK    6  A    between atoms: N_11  and  C_12
REMARK    7  A    between atoms: N_11  and  C_13
REMARK    8  A    between atoms: C_13  and  C_14
REMARK    9  A    between atoms: C_17  and  C_18
REMARK   10  A    between atoms: C_18  and  N_19
REMARK   11  A    between atoms: N_19  and  C_20
REMARK   12  A    between atoms: C_20  and  C_21
REMARK                            x       y       z     vdW  Elec       q    Type
REMARK                         _______ _______ _______ _____ _____    ______ ____
ROOT
ATOM      1  C   UNL     1      46.908   5.167  14.010  0.00  0.00    +0.000 A 
ATOM      2  C   UNL     1      46.129   6.034  13.241  0.00  0.00    +0.000 A 
ATOM      3  C   UNL     1      45.218   5.534  12.318  0.00  0.00    +0.000 A 
ATOM      4  C   UNL     1      45.166   4.162  12.105  0.00  0.00    +0.000 A 
ATOM      5  N   UNL     1      45.956   3.297  12.792  0.00  0.00    +0.000 NA
ATOM      6  C   UNL     1      46.783   3.810  13.733  0.00  0.00    +0.000 A 
ENDROOT
BRANCH   1   7
ATOM      7  C   UNL     1      47.901   5.665  15.037  0.00  0.00    +0.000 C 
BRANCH   7   8
ATOM      8  N   UNL     1      48.384   7.060  14.889  0.00  0.00    +0.000 NA
ATOM      9  C   UNL     1      49.283   7.212  13.737  0.00  0.00    +0.000 C 
BRANCH   8  11
ATOM     10  C   UNL     1      50.590   7.557  16.074  0.00  0.00    +0.000 C 
ATOM     11  C   UNL     1      49.051   7.553  16.132  0.00  0.00    +0.000 C 
BRANCH  11  12
ATOM     12  C   UNL     1      48.620   6.836  17.455  0.00  0.00    +0.000 C 
BRANCH  12  13
ATOM     13  C   UNL     1      48.059   7.620  18.628  0.00  0.00    +0.000 A 
ATOM     14  C   UNL     1      47.689   8.970  18.578  0.00  0.00    +0.000 A 
ATOM     15  C   UNL     1      47.244   9.640  19.723  0.00  0.00    +0.000 A 
ATOM     16  C   UNL     1      47.168   8.976  20.946  0.00  0.00    +0.000 A 
ATOM     17  C   UNL     1      47.546   7.642  21.008  0.00  0.00    +0.000 A 
ATOM     18  C   UNL     1      47.987   6.970  19.872  0.00  0.00    +0.000 A 
BRANCH  17  19
ATOM     19  O   UNL     1      47.512   6.943  22.179  0.00  0.00    +0.000 OA
ATOM     20  H   UNL     1      47.820   7.528  22.890  0.00  0.00    +0.000 HD
ENDBRANCH  17  19
ENDBRANCH  12  13
ENDBRANCH  11  12
ENDBRANCH   8  11
ENDBRANCH   7   8
ENDBRANCH   1   7
BRANCH   4  21
ATOM     21  C   UNL     1      44.255   3.607  11.035  0.00  0.00    +0.000 C 
BRANCH  21  22
ATOM     22  N   UNL     1      44.673   2.298  10.554  0.00  0.00    +0.000 NA
ATOM     23  H   UNL     1      44.207   1.567  11.091  0.00  0.00    +0.000 HD
BRANCH  22  24
ATOM     24  C   UNL     1      44.365   2.139   9.136  0.00  0.00    +0.000 C 
BRANCH  24  25
ATOM     25  C   UNL     1      45.611   2.168   8.278  0.00  0.00    +0.000 A 
ATOM     26  C   UNL     1      46.018   3.363   7.682  0.00  0.00    +0.000 A 
ATOM     27  C   UNL     1      47.169   3.367   6.904  0.00  0.00    +0.000 A 
ATOM     28  C   UNL     1      47.878   2.183   6.738  0.00  0.00    +0.000 A 
ATOM     29  C   UNL     1      47.405   1.039   7.362  0.00  0.00    +0.000 A 
ATOM     30  N   UNL     1      46.292   1.004   8.125  0.00  0.00    +0.000 NA
ENDBRANCH  24  25
ENDBRANCH  22  24
ENDBRANCH  21  22
ENDBRANCH   4  21
TORSDOF 10
ENDMDL
MODEL 8
REMARK VINA RESULT:    -6.194      2.813      5.146
REMARK INTER + INTRA:         -10.777
REMARK INTER:                  -8.848
REMARK INTRA:                  -1.929
REMARK UNBOUND:                -1.143
REMARK  Name = 
REMARK  12 active torsions:
REMARK  status: ('A' for Active; 'I' for Inactive)
REMARK    1  A    between atoms: C_1  and  C_2
REMARK    2  A    between atoms: C_2  and  C_3
REMARK    3  A    between atoms: C_2  and  N_11
REMARK    4  A    between atoms: C_3  and  C_4
REMARK    5  A    between atoms: C_8  and  O_9
REMARK    6  A    between atoms: N_11  and  C_12
REMARK    7  A    between atoms: N_11  and  C_13
REMARK    8  A    between atoms: C_13  and  C_14
REMARK    9  A    between atoms: C_17  and  C_18
REMARK   10  A    between atoms: C_18  and  N_19
REMARK   11  A    between atoms: N_19  and  C_20
REMARK   12  A    between atoms: C_20  and  C_21
REMARK                            x       y       z     vdW  Elec       q    Type
REMARK                         _______ _______ _______ _____ _____    ______ ____
ROOT
ATOM      1  C   UNL     1      49.430   7.831  17.385  0.00  0.00    +0.000 A 
ATOM      2  C   UNL     1      49.684   6.837  16.439  0.00  0.00    +0.000 A 
ATOM      3  C   UNL     1      49.219   6.966  15.136  0.00  0.00    +0.000 A 
ATOM      4  C   UNL     1      48.416   8.054  14.816  0.00  0.00    +0.000 A 
ATOM      5  N   UNL     1      48.099   9.006  15.731  0.00  0.00    +0.000 NA
ATOM      6  C   UNL     1      48.624   8.888  16.973  0.00  0.00    +0.000 A 
ENDROOT
BRANCH   1   7
ATOM      7  C   UNL     1      49.928   7.741  18.810  0.00  0.00    +0.000 C 
BRANCH   7   8
ATOM      8  N   UNL     1      49.062   7.033  19.786  0.00  0.00    +0.000 NA
ATOM      9  C   UNL     1      48.691   7.893  20.919  0.00  0.00    +0.000 C 
BRANCH   8  11
ATOM     10  C   UNL     1      51.147   5.559  19.811  0.00  0.00    +0.000 C 
ATOM     11  C   UNL     1      49.695   5.773  20.281  0.00  0.00    +0.000 C 
BRANCH  11  12
ATOM     12  C   UNL     1      48.895   4.459  19.988  0.00  0.00    +0.000 C 
BRANCH  12  13
ATOM     13  C   UNL     1      48.479   4.091  18.575  0.00  0.00    +0.000 A 
ATOM     14  C   UNL     1      47.359   4.611  17.915  0.00  0.00    +0.000 A 
ATOM     15  C   UNL     1      47.003   4.166  16.635  0.00  0.00    +0.000 A 
ATOM     16  C   UNL     1      47.758   3.186  15.993  0.00  0.00    +0.000 A 
ATOM     17  C   UNL     1      48.861   2.656  16.646  0.00  0.00    +0.000 A 
ATOM     18  C   UNL     1      49.221   3.095  17.917  0.00  0.00    +0.000 A 
BRANCH  17  19
ATOM     19  O   UNL     1      49.627   1.680  16.077  0.00  0.00    +0.000 OA
ATOM     20  H   UNL     1      49.040   1.073  15.599  0.00  0.00    +0.000 HD
ENDBRANCH  17  19
ENDBRANCH  12  13
ENDBRANCH  11  12
ENDBRANCH   8  11
ENDBRANCH   7   8
ENDBRANCH   1   7
BRANCH   4  21
ATOM     21  C   UNL     1      47.819   8.161  13.432  0.00  0.00    +0.000 C 
BRANCH  21  22
ATOM     22  N   UNL     1      46.543   7.471  13.309  0.00  0.00    +0.000 NA
ATOM     23  H   UNL     1      45.825   8.126  12.999  0.00  0.00    +0.000 HD
BRANCH  22  24
ATOM     24  C   UNL     1      46.637   6.361  12.365  0.00  0.00    +0.000 C 
BRANCH  24  25
ATOM     25  C   UNL     1      45.287   5.740  12.084  0.00  0.00    +0.000 A 
ATOM     26  C   UNL     1      45.000   5.245  10.811  0.00  0.00    +0.000 A 
ATOM     27  C   UNL     1      43.755   4.671  10.578  0.00  0.00    +0.000 A 
ATOM     28  C   UNL     1      42.833   4.612  11.616  0.00  0.00    +0.000 A 
ATOM     29  C   UNL     1      43.196   5.129  12.850  0.00  0.00    +0.000 A 
ATOM     30  N   UNL     1      44.397   5.689  13.107  0.00  0.00    +0.000 NA
ENDBRANCH  24  25
ENDBRANCH  22  24
ENDBRANCH  21  22
ENDBRANCH   4  21
TORSDOF 10
ENDMDL
MODEL 9
REMARK VINA RESULT:    -5.842      3.177      7.741
REMARK INTER + INTRA:         -10.230
REMARK INTER:                  -8.622
REMARK INTRA:                  -1.608
REMARK UNBOUND:                -1.143
REMARK  Name = 
REMARK  12 active torsions:
REMARK  status: ('A' for Active; 'I' for Inactive)
REMARK    1  A    between atoms: C_1  and  C_2
REMARK    2  A    between atoms: C_2  and  C_3
REMARK    3  A    between atoms: C_2  and  N_11
REMARK    4  A    between atoms: C_3  and  C_4
REMARK    5  A    between atoms: C_8  and  O_9
REMARK    6  A    between atoms: N_11  and  C_12
REMARK    7  A    between atoms: N_11  and  C_13
REMARK    8  A    between atoms: C_13  and  C_14
REMARK    9  A    between atoms: C_17  and  C_18
REMARK   10  A    between atoms: C_18  and  N_19
REMARK   11  A    between atoms: N_19  and  C_20
REMARK   12  A    between atoms: C_20  and  C_21
REMARK                            x       y       z     vdW  Elec       q    Type
REMARK                         _______ _______ _______ _____ _____    ______ ____
ROOT
ATOM      1  C   UNL     1      49.156   8.185  15.170  0.00  0.00    +0.000 A 
ATOM      2  C   UNL     1      50.154   7.274  15.523  0.00  0.00    +0.000 A 
ATOM      3  C   UNL     1      50.351   6.924  16.853  0.00  0.00    +0.000 A 
ATOM      4  C   UNL     1      49.604   7.567  17.833  0.00  0.00    +0.000 A 
ATOM      5  N   UNL     1      48.670   8.503  17.525  0.00  0.00    +0.000 NA
ATOM      6  C   UNL     1      48.453   8.772  16.217  0.00  0.00    +0.000 A 
ENDROOT
BRANCH   1   7
ATOM      7  C   UNL     1      48.895   8.585  13.734  0.00  0.00    +0.000 C 
BRANCH   7   8
ATOM      8  N   UNL     1      48.706   7.489  12.751  0.00  0.00    +0.000 NA
ATOM      9  C   UNL     1      49.435   7.740  11.500  0.00  0.00    +0.000 C 
BRANCH   8  11
ATOM     10  C   UNL     1      46.308   8.332  12.987  0.00  0.00    +0.000 C 
ATOM     11  C   UNL     1      47.261   7.241  12.466  0.00  0.00    +0.000 C 
BRANCH  11  12
ATOM     12  C   UNL     1      46.711   5.854  12.941  0.00  0.00    +0.000 C 
BRANCH  12  13
ATOM     13  C   UNL     1      45.750   5.053  12.080  0.00  0.00    +0.000 A 
ATOM     14  C   UNL     1      45.408   5.373  10.760  0.00  0.00    +0.000 A 
ATOM     15  C   UNL     1      44.458   4.622  10.057  0.00  0.00    +0.000 A 
ATOM     16  C   UNL     1      43.825   3.538  10.664  0.00  0.00    +0.000 A 
ATOM     17  C   UNL     1      44.147   3.223  11.976  0.00  0.00    +0.000 A 
ATOM     18  C   UNL     1      45.092   3.965  12.680  0.00  0.00    +0.000 A 
BRANCH  17  19
ATOM     19  O   UNL     1      43.546   2.187  12.630  0.00  0.00    +0.000 OA
ATOM     20  H   UNL     1      44.126   1.910  13.357  0.00  0.00    +0.000 HD
ENDBRANCH  17  19
ENDBRANCH  12  13
ENDBRANCH  11  12
ENDBRANCH   8  11
ENDBRANCH   7   8
ENDBRANCH   1   7
BRANCH   4  21
ATOM     21  C   UNL     1      49.873   7.272  19.290  0.00  0.00    +0.000 C 
BRANCH  21  22
ATOM     22  N   UNL     1      50.156   5.867  19.544  0.00  0.00    +0.000 NA
ATOM     23  H   UNL     1      50.726   5.776  20.385  0.00  0.00    +0.000 HD
BRANCH  22  24
ATOM     24  C   UNL     1      48.920   5.105  19.702  0.00  0.00    +0.000 C 
BRANCH  24  25
ATOM     25  C   UNL     1      48.573   4.323  18.455  0.00  0.00    +0.000 A 
ATOM     26  C   UNL     1      47.458   4.681  17.696  0.00  0.00    +0.000 A 
ATOM     27  C   UNL     1      47.163   3.952  16.550  0.00  0.00    +0.000 A 
ATOM     28  C   UNL     1      47.982   2.886  16.196  0.00  0.00    +0.000 A 
ATOM     29  C   UNL     1      49.069   2.593  17.006  0.00  0.00    +0.000 A 
ATOM     30  N   UNL     1      49.382   3.285  18.123  0.00  0.00    +0.000 NA
ENDBRANCH  24  25
ENDBRANCH  22  24
ENDBRANCH  21  22
ENDBRANCH   4  21
TORSDOF 10
ENDMDL
