MODEL 1
REMARK VINA RESULT:    -7.433      0.000      0.000
REMARK INTER + INTRA:         -11.292
REMARK INTER:                 -10.692
REMARK INTRA:                  -0.600
REMARK UNBOUND:                -0.600
REMARK  Name = 
REMARK  10 active torsions:
REMARK  status: ('A' for Active; 'I' for Inactive)
REMARK    1  A    between atoms: C_1  and  C_2
REMARK    2  A    between atoms: C_2  and  C_3
REMARK    3  A    between atoms: C_3  and  C_4
REMARK    4  A    between atoms: C_3  and  C_16
REMARK    5  A    between atoms: C_4  and  O_5
REMARK    6  A    between atoms: O_5  and  C_6
REMARK    7  A    between atoms: CA_9  and  C_10
REMARK    8  A    between atoms: C_10  and  OXT_12
REMARK    9  A    between atoms: C_13  and  C_14
REMARK   10  A    between atoms: C_20  and  C_21
REMARK                            x       y       z     vdW  Elec       q    Type
REMARK                         _______ _______ _______ _____ _____    ______ ____
ROOT
ATOM      1  C   UNL     1      44.450   3.541  11.285  0.00  0.00    +0.000 C 
ENDROOT
BRANCH   1   2
ATOM      2  C   UNL     1      44.879   5.024  11.310  0.00  0.00    +0.000 C 
BRANCH   2   3
ATOM      3  C   UNL     1      45.882   5.332  12.417  0.00  0.00    +0.000 A 
ATOM      4  C   UNL     1      46.749   6.420  12.300  0.00  0.00    +0.000 A 
ATOM      5  N   UNL     1      47.709   6.736  13.204  0.00  0.00    +0.000 NA
ATOM      6  C   UNL     1      47.816   5.943  14.293  0.00  0.00    +0.000 A 
ATOM      7  C   UNL     1      46.987   4.862  14.530  0.00  0.00    +0.000 A 
ATOM      8  C   UNL     1      46.005   4.560  13.582  0.00  0.00    +0.000 A 
BRANCH   7   9
ATOM      9  C   UNL     1      47.145   4.070  15.705  0.00  0.00    +0.000 C 
ATOM     10  N   UNL     1      47.262   3.434  16.669  0.00  0.00    +0.000 NA
ENDBRANCH   7   9
ENDBRANCH   2   3
BRANCH   2  12
ATOM     11  C   UNL     1      42.464   5.484  12.139  0.00  0.00    +0.000 C 
ATOM     12  C   UNL     1      43.661   5.978  11.333  0.00  0.00    +0.000 C 
ENDBRANCH   2  12
ENDBRANCH   1   2
BRANCH   1  13
ATOM     13  O   UNL     1      43.905   3.190  10.003  0.00  0.00    +0.000 OA
BRANCH  13  14
ATOM     14  C   UNL     1      44.829   2.899   9.035  0.00  0.00    +0.000 A 
ATOM     15  C   UNL     1      45.212   3.915   8.167  0.00  0.00    +0.000 A 
ATOM     16  N   UNL     1      46.107   3.766   7.151  0.00  0.00    +0.000 NA
ATOM     17  CA  UNL     1      46.638   2.510   6.973  0.00  0.00    +0.000 A 
ATOM     18  C   UNL     1      46.312   1.422   7.783  0.00  0.00    +0.000 A 
ATOM     19  C   UNL     1      46.820   0.017   7.664  0.00  0.00    +0.000 C 
ATOM     20  C   UNL     1      45.381   1.646   8.813  0.00  0.00    +0.000 A 
BRANCH  17  21
ATOM     21  C   UNL     1      47.593   2.432   5.808  0.00  0.00    +0.000 C 
ATOM     22  O   UNL     1      47.301   2.188   4.649  0.00  0.00    +0.000 OA
BRANCH  21  23
ATOM     23  OXT UNL     1      48.869   2.670   6.205  0.00  0.00    +0.000 OA
ATOM     24  HXT UNL     1      48.986   2.338   7.125  0.00  0.00    +0.000 HD
ENDBRANCH  21  23
ENDBRANCH  17  21
ENDBRANCH  13  14
ENDBRANCH   1  13
TORSDOF 8
ENDMDL
MODEL 2
REMARK VINA RESULT:    -6.807      2.916      6.886
REMARK INTER + INTRA:         -10.392
REMARK INTER:                  -9.678
REMARK INTRA:                  -0.714
REMARK UNBOUND:                -0.600
REMARK  Name = 
REMARK  10 active torsions:
REMARK  status: ('A' for Active; 'I' for Inactive)
REMARK    1  A    between atoms: C_1  and  C_2
REMARK    2  A    between atoms: C_2  and  C_3
REMARK    3  A    between atoms: C_3  and  C_4
REMARK    4  A    between atoms: C_3  and  C_16
REMARK    5  A    between atoms: C_4  and  O_5
REMARK    6  A    between atoms: O_5  and  C_6
REMARK    7  A    between atoms: CA_9  and  C_10
REMARK    8  A    between atoms: C_10  and  OXT_12
REMARK    9  A    between atoms: C_13  and  C_14
REMARK   10  A    between atoms: C_20  and  C_21
REMARK                            x       y       z     vdW  Elec       q    Type
REMARK                         _______ _______ _______ _____ _____    ______ ____
ROOT
ATOM      1  C   UNL     1      44.081   3.319  12.369  0.00  0.00    +0.000 C 
ENDROOT
BRANCH   1   2
ATOM      2  C   UNL     1      43.523   3.750  10.995  0.00  0.00    +0.000 C 
BRANCH   2   3
ATOM      3  C   UNL     1      44.514   3.528   9.858  0.00  0.00    +0.000 A 
ATOM      4  C   UNL     1      44.981   4.610   9.109  0.00  0.00    +0.000 A 
ATOM      5  N   UNL     1      45.816   4.504   8.046  0.00  0.00    +0.000 NA
ATOM      6  C   UNL     1      46.227   3.262   7.706  0.00  0.00    +0.000 A 
ATOM      7  C   UNL     1      45.858   2.123   8.400  0.00  0.00    +0.000 A 
ATOM      8  C   UNL     1      44.997   2.263   9.492  0.00  0.00    +0.000 A 
BRANCH   7   9
ATOM      9  C   UNL     1      46.334   0.841   7.997  0.00  0.00    +0.000 C 
ATOM     10  N   UNL     1      46.735  -0.201   7.679  0.00  0.00    +0.000 NA
ENDBRANCH   7   9
ENDBRANCH   2   3
BRANCH   2  12
ATOM     11  C   UNL     1      42.529   5.695  12.397  0.00  0.00    +0.000 C 
ATOM     12  C   UNL     1      42.969   5.195  11.025  0.00  0.00    +0.000 C 
ENDBRANCH   2  12
ENDBRANCH   1   2
BRANCH   1  13
ATOM     13  O   UNL     1      45.506   3.144  12.308  0.00  0.00    +0.000 OA
BRANCH  13  14
ATOM     14  C   UNL     1      46.241   4.124  12.920  0.00  0.00    +0.000 A 
ATOM     15  C   UNL     1      46.984   3.784  14.044  0.00  0.00    +0.000 A 
ATOM     16  N   UNL     1      47.746   4.657  14.759  0.00  0.00    +0.000 NA
ATOM     17  CA  UNL     1      47.748   5.966  14.338  0.00  0.00    +0.000 A 
ATOM     18  C   UNL     1      47.030   6.411  13.228  0.00  0.00    +0.000 A 
ATOM     19  C   UNL     1      46.953   7.812  12.698  0.00  0.00    +0.000 C 
ATOM     20  C   UNL     1      46.263   5.457  12.536  0.00  0.00    +0.000 A 
BRANCH  17  21
ATOM     21  C   UNL     1      48.593   6.866  15.206  0.00  0.00    +0.000 C 
ATOM     22  O   UNL     1      49.561   7.514  14.848  0.00  0.00    +0.000 OA
BRANCH  21  23
ATOM     23  OXT UNL     1      48.140   6.874  16.486  0.00  0.00    +0.000 OA
ATOM     24  HXT UNL     1      47.605   6.062  16.643  0.00  0.00    +0.000 HD
ENDBRANCH  21  23
ENDBRANCH  17  21
ENDBRANCH  13  14
ENDBRANCH   1  13
TORSDOF 8
ENDMDL
MODEL 3
REMARK VINA RESULT:    -6.368      3.390      7.799
REMARK INTER + INTRA:          -9.760
REMARK INTER:                  -9.073
REMARK INTRA:                  -0.688
REMARK UNBOUND:                -0.600
REMARK  Name = 
REMARK  10 active torsions:
REMARK  status: ('A' for Active; 'I' for Inactive)
REMARK    1  A    between atoms: C_1  and  C_2
REMARK    2  A    between atoms: C_2  and  C_3
REMARK    3  A    between atoms: C_3  and  C_4
REMARK    4  A    between atoms: C_3  and  C_16
REMARK    5  A    between atoms: C_4  and  O_5
REMARK    6  A    between atoms: O_5  and  C_6
REMARK    7  A    between atoms: CA_9  and  C_10
REMARK    8  A    between atoms: C_10  and  OXT_12
REMARK    9  A    between atoms: C_13  and  C_14
REMARK   10  A    between atoms: C_20  and  C_21
REMARK                            x       y       z     vdW  Elec       q    Type
REMARK                         _______ _______ _______ _____ _____    ______ ____
ROOT
ATOM      1  C   UNL     1      46.669   7.067  12.219  0.00  0.00    +0.000 C 
ENDROOT
BRANCH   1   2
ATOM      2  C   UNL     1      45.166   6.910  11.901  0.00  0.00    +0.000 C 
BRANCH   2   3
ATOM      3  C   UNL     1      44.872   5.706  11.014  0.00  0.00    +0.000 A 
ATOM      4  C   UNL     1      43.918   4.763  11.398  0.00  0.00    +0.000 A 
ATOM      5  N   UNL     1      43.630   3.634  10.705  0.00  0.00    +0.000 NA
ATOM      6  C   UNL     1      44.314   3.424   9.558  0.00  0.00    +0.000 A 
ATOM      7  C   UNL     1      45.255   4.309   9.062  0.00  0.00    +0.000 A 
ATOM      8  C   UNL     1      45.529   5.465   9.798  0.00  0.00    +0.000 A 
BRANCH   7   9
ATOM      9  C   UNL     1      45.935   4.035   7.839  0.00  0.00    +0.000 C 
ATOM     10  N   UNL     1      46.501   3.821   6.848  0.00  0.00    +0.000 NA
ENDBRANCH   7   9
ENDBRANCH   2   3
BRANCH   2  12
ATOM     11  C   UNL     1      44.966   9.491  12.079  0.00  0.00    +0.000 C 
ATOM     12  C   UNL     1      44.553   8.218  11.347  0.00  0.00    +0.000 C 
ENDBRANCH   2  12
ENDBRANCH   1   2
BRANCH   1  13
ATOM     13  O   UNL     1      47.278   5.786  12.453  0.00  0.00    +0.000 OA
BRANCH  13  14
ATOM     14  C   UNL     1      47.452   5.454  13.770  0.00  0.00    +0.000 A 
ATOM     15  C   UNL     1      46.794   4.331  14.257  0.00  0.00    +0.000 A 
ATOM     16  N   UNL     1      46.863   3.894  15.545  0.00  0.00    +0.000 NA
ATOM     17  CA  UNL     1      47.622   4.643  16.414  0.00  0.00    +0.000 A 
ATOM     18  C   UNL     1      48.314   5.791  16.026  0.00  0.00    +0.000 A 
ATOM     19  C   UNL     1      49.152   6.681  16.894  0.00  0.00    +0.000 C 
ATOM     20  C   UNL     1      48.198   6.186  14.682  0.00  0.00    +0.000 A 
BRANCH  17  21
ATOM     21  C   UNL     1      47.615   4.103  17.822  0.00  0.00    +0.000 C 
ATOM     22  O   UNL     1      48.369   3.258  18.276  0.00  0.00    +0.000 OA
BRANCH  21  23
ATOM     23  OXT UNL     1      46.636   4.681  18.562  0.00  0.00    +0.000 OA
ATOM     24  HXT UNL     1      46.753   5.658  18.543  0.00  0.00    +0.000 HD
ENDBRANCH  21  23
ENDBRANCH  17  21
ENDBRANCH  13  14
ENDBRANCH   1  13
TORSDOF 8
ENDMDL
MODEL 4
REMARK VINA RESULT:    -6.305      3.589      7.743
REMARK INTER + INTRA:          -9.670
REMARK INTER:                  -8.899
REMARK INTRA:                  -0.771
REMARK UNBOUND:                -0.600
REMARK  Name = 
REMARK  10 active torsions:
REMARK  status: ('A' for Active; 'I' for Inactive)
REMARK    1  A    between atoms: C_1  and  C_2
REMARK    2  A    between atoms: C_2  and  C_3
REMARK    3  A    between atoms: C_3  and  C_4
REMARK    4  A    between atoms: C_3  and  C_16
REMARK    5  A    between atoms: C_4  and  O_5
REMARK    6  A    between atoms: O_5  and  C_6
REMARK    7  A    between atoms: CA_9  and  C_10
REMARK    8  A    between atoms: C_10  and  OXT_12
REMARK    9  A    between atoms: C_13  and  C_14
REMARK   10  A    between atoms: C_20  and  C_21
REMARK                            x       y       z     vdW  Elec       q    Type
REMARK                         _______ _______ _______ _____ _____    ______ ____
ROOT
ATOM      1  C   UNL     1      44.904   5.538  13.266  0.00  0.00    +0.000 C 
ENDROOT
BRANCH   1   2
ATOM      2  C   UNL     1      44.416   5.973  11.867  0.00  0.00    +0.000 C 
BRANCH   2   3
ATOM      3  C   UNL     1      44.450   4.837  10.850  0.00  0.00    +0.000 A 
ATOM      4  C   UNL     1      43.749   3.655  11.090  0.00  0.00    +0.000 A 
ATOM      5  N   UNL     1      43.766   2.572  10.274  0.00  0.00    +0.000 NA
ATOM      6  C   UNL     1      44.508   2.661   9.148  0.00  0.00    +0.000 A 
ATOM      7  C   UNL     1      45.214   3.796   8.791  0.00  0.00    +0.000 A 
ATOM      8  C   UNL     1      45.176   4.897   9.651  0.00  0.00    +0.000 A 
BRANCH   7   9
ATOM      9  C   UNL     1      45.969   3.831   7.582  0.00  0.00    +0.000 C 
ATOM     10  N   UNL     1      46.575   3.850   6.591  0.00  0.00    +0.000 NA
ENDBRANCH   7   9
ENDBRANCH   2   3
BRANCH   2  12
ATOM     11  C   UNL     1      45.472   8.273  12.441  0.00  0.00    +0.000 C 
ATOM     12  C   UNL     1      45.152   7.238  11.366  0.00  0.00    +0.000 C 
ENDBRANCH   2  12
ENDBRANCH   1   2
BRANCH   1  13
ATOM     13  O   UNL     1      46.142   4.815  13.173  0.00  0.00    +0.000 OA
BRANCH  13  14
ATOM     14  C   UNL     1      46.963   4.921  14.264  0.00  0.00    +0.000 A 
ATOM     15  C   UNL     1      47.880   5.965  14.298  0.00  0.00    +0.000 A 
ATOM     16  N   UNL     1      48.766   6.182  15.309  0.00  0.00    +0.000 NA
ATOM     17  CA  UNL     1      48.754   5.281  16.347  0.00  0.00    +0.000 A 
ATOM     18  C   UNL     1      47.880   4.195  16.404  0.00  0.00    +0.000 A 
ATOM     19  C   UNL     1      47.798   3.152  17.478  0.00  0.00    +0.000 C 
ATOM     20  C   UNL     1      46.992   4.029  15.326  0.00  0.00    +0.000 A 
BRANCH  17  21
ATOM     21  C   UNL     1      49.788   5.582  17.404  0.00  0.00    +0.000 C 
ATOM     22  O   UNL     1      49.594   6.157  18.462  0.00  0.00    +0.000 OA
BRANCH  21  23
ATOM     23  OXT UNL     1      51.012   5.127  17.033  0.00  0.00    +0.000 OA
ATOM     24  HXT UNL     1      50.945   4.716  16.140  0.00  0.00    +0.000 HD
ENDBRANCH  21  23
ENDBRANCH  17  21
ENDBRANCH  13  14
ENDBRANCH   1  13
TORSDOF 8
ENDMDL
MODEL 5
REMARK VINA RESULT:    -6.252      4.574      8.274
REMARK INTER + INTRA:          -9.593
REMARK INTER:                  -9.164
REMARK INTRA:                  -0.428
REMARK UNBOUND:                -0.600
REMARK  Name = 
REMARK  10 active torsions:
REMARK  status: ('A' for Active; 'I' for Inactive)
REMARK    1  A    between atoms: C_1  and  C_2
REMARK    2  A    between atoms: C_2  and  C_3
REMARK    3  A    between atoms: C_3  and  C_4
REMARK    4  A    between atoms: C_3  and  C_16
REMARK    5  A    between atoms: C_4  and  O_5
REMARK    6  A    between atoms: O_5  and  C_6
REMARK    7  A    between atoms: CA_9  and  C_10
REMARK    8  A    between atoms: C_10  and  OXT_12
REMARK    9  A    between atoms: C_13  and  C_14
REMARK   10  A    between atoms: C_20  and  C_21
REMARK                            x       y       z     vdW  Elec       q    Type
REMARK                         _______ _______ _______ _____ _____    ______ ____
ROOT
ATOM      1  C   UNL     1      46.841   3.812  14.557  0.00  0.00    +0.000 C 
ENDROOT
BRANCH   1   2
ATOM      2  C   UNL     1      46.310   5.097  13.885  0.00  0.00    +0.000 C 
BRANCH   2   3
ATOM      3  C   UNL     1      45.207   4.821  12.869  0.00  0.00    +0.000 A 
ATOM      4  C   UNL     1      43.969   5.455  12.983  0.00  0.00    +0.000 A 
ATOM      5  N   UNL     1      42.913   5.229  12.163  0.00  0.00    +0.000 NA
ATOM      6  C   UNL     1      43.087   4.335  11.165  0.00  0.00    +0.000 A 
ATOM      7  C   UNL     1      44.281   3.676  10.935  0.00  0.00    +0.000 A 
ATOM      8  C   UNL     1      45.353   3.930  11.795  0.00  0.00    +0.000 A 
BRANCH   7   9
ATOM      9  C   UNL     1      44.405   2.752   9.856  0.00  0.00    +0.000 C 
ATOM     10  N   UNL     1      44.503   1.987   8.988  0.00  0.00    +0.000 NA
ENDBRANCH   7   9
ENDBRANCH   2   3
BRANCH   2  12
ATOM     11  C   UNL     1      47.045   6.907  12.177  0.00  0.00    +0.000 C 
ATOM     12  C   UNL     1      47.454   5.957  13.298  0.00  0.00    +0.000 C 
ENDBRANCH   2  12
ENDBRANCH   1   2
BRANCH   1  13
ATOM     13  O   UNL     1      47.112   4.040  15.950  0.00  0.00    +0.000 OA
BRANCH  13  14
ATOM     14  C   UNL     1      48.290   3.514  16.410  0.00  0.00    +0.000 A 
ATOM     15  C   UNL     1      48.669   2.257  15.954  0.00  0.00    +0.000 A 
ATOM     16  N   UNL     1      49.803   1.607  16.337  0.00  0.00    +0.000 NA
ATOM     17  CA  UNL     1      50.601   2.244  17.258  0.00  0.00    +0.000 A 
ATOM     18  C   UNL     1      50.304   3.502  17.783  0.00  0.00    +0.000 A 
ATOM     19  C   UNL     1      51.096   4.271  18.798  0.00  0.00    +0.000 C 
ATOM     20  C   UNL     1      49.118   4.116  17.346  0.00  0.00    +0.000 A 
BRANCH  17  21
ATOM     21  C   UNL     1      51.815   1.437  17.646  0.00  0.00    +0.000 C 
ATOM     22  O   UNL     1      52.980   1.777  17.519  0.00  0.00    +0.000 OA
BRANCH  21  23
ATOM     23  OXT UNL     1      51.458   0.239  18.174  0.00  0.00    +0.000 OA
ATOM     24  HXT UNL     1      50.659   0.361  18.736  0.00  0.00    +0.000 HD
ENDBRANCH  21  23
ENDBRANCH  17  21
ENDBRANCH  13  14
ENDBRANCH   1  13
TORSDOF 8
ENDMDL
MODEL 6
REMARK VINA RESULT:    -6.151      3.481      5.307
REMARK INTER + INTRA:          -9.447
REMARK INTER:                  -8.585
REMARK INTRA:                  -0.862
REMARK UNBOUND:                -0.600
REMARK  Name = 
REMARK  10 active torsions:
REMARK  status: ('A' for Active; 'I' for Inactive)
REMARK    1  A    between atoms: C_1  and  C_2
REMARK    2  A    between atoms: C_2  and  C_3
REMARK    3  A    between atoms: C_3  and  C_4
REMARK    4  A    between atoms: C_3  and  C_16
REMARK    5  A    between atoms: C_4  and  O_5
REMARK    6  A    between atoms: O_5  and  C_6
REMARK    7  A    between atoms: CA_9  and  C_10
REMARK    8  A    between atoms: C_10  and  OXT_12
REMARK    9  A    between atoms: C_13  and  C_14
REMARK   10  A    between atoms: C_20  and  C_21
REMARK                            x       y       z     vdW  Elec       q    Type
REMARK                         _______ _______ _______ _____ _____    ______ ____
ROOT
ATOM      1  C   UNL     1      47.242   8.381  13.330  0.00  0.00    +0.000 C 
ENDROOT
BRANCH   1   2
ATOM      2  C   UNL     1      48.424   7.388  13.322  0.00  0.00    +0.000 C 
BRANCH   2   3
ATOM      3  C   UNL     1      48.647   6.722  14.675  0.00  0.00    +0.000 A 
ATOM      4  C   UNL     1      49.708   7.119  15.490  0.00  0.00    +0.000 A 
ATOM      5  N   UNL     1      50.018   6.547  16.680  0.00  0.00    +0.000 NA
ATOM      6  C   UNL     1      49.232   5.531  17.099  0.00  0.00    +0.000 A 
ATOM      7  C   UNL     1      48.132   5.080  16.391  0.00  0.00    +0.000 A 
ATOM      8  C   UNL     1      47.836   5.689  15.169  0.00  0.00    +0.000 A 
BRANCH   7   9
ATOM      9  C   UNL     1      47.335   4.010  16.894  0.00  0.00    +0.000 C 
ATOM     10  N   UNL     1      46.698   3.133  17.311  0.00  0.00    +0.000 NA
ENDBRANCH   7   9
ENDBRANCH   2   3
BRANCH   2  12
ATOM     11  C   UNL     1      49.979   7.771  11.279  0.00  0.00    +0.000 C 
ATOM     12  C   UNL     1      49.714   8.031  12.759  0.00  0.00    +0.000 C 
ENDBRANCH   2  12
ENDBRANCH   1   2
BRANCH   1  13
ATOM     13  O   UNL     1      46.479   8.275  12.116  0.00  0.00    +0.000 OA
BRANCH  13  14
ATOM     14  C   UNL     1      45.862   7.068  11.918  0.00  0.00    +0.000 A 
ATOM     15  C   UNL     1      45.199   6.485  12.991  0.00  0.00    +0.000 A 
ATOM     16  N   UNL     1      44.558   5.285  12.942  0.00  0.00    +0.000 NA
ATOM     17  CA  UNL     1      44.603   4.606  11.746  0.00  0.00    +0.000 A 
ATOM     18  C   UNL     1      45.250   5.101  10.614  0.00  0.00    +0.000 A 
ATOM     19  C   UNL     1      45.370   4.436   9.275  0.00  0.00    +0.000 C 
ATOM     20  C   UNL     1      45.892   6.345  10.734  0.00  0.00    +0.000 A 
BRANCH  17  21
ATOM     21  C   UNL     1      43.895   3.275  11.794  0.00  0.00    +0.000 C 
ATOM     22  O   UNL     1      42.847   2.993  11.238  0.00  0.00    +0.000 OA
BRANCH  21  23
ATOM     23  OXT UNL     1      44.578   2.386  12.559  0.00  0.00    +0.000 OA
ATOM     24  HXT UNL     1      44.290   1.474  12.326  0.00  0.00    +0.000 HD
ENDBRANCH  21  23
ENDBRANCH  17  21
ENDBRANCH  13  14
ENDBRANCH   1  13
TORSDOF 8
ENDMDL
MODEL 7
REMARK VINA RESULT:    -6.092      3.647      6.668
REMARK INTER + INTRA:          -9.363
REMARK INTER:                  -8.757
REMARK INTRA:                  -0.606
REMARK UNBOUND:                -0.600
REMARK  Name = 
REMARK  10 active torsions:
REMARK  status: ('A' for Active; 'I' for Inactive)
REMARK    1  A    between atoms: C_1  and  C_2
REMARK    2  A    between atoms: C_2  and  C_3
REMARK    3  A    between atoms: C_3  and  C_4
REMARK    4  A    between atoms: C_3  and  C_16
REMARK    5  A    between atoms: C_4  and  O_5
REMARK    6  A    between atoms: O_5  and  C_6
REMARK    7  A    between atoms: CA_9  and  C_10
REMARK    8  A    between atoms: C_10  and  OXT_12
REMARK    9  A    between atoms: C_13  and  C_14
REMARK   10  A    between atoms: C_20  and  C_21
REMARK                            x       y       z     vdW  Elec       q    Type
REMARK                         _______ _______ _______ _____ _____    ______ ____
ROOT
ATOM      1  C   UNL     1      47.445   4.372  16.142  0.00  0.00    +0.000 C 
ENDROOT
BRANCH   1   2
ATOM      2  C   UNL     1      48.522   4.734  17.187  0.00  0.00    +0.000 C 
BRANCH   2   3
ATOM      3  C   UNL     1      49.643   3.704  17.263  0.00  0.00    +0.000 A 
ATOM      4  C   UNL     1      49.431   2.397  16.819  0.00  0.00    +0.000 A 
ATOM      5  N   UNL     1      50.346   1.401  16.900  0.00  0.00    +0.000 NA
ATOM      6  C   UNL     1      51.547   1.709  17.438  0.00  0.00    +0.000 A 
ATOM      7  C   UNL     1      51.880   2.978  17.876  0.00  0.00    +0.000 A 
ATOM      8  C   UNL     1      50.916   3.986  17.779  0.00  0.00    +0.000 A 
BRANCH   7   9
ATOM      9  C   UNL     1      53.169   3.242  18.425  0.00  0.00    +0.000 C 
ATOM     10  N   UNL     1      54.224   3.463  18.858  0.00  0.00    +0.000 NA
ENDBRANCH   7   9
ENDBRANCH   2   3
BRANCH   2  12
ATOM     11  C   UNL     1      48.037   6.485  19.040  0.00  0.00    +0.000 C 
ATOM     12  C   UNL     1      47.903   5.039  18.572  0.00  0.00    +0.000 C 
ENDBRANCH   2  12
ENDBRANCH   1   2
BRANCH   1  13
ATOM     13  O   UNL     1      47.744   4.973  14.871  0.00  0.00    +0.000 OA
BRANCH  13  14
ATOM     14  C   UNL     1      46.812   4.760  13.890  0.00  0.00    +0.000 A 
ATOM     15  C   UNL     1      46.477   3.448  13.578  0.00  0.00    +0.000 A 
ATOM     16  N   UNL     1      45.581   3.089  12.617  0.00  0.00    +0.000 NA
ATOM     17  CA  UNL     1      44.998   4.108  11.901  0.00  0.00    +0.000 A 
ATOM     18  C   UNL     1      45.274   5.456  12.131  0.00  0.00    +0.000 A 
ATOM     19  C   UNL     1      44.707   6.636  11.400  0.00  0.00    +0.000 C 
ATOM     20  C   UNL     1      46.209   5.756  13.137  0.00  0.00    +0.000 A 
BRANCH  17  21
ATOM     21  C   UNL     1      44.045   3.615  10.840  0.00  0.00    +0.000 C 
ATOM     22  O   UNL     1      44.264   3.562   9.641  0.00  0.00    +0.000 OA
BRANCH  21  23
ATOM     23  OXT UNL     1      42.866   3.223  11.386  0.00  0.00    +0.000 OA
ATOM     24  HXT UNL     1      42.501   2.475  10.860  0.00  0.00    +0.000 HD
ENDBRANCH  21  23
ENDBRANCH  17  21
ENDBRANCH  13  14
ENDBRANCH   1  13
TORSDOF 8
ENDMDL
MODEL 8
REMARK VINA RESULT:    -6.037      4.172      8.680
REMARK INTER + INTRA:          -9.283
REMARK INTER:                  -8.538
REMARK INTRA:                  -0.745
REMARK UNBOUND:                -0.600
REMARK  Name = 
REMARK  10 active torsions:
REMARK  status: ('A' for Active; 'I' for Inactive)
REMARK    1  A    between atoms: C_1  and  C_2
REMARK    2  A    between atoms: C_2  and  C_3
REMARK    3  A    between atoms: C_3  and  C_4
REMARK    4  A    between atoms: C_3  and  C_16
REMARK    5  A    between atoms: C_4  and  O_5
REMARK    6  A    between atoms: O_5  and  C_6
REMARK    7  A    between atoms: CA_9  and  C_10
REMARK    8  A    between atoms: C_10  and  OXT_12
REMARK    9  A    between atoms: C_13  and  C_14
REMARK   10  A    between atoms: C_20  and  C_21
REMARK                            x       y       z     vdW  Elec       q    Type
REMARK                         _______ _______ _______ _____ _____    ______ ____
ROOT
ATOM      1  C   UNL     1      46.680   5.040  13.668  0.00  0.00    +0.000 C 
ENDROOT
BRANCH   1   2
ATOM      2  C   UNL     1      45.285   5.421  13.126  0.00  0.00    +0.000 C 
BRANCH   2   3
ATOM      3  C   UNL     1      44.856   4.562  11.941  0.00  0.00    +0.000 A 
ATOM      4  C   UNL     1      43.882   3.575  12.101  0.00  0.00    +0.000 A 
ATOM      5  N   UNL     1      43.480   2.728  11.123  0.00  0.00    +0.000 NA
ATOM      6  C   UNL     1      44.061   2.866   9.910  0.00  0.00    +0.000 A 
ATOM      7  C   UNL     1      45.010   3.832   9.628  0.00  0.00    +0.000 A 
ATOM      8  C   UNL     1      45.404   4.693  10.656  0.00  0.00    +0.000 A 
BRANCH   7   9
ATOM      9  C   UNL     1      45.577   3.933   8.324  0.00  0.00    +0.000 C 
ATOM     10  N   UNL     1      46.043   4.031   7.265  0.00  0.00    +0.000 NA
ENDBRANCH   7   9
ENDBRANCH   2   3
BRANCH   2  12
ATOM     11  C   UNL     1      46.503   7.675  12.716  0.00  0.00    +0.000 C 
ATOM     12  C   UNL     1      45.174   6.936  12.831  0.00  0.00    +0.000 C 
ENDBRANCH   2  12
ENDBRANCH   1   2
BRANCH   1  13
ATOM     13  O   UNL     1      46.570   4.062  14.717  0.00  0.00    +0.000 OA
BRANCH  13  14
ATOM     14  C   UNL     1      47.311   4.324  15.839  0.00  0.00    +0.000 A 
ATOM     15  C   UNL     1      47.253   3.417  16.889  0.00  0.00    +0.000 A 
ATOM     16  N   UNL     1      47.923   3.556  18.067  0.00  0.00    +0.000 NA
ATOM     17  CA  UNL     1      48.683   4.692  18.216  0.00  0.00    +0.000 A 
ATOM     18  C   UNL     1      48.800   5.667  17.226  0.00  0.00    +0.000 A 
ATOM     19  C   UNL     1      49.587   6.941  17.295  0.00  0.00    +0.000 C 
ATOM     20  C   UNL     1      48.081   5.460  16.035  0.00  0.00    +0.000 A 
BRANCH  17  21
ATOM     21  C   UNL     1      49.362   4.777  19.561  0.00  0.00    +0.000 C 
ATOM     22  O   UNL     1      48.919   5.314  20.562  0.00  0.00    +0.000 OA
BRANCH  21  23
ATOM     23  OXT UNL     1      50.574   4.166  19.536  0.00  0.00    +0.000 OA
ATOM     24  HXT UNL     1      51.169   4.604  20.188  0.00  0.00    +0.000 HD
ENDBRANCH  21  23
ENDBRANCH  17  21
ENDBRANCH  13  14
ENDBRANCH   1  13
TORSDOF 8
ENDMDL
MODEL 9
REMARK VINA RESULT:    -5.972      4.508      8.565
REMARK INTER + INTRA:          -9.190
REMARK INTER:                  -8.438
REMARK INTRA:                  -0.752
REMARK UNBOUND:                -0.600
REMARK  Name = 
REMARK  10 active torsions:
REMARK  status: ('A' for Active; 'I' for Inactive)
REMARK    1  A    between atoms: C_1  and  C_2
REMARK    2  A    between atoms: C_2  and  C_3
REMARK    3  A    between atoms: C_3  and  C_4
REMARK    4  A    between atoms: C_3  and  C_16
REMARK    5  A    between atoms: C_4  and  O_5
REMARK    6  A    between atoms: O_5  and  C_6
REMARK    7  A    between atoms: CA_9  and  C_10
REMARK    8  A    between atoms: C_10  and  OXT_12
REMARK    9  A    between atoms: C_13  and  C_14
REMARK   10  A    between atoms: C_20  and  C_21
REMARK                            x       y       z     vdW  Elec       q    Type
REMARK                         _______ _______ _______ _____ _____    ______ ____
ROOT
ATOM      1  C   UNL     1      46.933   4.026  14.154  0.00  0.00    +0.000 C 
ENDROOT
BRANCH   1   2
ATOM      2  C   UNL     1      46.457   5.386  13.598  0.00  0.00    +0.000 C 
BRANCH   2   3
ATOM      3  C   UNL     1      45.318   5.250  12.594  0.00  0.00    +0.000 A 
ATOM      4  C   UNL     1      43.999   5.483  12.989  0.00  0.00    +0.000 A 
ATOM      5  N   UNL     1      42.919   5.330  12.184  0.00  0.00    +0.000 NA
ATOM      6  C   UNL     1      43.148   4.936  10.912  0.00  0.00    +0.000 A 
ATOM      7  C   UNL     1      44.415   4.712  10.403  0.00  0.00    +0.000 A 
ATOM      8  C   UNL     1      45.510   4.879  11.255  0.00  0.00    +0.000 A 
BRANCH   7   9
ATOM      9  C   UNL     1      44.592   4.308   9.047  0.00  0.00    +0.000 C 
ATOM     10  N   UNL     1      44.749   3.986   7.943  0.00  0.00    +0.000 NA
ENDBRANCH   7   9
ENDBRANCH   2   3
BRANCH   2  12
ATOM     11  C   UNL     1      48.401   7.034  14.092  0.00  0.00    +0.000 C 
ATOM     12  C   UNL     1      47.633   6.229  13.048  0.00  0.00    +0.000 C 
ENDBRANCH   2  12
ENDBRANCH   1   2
BRANCH   1  13
ATOM     13  O   UNL     1      46.631   3.914  15.555  0.00  0.00    +0.000 OA
BRANCH  13  14
ATOM     14  C   UNL     1      47.717   3.924  16.389  0.00  0.00    +0.000 A 
ATOM     15  C   UNL     1      47.934   5.053  17.169  0.00  0.00    +0.000 A 
ATOM     16  N   UNL     1      48.979   5.207  18.029  0.00  0.00    +0.000 NA
ATOM     17  CA  UNL     1      49.884   4.173  18.097  0.00  0.00    +0.000 A 
ATOM     18  C   UNL     1      49.760   3.002  17.349  0.00  0.00    +0.000 A 
ATOM     19  C   UNL     1      50.694   1.830  17.338  0.00  0.00    +0.000 C 
ATOM     20  C   UNL     1      48.658   2.910  16.480  0.00  0.00    +0.000 A 
BRANCH  17  21
ATOM     21  C   UNL     1      51.022   4.444  19.049  0.00  0.00    +0.000 C 
ATOM     22  O   UNL     1      52.166   4.736  18.744  0.00  0.00    +0.000 OA
BRANCH  21  23
ATOM     23  OXT UNL     1      50.619   4.321  20.339  0.00  0.00    +0.000 OA
ATOM     24  HXT UNL     1      51.371   3.988  20.881  0.00  0.00    +0.000 HD
ENDBRANCH  21  23
ENDBRANCH  17  21
ENDBRANCH  13  14
ENDBRANCH   1  13
TORSDOF 8
ENDMDL
