MODEL 1
REMARK VINA RESULT:    -7.459      0.000      0.000
REMARK INTER + INTRA:         -10.762
REMARK INTER:                  -9.421
REMARK INTRA:                  -1.341
REMARK UNBOUND:                -1.341
REMARK  Name = 
REMARK  5 active torsions:
REMARK  status: ('A' for Active; 'I' for Inactive)
REMARK    1  A    between atoms: C_2  and  C_13
REMARK    2  A    between atoms: N_3  and  C_4
REMARK    3  A    between atoms: C_4  and  C_5
REMARK    4  A    between atoms: C_5  and  C_6
REMARK    5  A    between atoms: C_6  and  O_7
REMARK                            x       y       z     vdW  Elec       q    Type
REMARK                         _______ _______ _______ _____ _____    ______ ____
ROOT
ATOM      1  O   UNL     1      49.221   6.536  13.911  0.00  0.00    +0.000 OA
ATOM      2  C   UNL     1      48.115   6.208  14.333  0.00  0.00    +0.000 C 
ATOM      3  N   UNL     1      47.910   5.774  15.616  0.00  0.00    +0.000 N 
ATOM      4  H   UNL     1      46.961   5.632  15.935  0.00  0.00    +0.000 HD
ENDROOT
BRANCH   2   5
ATOM      5  C   UNL     1      46.927   6.161  13.471  0.00  0.00    +0.000 A 
ATOM      6  C   UNL     1      46.348   7.330  12.996  0.00  0.00    +0.000 A 
ATOM      7  S   UNL     1      45.052   7.054  11.917  0.00  0.00    +0.000 S 
ATOM      8  C   UNL     1      45.185   5.367  12.098  0.00  0.00    +0.000 A 
ATOM      9  N   UNL     1      44.366   4.517  11.416  0.00  0.00    +0.000 NA
ATOM     10  C   UNL     1      44.559   3.266  11.671  0.00  0.00    +0.000 A 
ATOM     11  N   UNL     1      45.490   2.782  12.553  0.00  0.00    +0.000 N 
ATOM     12  C   UNL     1      46.361   3.596  13.230  0.00  0.00    +0.000 A 
ATOM     13  O   UNL     1      47.230   3.124  13.956  0.00  0.00    +0.000 OA
ATOM     14  C   UNL     1      46.194   5.018  12.970  0.00  0.00    +0.000 A 
ATOM     15  H   UNL     1      45.596   1.787  12.703  0.00  0.00    +0.000 HD
ENDBRANCH   2   5
BRANCH   3  16
ATOM     16  C   UNL     1      48.900   5.827  16.671  0.00  0.00    +0.000 C 
BRANCH  16  17
ATOM     17  C   UNL     1      48.580   4.853  17.835  0.00  0.00    +0.000 C 
ATOM     18  C   UNL     1      49.855   4.364  18.573  0.00  0.00    +0.000 C 
ATOM     19  C   UNL     1      50.709   3.411  17.736  0.00  0.00    +0.000 C 
ATOM     20  C   UNL     1      49.872   2.297  17.111  0.00  0.00    +0.000 C 
ATOM     21  N   UNL     1      48.736   2.836  16.366  0.00  0.00    +0.000 NA
ATOM     22  C   UNL     1      47.854   3.621  17.242  0.00  0.00    +0.000 C 
ATOM     23  H   UNL     1      48.204   2.069  15.957  0.00  0.00    +0.000 HD
BRANCH  17  24
ATOM     24  C   UNL     1      47.665   5.551  18.867  0.00  0.00    +0.000 C 
BRANCH  24  25
ATOM     25  O   UNL     1      46.287   5.405  18.553  0.00  0.00    +0.000 OA
ATOM     26  H   UNL     1      46.224   5.189  17.600  0.00  0.00    +0.000 HD
ENDBRANCH  24  25
ENDBRANCH  17  24
ENDBRANCH  16  17
ENDBRANCH   3  16
TORSDOF 5
ENDMDL
MODEL 2
REMARK VINA RESULT:    -6.936      1.971      2.902
REMARK INTER + INTRA:         -10.102
REMARK INTER:                  -9.076
REMARK INTRA:                  -1.026
REMARK UNBOUND:                -1.341
REMARK  Name = 
REMARK  5 active torsions:
REMARK  status: ('A' for Active; 'I' for Inactive)
REMARK    1  A    between atoms: C_2  and  C_13
REMARK    2  A    between atoms: N_3  and  C_4
REMARK    3  A    between atoms: C_4  and  C_5
REMARK    4  A    between atoms: C_5  and  C_6
REMARK    5  A    between atoms: C_6  and  O_7
REMARK                            x       y       z     vdW  Elec       q    Type
REMARK                         _______ _______ _______ _____ _____    ______ ____
ROOT
ATOM      1  O   UNL     1      47.314   3.083  14.090  0.00  0.00    +0.000 OA
ATOM      2  C   UNL     1      46.916   4.152  14.546  0.00  0.00    +0.000 C 
ATOM      3  N   UNL     1      46.777   4.379  15.889  0.00  0.00    +0.000 N 
ATOM      4  H   UNL     1      46.559   5.315  16.204  0.00  0.00    +0.000 HD
ENDROOT
BRANCH   2   5
ATOM      5  C   UNL     1      46.464   5.253  13.687  0.00  0.00    +0.000 A 
ATOM      6  C   UNL     1      47.275   6.357  13.461  0.00  0.00    +0.000 A 
ATOM      7  S   UNL     1      46.614   7.466  12.342  0.00  0.00    +0.000 S 
ATOM      8  C   UNL     1      45.199   6.537  12.169  0.00  0.00    +0.000 A 
ATOM      9  N   UNL     1      44.203   6.919  11.320  0.00  0.00    +0.000 NA
ATOM     10  C   UNL     1      43.176   6.135  11.311  0.00  0.00    +0.000 A 
ATOM     11  N   UNL     1      43.047   5.006  12.078  0.00  0.00    +0.000 N 
ATOM     12  C   UNL     1      44.038   4.563  12.914  0.00  0.00    +0.000 A 
ATOM     13  O   UNL     1      43.918   3.509  13.531  0.00  0.00    +0.000 OA
ATOM     14  C   UNL     1      45.225   5.404  12.955  0.00  0.00    +0.000 A 
ATOM     15  H   UNL     1      42.217   4.430  12.019  0.00  0.00    +0.000 HD
ENDBRANCH   2   5
BRANCH   3  16
ATOM     16  C   UNL     1      47.248   3.488  16.928  0.00  0.00    +0.000 C 
BRANCH  16  17
ATOM     17  C   UNL     1      48.655   3.878  17.452  0.00  0.00    +0.000 C 
ATOM     18  C   UNL     1      48.706   3.994  19.000  0.00  0.00    +0.000 C 
ATOM     19  C   UNL     1      47.943   5.204  19.540  0.00  0.00    +0.000 C 
ATOM     20  C   UNL     1      48.309   6.486  18.795  0.00  0.00    +0.000 C 
ATOM     21  N   UNL     1      48.160   6.326  17.350  0.00  0.00    +0.000 NA
ATOM     22  C   UNL     1      49.027   5.252  16.845  0.00  0.00    +0.000 C 
ATOM     23  H   UNL     1      48.404   7.200  16.885  0.00  0.00    +0.000 HD
BRANCH  17  24
ATOM     24  C   UNL     1      49.690   2.816  17.015  0.00  0.00    +0.000 C 
BRANCH  24  25
ATOM     25  O   UNL     1      49.174   1.933  16.028  0.00  0.00    +0.000 OA
ATOM     26  H   UNL     1      49.877   1.286  15.817  0.00  0.00    +0.000 HD
ENDBRANCH  24  25
ENDBRANCH  17  24
ENDBRANCH  16  17
ENDBRANCH   3  16
TORSDOF 5
ENDMDL
MODEL 3
REMARK VINA RESULT:    -6.850      2.387      6.510
REMARK INTER + INTRA:          -9.993
REMARK INTER:                  -8.992
REMARK INTRA:                  -1.001
REMARK UNBOUND:                -1.341
REMARK  Name = 
REMARK  5 active torsions:
REMARK  status: ('A' for Active; 'I' for Inactive)
REMARK    1  A    between atoms: C_2  and  C_13
REMARK    2  A    between atoms: N_3  and  C_4
REMARK    3  A    between atoms: C_4  and  C_5
REMARK    4  A    between atoms: C_5  and  C_6
REMARK    5  A    between atoms: C_6  and  O_7
REMARK                            x       y       z     vdW  Elec       q    Type
REMARK                         _______ _______ _______ _____ _____    ______ ____
ROOT
ATOM      1  O   UNL     1      47.011   3.034  13.829  0.00  0.00    +0.000 OA
ATOM      2  C   UNL     1      46.699   4.207  14.015  0.00  0.00    +0.000 C 
ATOM      3  N   UNL     1      45.636   4.799  13.386  0.00  0.00    +0.000 N 
ATOM      4  H   UNL     1      45.360   5.730  13.670  0.00  0.00    +0.000 HD
ENDROOT
BRANCH   2   5
ATOM      5  C   UNL     1      47.494   5.109  14.858  0.00  0.00    +0.000 A 
ATOM      6  C   UNL     1      48.172   6.186  14.302  0.00  0.00    +0.000 A 
ATOM      7  S   UNL     1      48.938   7.177  15.464  0.00  0.00    +0.000 S 
ATOM      8  C   UNL     1      48.438   6.167  16.740  0.00  0.00    +0.000 A 
ATOM      9  N   UNL     1      48.747   6.459  18.035  0.00  0.00    +0.000 NA
ATOM     10  C   UNL     1      48.329   5.592  18.895  0.00  0.00    +0.000 A 
ATOM     11  N   UNL     1      47.636   4.451  18.582  0.00  0.00    +0.000 N 
ATOM     12  C   UNL     1      47.270   4.137  17.299  0.00  0.00    +0.000 A 
ATOM     13  O   UNL     1      46.588   3.145  17.064  0.00  0.00    +0.000 OA
ATOM     14  C   UNL     1      47.707   5.089  16.289  0.00  0.00    +0.000 A 
ATOM     15  H   UNL     1      47.331   3.813  19.306  0.00  0.00    +0.000 HD
ENDBRANCH   2   5
BRANCH   3  16
ATOM     16  C   UNL     1      44.652   4.094  12.592  0.00  0.00    +0.000 C 
BRANCH  16  17
ATOM     17  C   UNL     1      43.942   5.018  11.569  0.00  0.00    +0.000 C 
ATOM     18  C   UNL     1      43.730   4.333  10.192  0.00  0.00    +0.000 C 
ATOM     19  C   UNL     1      45.031   4.126   9.414  0.00  0.00    +0.000 C 
ATOM     20  C   UNL     1      45.873   5.399   9.366  0.00  0.00    +0.000 C 
ATOM     21  N   UNL     1      46.099   5.941  10.705  0.00  0.00    +0.000 NA
ATOM     22  C   UNL     1      44.826   6.272  11.362  0.00  0.00    +0.000 C 
ATOM     23  H   UNL     1      46.669   6.783  10.638  0.00  0.00    +0.000 HD
BRANCH  17  24
ATOM     24  C   UNL     1      42.558   5.439  12.114  0.00  0.00    +0.000 C 
BRANCH  24  25
ATOM     25  O   UNL     1      42.516   5.444  13.535  0.00  0.00    +0.000 OA
ATOM     26  H   UNL     1      43.258   6.001  13.848  0.00  0.00    +0.000 HD
ENDBRANCH  24  25
ENDBRANCH  17  24
ENDBRANCH  16  17
ENDBRANCH   3  16
TORSDOF 5
ENDMDL
MODEL 4
REMARK VINA RESULT:    -6.810      1.227      2.213
REMARK INTER + INTRA:          -9.942
REMARK INTER:                  -8.719
REMARK INTRA:                  -1.223
REMARK UNBOUND:                -1.341
REMARK  Name = 
REMARK  5 active torsions:
REMARK  status: ('A' for Active; 'I' for Inactive)
REMARK    1  A    between atoms: C_2  and  C_13
REMARK    2  A    between atoms: N_3  and  C_4
REMARK    3  A    between atoms: C_4  and  C_5
REMARK    4  A    between atoms: C_5  and  C_6
REMARK    5  A    between atoms: C_6  and  O_7
REMARK                            x       y       z     vdW  Elec       q    Type
REMARK                         _______ _______ _______ _____ _____    ______ ____
ROOT
ATOM      1  O   UNL     1      49.216   6.591  14.041  0.00  0.00    +0.000 OA
ATOM      2  C   UNL     1      48.115   6.179  14.397  0.00  0.00    +0.000 C 
ATOM      3  N   UNL     1      47.893   5.633  15.634  0.00  0.00    +0.000 N 
ATOM      4  H   UNL     1      46.942   5.422  15.908  0.00  0.00    +0.000 HD
ENDROOT
BRANCH   2   5
ATOM      5  C   UNL     1      46.957   6.146  13.494  0.00  0.00    +0.000 A 
ATOM      6  C   UNL     1      46.420   7.321  12.987  0.00  0.00    +0.000 A 
ATOM      7  S   UNL     1      45.158   7.060  11.866  0.00  0.00    +0.000 S 
ATOM      8  C   UNL     1      45.250   5.373  12.068  0.00  0.00    +0.000 A 
ATOM      9  N   UNL     1      44.438   4.532  11.365  0.00  0.00    +0.000 NA
ATOM     10  C   UNL     1      44.597   3.280  11.639  0.00  0.00    +0.000 A 
ATOM     11  N   UNL     1      45.486   2.787  12.558  0.00  0.00    +0.000 N 
ATOM     12  C   UNL     1      46.348   3.591  13.258  0.00  0.00    +0.000 A 
ATOM     13  O   UNL     1      47.181   3.109  14.019  0.00  0.00    +0.000 OA
ATOM     14  C   UNL     1      46.220   5.013  12.978  0.00  0.00    +0.000 A 
ATOM     15  H   UNL     1      45.566   1.792  12.722  0.00  0.00    +0.000 HD
ENDBRANCH   2   5
BRANCH   3  16
ATOM     16  C   UNL     1      48.846   5.647  16.723  0.00  0.00    +0.000 C 
BRANCH  16  17
ATOM     17  C   UNL     1      48.338   4.871  17.966  0.00  0.00    +0.000 C 
ATOM     18  C   UNL     1      47.098   5.538  18.621  0.00  0.00    +0.000 C 
ATOM     19  C   UNL     1      47.422   6.858  19.322  0.00  0.00    +0.000 C 
ATOM     20  C   UNL     1      48.634   6.731  20.242  0.00  0.00    +0.000 C 
ATOM     21  N   UNL     1      49.785   6.172  19.535  0.00  0.00    +0.000 NA
ATOM     22  C   UNL     1      49.482   4.833  19.008  0.00  0.00    +0.000 C 
ATOM     23  H   UNL     1      50.577   6.107  20.174  0.00  0.00    +0.000 HD
BRANCH  17  24
ATOM     24  C   UNL     1      47.951   3.429  17.562  0.00  0.00    +0.000 C 
BRANCH  24  25
ATOM     25  O   UNL     1      46.627   3.348  17.051  0.00  0.00    +0.000 OA
ATOM     26  H   UNL     1      46.017   3.358  17.816  0.00  0.00    +0.000 HD
ENDBRANCH  24  25
ENDBRANCH  17  24
ENDBRANCH  16  17
ENDBRANCH   3  16
TORSDOF 5
ENDMDL
MODEL 5
REMARK VINA RESULT:    -6.580      3.972      6.539
REMARK INTER + INTRA:          -9.652
REMARK INTER:                  -8.196
REMARK INTRA:                  -1.456
REMARK UNBOUND:                -1.341
REMARK  Name = 
REMARK  5 active torsions:
REMARK  status: ('A' for Active; 'I' for Inactive)
REMARK    1  A    between atoms: C_2  and  C_13
REMARK    2  A    between atoms: N_3  and  C_4
REMARK    3  A    between atoms: C_4  and  C_5
REMARK    4  A    between atoms: C_5  and  C_6
REMARK    5  A    between atoms: C_6  and  O_7
REMARK                            x       y       z     vdW  Elec       q    Type
REMARK                         _______ _______ _______ _____ _____    ______ ____
ROOT
ATOM      1  O   UNL     1      47.778   5.173  13.866  0.00  0.00    +0.000 OA
ATOM      2  C   UNL     1      47.352   5.863  12.943  0.00  0.00    +0.000 C 
ATOM      3  N   UNL     1      46.322   5.462  12.134  0.00  0.00    +0.000 N 
ATOM      4  H   UNL     1      45.940   6.123  11.470  0.00  0.00    +0.000 HD
ENDROOT
BRANCH   2   5
ATOM      5  C   UNL     1      47.971   7.139  12.563  0.00  0.00    +0.000 A 
ATOM      6  C   UNL     1      49.335   7.219  12.314  0.00  0.00    +0.000 A 
ATOM      7  S   UNL     1      49.834   8.761  11.773  0.00  0.00    +0.000 S 
ATOM      8  C   UNL     1      48.257   9.385  11.912  0.00  0.00    +0.000 A 
ATOM      9  N   UNL     1      47.976  10.676  11.577  0.00  0.00    +0.000 NA
ATOM     10  C   UNL     1      46.745  11.021  11.759  0.00  0.00    +0.000 A 
ATOM     11  N   UNL     1      45.767  10.199  12.255  0.00  0.00    +0.000 N 
ATOM     12  C   UNL     1      45.995   8.884  12.567  0.00  0.00    +0.000 A 
ATOM     13  O   UNL     1      45.079   8.158  12.940  0.00  0.00    +0.000 OA
ATOM     14  C   UNL     1      47.365   8.438  12.369  0.00  0.00    +0.000 A 
ATOM     15  H   UNL     1      44.818  10.531  12.368  0.00  0.00    +0.000 HD
ENDBRANCH   2   5
BRANCH   3  16
ATOM     16  C   UNL     1      45.494   4.299  12.369  0.00  0.00    +0.000 C 
BRANCH  16  17
ATOM     17  C   UNL     1      44.132   4.380  11.632  0.00  0.00    +0.000 C 
ATOM     18  C   UNL     1      43.730   3.035  10.968  0.00  0.00    +0.000 C 
ATOM     19  C   UNL     1      44.597   2.675   9.760  0.00  0.00    +0.000 C 
ATOM     20  C   UNL     1      44.733   3.845   8.789  0.00  0.00    +0.000 C 
ATOM     21  N   UNL     1      45.192   5.054   9.471  0.00  0.00    +0.000 NA
ATOM     22  C   UNL     1      44.250   5.456  10.525  0.00  0.00    +0.000 C 
ATOM     23  H   UNL     1      45.279   5.812   8.794  0.00  0.00    +0.000 HD
BRANCH  17  24
ATOM     24  C   UNL     1      43.018   4.776  12.629  0.00  0.00    +0.000 C 
BRANCH  24  25
ATOM     25  O   UNL     1      43.319   5.977  13.325  0.00  0.00    +0.000 OA
ATOM     26  H   UNL     1      43.623   6.631  12.663  0.00  0.00    +0.000 HD
ENDBRANCH  24  25
ENDBRANCH  17  24
ENDBRANCH  16  17
ENDBRANCH   3  16
TORSDOF 5
ENDMDL
MODEL 6
REMARK VINA RESULT:    -6.088      2.813      6.556
REMARK INTER + INTRA:          -9.031
REMARK INTER:                  -7.824
REMARK INTRA:                  -1.206
REMARK UNBOUND:                -1.341
REMARK  Name = 
REMARK  5 active torsions:
REMARK  status: ('A' for Active; 'I' for Inactive)
REMARK    1  A    between atoms: C_2  and  C_13
REMARK    2  A    between atoms: N_3  and  C_4
REMARK    3  A    between atoms: C_4  and  C_5
REMARK    4  A    between atoms: C_5  and  C_6
REMARK    5  A    between atoms: C_6  and  O_7
REMARK                            x       y       z     vdW  Elec       q    Type
REMARK                         _______ _______ _______ _____ _____    ______ ____
ROOT
ATOM      1  O   UNL     1      47.255   3.007  14.051  0.00  0.00    +0.000 OA
ATOM      2  C   UNL     1      46.859   4.143  14.301  0.00  0.00    +0.000 C 
ATOM      3  N   UNL     1      45.766   4.697  13.690  0.00  0.00    +0.000 N 
ATOM      4  H   UNL     1      45.422   5.588  14.024  0.00  0.00    +0.000 HD
ENDROOT
BRANCH   2   5
ATOM      5  C   UNL     1      47.580   5.045  15.208  0.00  0.00    +0.000 A 
ATOM      6  C   UNL     1      47.599   4.809  16.576  0.00  0.00    +0.000 A 
ATOM      7  S   UNL     1      48.588   5.903  17.438  0.00  0.00    +0.000 S 
ATOM      8  C   UNL     1      48.974   6.762  16.020  0.00  0.00    +0.000 A 
ATOM      9  N   UNL     1      49.818   7.832  16.050  0.00  0.00    +0.000 NA
ATOM     10  C   UNL     1      49.999   8.404  14.906  0.00  0.00    +0.000 A 
ATOM     11  N   UNL     1      49.408   8.013  13.733  0.00  0.00    +0.000 N 
ATOM     12  C   UNL     1      48.585   6.920  13.649  0.00  0.00    +0.000 A 
ATOM     13  O   UNL     1      48.130   6.555  12.569  0.00  0.00    +0.000 OA
ATOM     14  C   UNL     1      48.355   6.229  14.909  0.00  0.00    +0.000 A 
ATOM     15  H   UNL     1      49.596   8.502  12.868  0.00  0.00    +0.000 HD
ENDBRANCH   2   5
BRANCH   3  16
ATOM     16  C   UNL     1      44.842   3.976  12.841  0.00  0.00    +0.000 C 
BRANCH  16  17
ATOM     17  C   UNL     1      44.031   4.916  11.912  0.00  0.00    +0.000 C 
ATOM     18  C   UNL     1      43.647   4.242  10.567  0.00  0.00    +0.000 C 
ATOM     19  C   UNL     1      44.843   4.021   9.640  0.00  0.00    +0.000 C 
ATOM     20  C   UNL     1      45.694   5.281   9.499  0.00  0.00    +0.000 C 
ATOM     21  N   UNL     1      46.084   5.812  10.804  0.00  0.00    +0.000 NA
ATOM     22  C   UNL     1      44.903   6.157  11.607  0.00  0.00    +0.000 C 
ATOM     23  H   UNL     1      46.655   6.646  10.673  0.00  0.00    +0.000 HD
BRANCH  17  24
ATOM     24  C   UNL     1      42.727   5.353  12.619  0.00  0.00    +0.000 C 
BRANCH  24  25
ATOM     25  O   UNL     1      41.969   6.265  11.837  0.00  0.00    +0.000 OA
ATOM     26  H   UNL     1      41.174   6.507  12.355  0.00  0.00    +0.000 HD
ENDBRANCH  24  25
ENDBRANCH  17  24
ENDBRANCH  16  17
ENDBRANCH   3  16
TORSDOF 5
ENDMDL
MODEL 7
REMARK VINA RESULT:    -6.031      2.418      6.171
REMARK INTER + INTRA:          -8.958
REMARK INTER:                  -7.809
REMARK INTRA:                  -1.149
REMARK UNBOUND:                -1.341
REMARK  Name = 
REMARK  5 active torsions:
REMARK  status: ('A' for Active; 'I' for Inactive)
REMARK    1  A    between atoms: C_2  and  C_13
REMARK    2  A    between atoms: N_3  and  C_4
REMARK    3  A    between atoms: C_4  and  C_5
REMARK    4  A    between atoms: C_5  and  C_6
REMARK    5  A    between atoms: C_6  and  O_7
REMARK                            x       y       z     vdW  Elec       q    Type
REMARK                         _______ _______ _______ _____ _____    ______ ____
ROOT
ATOM      1  O   UNL     1      48.781   6.272  12.937  0.00  0.00    +0.000 OA
ATOM      2  C   UNL     1      47.921   6.140  13.804  0.00  0.00    +0.000 C 
ATOM      3  N   UNL     1      46.583   6.089  13.519  0.00  0.00    +0.000 N 
ATOM      4  H   UNL     1      45.936   5.861  14.263  0.00  0.00    +0.000 HD
ENDROOT
BRANCH   2   5
ATOM      5  C   UNL     1      48.246   6.119  15.236  0.00  0.00    +0.000 A 
ATOM      6  C   UNL     1      48.694   7.265  15.879  0.00  0.00    +0.000 A 
ATOM      7  S   UNL     1      48.901   7.060  17.562  0.00  0.00    +0.000 S 
ATOM      8  C   UNL     1      48.456   5.419  17.476  0.00  0.00    +0.000 A 
ATOM      9  N   UNL     1      48.403   4.642  18.595  0.00  0.00    +0.000 NA
ATOM     10  C   UNL     1      48.078   3.411  18.377  0.00  0.00    +0.000 A 
ATOM     11  N   UNL     1      47.810   2.879  17.143  0.00  0.00    +0.000 N 
ATOM     12  C   UNL     1      47.813   3.631  15.997  0.00  0.00    +0.000 A 
ATOM     13  O   UNL     1      47.498   3.138  14.919  0.00  0.00    +0.000 OA
ATOM     14  C   UNL     1      48.162   5.031  16.187  0.00  0.00    +0.000 A 
ATOM     15  H   UNL     1      47.555   1.905  17.042  0.00  0.00    +0.000 HD
ENDBRANCH   2   5
BRANCH   3  16
ATOM     16  C   UNL     1      46.028   5.992  12.186  0.00  0.00    +0.000 C 
BRANCH  16  17
ATOM     17  C   UNL     1      45.145   4.730  12.001  0.00  0.00    +0.000 C 
ATOM     18  C   UNL     1      44.295   4.780  10.702  0.00  0.00    +0.000 C 
ATOM     19  C   UNL     1      43.168   5.813  10.758  0.00  0.00    +0.000 C 
ATOM     20  C   UNL     1      42.354   5.698  12.045  0.00  0.00    +0.000 C 
ATOM     21  N   UNL     1      43.214   5.739  13.226  0.00  0.00    +0.000 NA
ATOM     22  C   UNL     1      44.185   4.636  13.211  0.00  0.00    +0.000 C 
ATOM     23  H   UNL     1      42.640   5.668  14.066  0.00  0.00    +0.000 HD
BRANCH  17  24
ATOM     24  C   UNL     1      46.038   3.470  11.943  0.00  0.00    +0.000 C 
BRANCH  24  25
ATOM     25  O   UNL     1      45.621   2.470  12.862  0.00  0.00    +0.000 OA
ATOM     26  H   UNL     1      46.397   2.233  13.410  0.00  0.00    +0.000 HD
ENDBRANCH  24  25
ENDBRANCH  17  24
ENDBRANCH  16  17
ENDBRANCH   3  16
TORSDOF 5
ENDMDL
MODEL 8
REMARK VINA RESULT:    -6.002      2.082      3.672
REMARK INTER + INTRA:          -8.921
REMARK INTER:                  -7.495
REMARK INTRA:                  -1.426
REMARK UNBOUND:                -1.341
REMARK  Name = 
REMARK  5 active torsions:
REMARK  status: ('A' for Active; 'I' for Inactive)
REMARK    1  A    between atoms: C_2  and  C_13
REMARK    2  A    between atoms: N_3  and  C_4
REMARK    3  A    between atoms: C_4  and  C_5
REMARK    4  A    between atoms: C_5  and  C_6
REMARK    5  A    between atoms: C_6  and  O_7
REMARK                            x       y       z     vdW  Elec       q    Type
REMARK                         _______ _______ _______ _____ _____    ______ ____
ROOT
ATOM      1  O   UNL     1      47.714   2.918  15.058  0.00  0.00    +0.000 OA
ATOM      2  C   UNL     1      47.296   4.068  15.173  0.00  0.00    +0.000 C 
ATOM      3  N   UNL     1      47.128   4.677  16.388  0.00  0.00    +0.000 N 
ATOM      4  H   UNL     1      46.894   5.661  16.411  0.00  0.00    +0.000 HD
ENDROOT
BRANCH   2   5
ATOM      5  C   UNL     1      46.848   4.861  14.021  0.00  0.00    +0.000 A 
ATOM      6  C   UNL     1      45.717   4.495  13.304  0.00  0.00    +0.000 A 
ATOM      7  S   UNL     1      45.300   5.611  12.080  0.00  0.00    +0.000 S 
ATOM      8  C   UNL     1      46.650   6.587  12.430  0.00  0.00    +0.000 A 
ATOM      9  N   UNL     1      46.882   7.743  11.746  0.00  0.00    +0.000 NA
ATOM     10  C   UNL     1      47.957   8.367  12.097  0.00  0.00    +0.000 A 
ATOM     11  N   UNL     1      48.830   7.940  13.064  0.00  0.00    +0.000 N 
ATOM     12  C   UNL     1      48.615   6.806  13.804  0.00  0.00    +0.000 A 
ATOM     13  O   UNL     1      49.380   6.493  14.711  0.00  0.00    +0.000 OA
ATOM     14  C   UNL     1      47.410   6.069  13.457  0.00  0.00    +0.000 A 
ATOM     15  H   UNL     1      49.653   8.480  13.297  0.00  0.00    +0.000 HD
ENDBRANCH   2   5
BRANCH   3  16
ATOM     16  C   UNL     1      47.589   4.138  17.650  0.00  0.00    +0.000 C 
BRANCH  16  17
ATOM     17  C   UNL     1      48.770   4.948  18.245  0.00  0.00    +0.000 C 
ATOM     18  C   UNL     1      48.894   4.780  19.784  0.00  0.00    +0.000 C 
ATOM     19  C   UNL     1      47.767   5.463  20.559  0.00  0.00    +0.000 C 
ATOM     20  C   UNL     1      47.547   6.901  20.093  0.00  0.00    +0.000 C 
ATOM     21  N   UNL     1      47.357   6.970  18.645  0.00  0.00    +0.000 NA
ATOM     22  C   UNL     1      48.531   6.444  17.933  0.00  0.00    +0.000 C 
ATOM     23  H   UNL     1      47.206   7.940  18.369  0.00  0.00    +0.000 HD
BRANCH  17  24
ATOM     24  C   UNL     1      50.098   4.486  17.603  0.00  0.00    +0.000 C 
BRANCH  24  25
ATOM     25  O   UNL     1      49.993   3.197  17.012  0.00  0.00    +0.000 OA
ATOM     26  H   UNL     1      50.717   2.648  17.376  0.00  0.00    +0.000 HD
ENDBRANCH  24  25
ENDBRANCH  17  24
ENDBRANCH  16  17
ENDBRANCH   3  16
TORSDOF 5
ENDMDL
MODEL 9
REMARK VINA RESULT:    -5.901      2.758      6.517
REMARK INTER + INTRA:          -8.794
REMARK INTER:                  -7.558
REMARK INTRA:                  -1.235
REMARK UNBOUND:                -1.341
REMARK  Name = 
REMARK  5 active torsions:
REMARK  status: ('A' for Active; 'I' for Inactive)
REMARK    1  A    between atoms: C_2  and  C_13
REMARK    2  A    between atoms: N_3  and  C_4
REMARK    3  A    between atoms: C_4  and  C_5
REMARK    4  A    between atoms: C_5  and  C_6
REMARK    5  A    between atoms: C_6  and  O_7
REMARK                            x       y       z     vdW  Elec       q    Type
REMARK                         _______ _______ _______ _____ _____    ______ ____
ROOT
ATOM      1  O   UNL     1      47.697   2.828  14.778  0.00  0.00    +0.000 OA
ATOM      2  C   UNL     1      47.234   3.914  15.119  0.00  0.00    +0.000 C 
ATOM      3  N   UNL     1      46.303   4.588  14.375  0.00  0.00    +0.000 N 
ATOM      4  H   UNL     1      45.875   5.417  14.767  0.00  0.00    +0.000 HD
ENDROOT
BRANCH   2   5
ATOM      5  C   UNL     1      47.706   4.631  16.310  0.00  0.00    +0.000 A 
ATOM      6  C   UNL     1      47.408   4.166  17.584  0.00  0.00    +0.000 A 
ATOM      7  S   UNL     1      48.148   5.073  18.827  0.00  0.00    +0.000 S 
ATOM      8  C   UNL     1      48.841   6.151  17.706  0.00  0.00    +0.000 A 
ATOM      9  N   UNL     1      49.636   7.180  18.115  0.00  0.00    +0.000 NA
ATOM     10  C   UNL     1      50.070   7.934  17.161  0.00  0.00    +0.000 A 
ATOM     11  N   UNL     1      49.777   7.762  15.833  0.00  0.00    +0.000 N 
ATOM     12  C   UNL     1      49.016   6.719  15.373  0.00  0.00    +0.000 A 
ATOM     13  O   UNL     1      48.834   6.554  14.171  0.00  0.00    +0.000 OA
ATOM     14  C   UNL     1      48.510   5.830  16.408  0.00  0.00    +0.000 A 
ATOM     15  H   UNL     1      50.155   8.387  15.132  0.00  0.00    +0.000 HD
ENDBRANCH   2   5
BRANCH   3  16
ATOM     16  C   UNL     1      45.616   4.043  13.223  0.00  0.00    +0.000 C 
BRANCH  16  17
ATOM     17  C   UNL     1      44.590   5.036  12.618  0.00  0.00    +0.000 C 
ATOM     18  C   UNL     1      44.529   4.963  11.068  0.00  0.00    +0.000 C 
ATOM     19  C   UNL     1      45.780   5.521  10.388  0.00  0.00    +0.000 C 
ATOM     20  C   UNL     1      46.167   6.890  10.944  0.00  0.00    +0.000 C 
ATOM     21  N   UNL     1      46.284   6.861  12.400  0.00  0.00    +0.000 NA
ATOM     22  C   UNL     1      45.013   6.468  13.025  0.00  0.00    +0.000 C 
ATOM     23  H   UNL     1      46.550   7.786  12.737  0.00  0.00    +0.000 HD
BRANCH  17  24
ATOM     24  C   UNL     1      43.178   4.731  13.170  0.00  0.00    +0.000 C 
BRANCH  24  25
ATOM     25  O   UNL     1      42.203   5.648  12.693  0.00  0.00    +0.000 OA
ATOM     26  H   UNL     1      41.346   5.402  13.097  0.00  0.00    +0.000 HD
ENDBRANCH  24  25
ENDBRANCH  17  24
ENDBRANCH  16  17
ENDBRANCH   3  16
TORSDOF 5
ENDMDL
