MODEL 1
REMARK VINA RESULT:    -6.962      0.000      0.000
REMARK INTER + INTRA:         -10.566
REMARK INTER:                  -9.811
REMARK INTRA:                  -0.755
REMARK UNBOUND:                -0.755
REMARK  Name = 
REMARK  10 active torsions:
REMARK  status: ('A' for Active; 'I' for Inactive)
REMARK    1  A    between atoms: C_1  and  C_2
REMARK    2  A    between atoms: C_2  and  C_3
REMARK    3  A    between atoms: C_6  and  C_7
REMARK    4  A    between atoms: C_7  and  O_8
REMARK    5  A    between atoms: O_8  and  C_9
REMARK    6  A    between atoms: C_13  and  O_14
REMARK    7  A    between atoms: O_14  and  C_15
REMARK    8  A    between atoms: C_22  and  C_23
REMARK    9  A    between atoms: N_25  and  C_26
REMARK   10  A    between atoms: N_25  and  C_27
REMARK                            x       y       z     vdW  Elec       q    Type
REMARK                         _______ _______ _______ _____ _____    ______ ____
ROOT
ATOM      1  C   UNL     1      46.772   4.588  14.078  0.00  0.00    +0.000 C 
ENDROOT
BRANCH   1   5
ATOM      2  C   UNL     1      48.313   4.559  18.061  0.00  0.00    +0.000 A 
ATOM      3  C   UNL     1      47.428   3.601  17.555  0.00  0.00    +0.000 A 
ATOM      4  N   UNL     1      46.910   3.615  16.310  0.00  0.00    +0.000 NA
ATOM      5  C   UNL     1      47.346   4.580  15.475  0.00  0.00    +0.000 A 
ATOM      6  C   UNL     1      48.225   5.580  15.887  0.00  0.00    +0.000 A 
ATOM      7  C   UNL     1      48.652   5.635  17.213  0.00  0.00    +0.000 A 
BRANCH   7   8
ATOM      8  C   UNL     1      49.549   6.754  17.653  0.00  0.00    +0.000 C 
ATOM      9  O   UNL     1      50.758   6.586  17.493  0.00  0.00    +0.000 OA
ATOM     10  N   UNL     1      49.070   7.953  18.224  0.00  0.00    +0.000 N 
ATOM     11  C   UNL     1      47.716   8.287  18.672  0.00  0.00    +0.000 C 
ATOM     12  C   UNL     1      50.073   8.914  18.665  0.00  0.00    +0.000 C 
ENDBRANCH   7   8
BRANCH   2  14
ATOM     13  C   UNL     1      48.223   5.109  20.502  0.00  0.00    +0.000 C 
ATOM     14  C   UNL     1      48.910   4.276  19.420  0.00  0.00    +0.000 C 
ENDBRANCH   2  14
ENDBRANCH   1   5
BRANCH   1  15
ATOM     15  O   UNL     1      45.405   4.159  14.091  0.00  0.00    +0.000 OA
BRANCH  15  16
ATOM     16  C   UNL     1      44.670   4.499  12.990  0.00  0.00    +0.000 A 
ATOM     17  C   UNL     1      43.335   4.912  13.026  0.00  0.00    +0.000 A 
ATOM     18  C   UNL     1      42.668   5.207  11.842  0.00  0.00    +0.000 A 
ATOM     19  C   UNL     1      43.333   5.117  10.621  0.00  0.00    +0.000 A 
ATOM     20  C   UNL     1      44.686   4.773  10.580  0.00  0.00    +0.000 A 
ATOM     21  C   UNL     1      45.343   4.445  11.767  0.00  0.00    +0.000 A 
BRANCH  20  22
ATOM     22  O   UNL     1      45.424   4.700   9.422  0.00  0.00    +0.000 OA
BRANCH  22  23
ATOM     23  C   UNL     1      44.857   3.858   8.405  0.00  0.00    +0.000 C 
ATOM     24  C   UNL     1      44.565   2.475   8.943  0.00  0.00    +0.000 C 
ATOM     25  C   UNL     1      45.804   1.672   8.615  0.00  0.00    +0.000 C 
ATOM     26  O   UNL     1      46.447   2.292   7.503  0.00  0.00    +0.000 OA
ATOM     27  C   UNL     1      45.881   3.594   7.305  0.00  0.00    +0.000 C 
ENDBRANCH  22  23
ENDBRANCH  20  22
ENDBRANCH  15  16
ENDBRANCH   1  15
TORSDOF 7
ENDMDL
MODEL 2
REMARK VINA RESULT:    -6.938      1.451      2.472
REMARK INTER + INTRA:         -10.532
REMARK INTER:                  -9.532
REMARK INTRA:                  -1.000
REMARK UNBOUND:                -0.755
REMARK  Name = 
REMARK  10 active torsions:
REMARK  status: ('A' for Active; 'I' for Inactive)
REMARK    1  A    between atoms: C_1  and  C_2
REMARK    2  A    between atoms: C_2  and  C_3
REMARK    3  A    between atoms: C_6  and  C_7
REMARK    4  A    between atoms: C_7  and  O_8
REMARK    5  A    between atoms: O_8  and  C_9
REMARK    6  A    between atoms: C_13  and  O_14
REMARK    7  A    between atoms: O_14  and  C_15
REMARK    8  A    between atoms: C_22  and  C_23
REMARK    9  A    between atoms: N_25  and  C_26
REMARK   10  A    between atoms: N_25  and  C_27
REMARK                            x       y       z     vdW  Elec       q    Type
REMARK                         _______ _______ _______ _____ _____    ______ ____
ROOT
ATOM      1  C   UNL     1      46.808   3.982  13.829  0.00  0.00    +0.000 C 
ENDROOT
BRANCH   1   5
ATOM      2  C   UNL     1      48.862   6.752  16.348  0.00  0.00    +0.000 A 
ATOM      3  C   UNL     1      48.842   6.827  14.952  0.00  0.00    +0.000 A 
ATOM      4  N   UNL     1      48.224   5.943  14.143  0.00  0.00    +0.000 NA
ATOM      5  C   UNL     1      47.508   4.966  14.737  0.00  0.00    +0.000 A 
ATOM      6  C   UNL     1      47.468   4.807  16.121  0.00  0.00    +0.000 A 
ATOM      7  C   UNL     1      48.219   5.646  16.944  0.00  0.00    +0.000 A 
BRANCH   7   8
ATOM      8  C   UNL     1      48.212   5.422  18.427  0.00  0.00    +0.000 C 
ATOM      9  O   UNL     1      47.246   5.865  19.047  0.00  0.00    +0.000 OA
ATOM     10  N   UNL     1      49.241   4.740  19.113  0.00  0.00    +0.000 N 
ATOM     11  C   UNL     1      50.548   4.300  18.618  0.00  0.00    +0.000 C 
ATOM     12  C   UNL     1      49.124   4.667  20.563  0.00  0.00    +0.000 C 
ENDBRANCH   7   8
BRANCH   2  14
ATOM     13  C   UNL     1      48.462   9.075  17.196  0.00  0.00    +0.000 C 
ATOM     14  C   UNL     1      49.466   7.928  17.080  0.00  0.00    +0.000 C 
ENDBRANCH   2  14
ENDBRANCH   1   5
BRANCH   1  15
ATOM     15  O   UNL     1      45.388   4.057  14.003  0.00  0.00    +0.000 OA
BRANCH  15  16
ATOM     16  C   UNL     1      44.678   4.429  12.895  0.00  0.00    +0.000 A 
ATOM     17  C   UNL     1      43.371   4.926  12.922  0.00  0.00    +0.000 A 
ATOM     18  C   UNL     1      42.727   5.246  11.733  0.00  0.00    +0.000 A 
ATOM     19  C   UNL     1      43.387   5.099  10.515  0.00  0.00    +0.000 A 
ATOM     20  C   UNL     1      44.716   4.670  10.482  0.00  0.00    +0.000 A 
ATOM     21  C   UNL     1      45.349   4.317  11.675  0.00  0.00    +0.000 A 
BRANCH  20  22
ATOM     22  O   UNL     1      45.450   4.536   9.328  0.00  0.00    +0.000 OA
BRANCH  22  23
ATOM     23  C   UNL     1      44.859   3.674   8.340  0.00  0.00    +0.000 C 
ATOM     24  C   UNL     1      44.698   2.267   8.872  0.00  0.00    +0.000 C 
ATOM     25  C   UNL     1      45.956   1.551   8.433  0.00  0.00    +0.000 C 
ATOM     26  O   UNL     1      46.469   2.228   7.287  0.00  0.00    +0.000 OA
ATOM     27  C   UNL     1      45.808   3.494   7.160  0.00  0.00    +0.000 C 
ENDBRANCH  22  23
ENDBRANCH  20  22
ENDBRANCH  15  16
ENDBRANCH   1  15
TORSDOF 7
ENDMDL
MODEL 3
REMARK VINA RESULT:    -6.769      2.680      4.034
REMARK INTER + INTRA:         -10.294
REMARK INTER:                  -9.270
REMARK INTRA:                  -1.024
REMARK UNBOUND:                -0.755
REMARK  Name = 
REMARK  10 active torsions:
REMARK  status: ('A' for Active; 'I' for Inactive)
REMARK    1  A    between atoms: C_1  and  C_2
REMARK    2  A    between atoms: C_2  and  C_3
REMARK    3  A    between atoms: C_6  and  C_7
REMARK    4  A    between atoms: C_7  and  O_8
REMARK    5  A    between atoms: O_8  and  C_9
REMARK    6  A    between atoms: C_13  and  O_14
REMARK    7  A    between atoms: O_14  and  C_15
REMARK    8  A    between atoms: C_22  and  C_23
REMARK    9  A    between atoms: N_25  and  C_26
REMARK   10  A    between atoms: N_25  and  C_27
REMARK                            x       y       z     vdW  Elec       q    Type
REMARK                         _______ _______ _______ _____ _____    ______ ____
ROOT
ATOM      1  C   UNL     1      45.592   6.374  12.096  0.00  0.00    +0.000 C 
ENDROOT
BRANCH   1   5
ATOM      2  C   UNL     1      49.526   7.633  13.180  0.00  0.00    +0.000 A 
ATOM      3  C   UNL     1      49.023   7.668  11.876  0.00  0.00    +0.000 A 
ATOM      4  N   UNL     1      47.795   7.246  11.514  0.00  0.00    +0.000 NA
ATOM      5  C   UNL     1      46.972   6.838  12.502  0.00  0.00    +0.000 A 
ATOM      6  C   UNL     1      47.383   6.765  13.832  0.00  0.00    +0.000 A 
ATOM      7  C   UNL     1      48.697   7.077  14.177  0.00  0.00    +0.000 A 
BRANCH   7   8
ATOM      8  C   UNL     1      49.138   6.934  15.603  0.00  0.00    +0.000 C 
ATOM      9  O   UNL     1      49.639   5.855  15.920  0.00  0.00    +0.000 OA
ATOM     10  N   UNL     1      49.004   7.960  16.563  0.00  0.00    +0.000 N 
ATOM     11  C   UNL     1      48.282   9.232  16.462  0.00  0.00    +0.000 C 
ATOM     12  C   UNL     1      49.414   7.641  17.925  0.00  0.00    +0.000 C 
ENDBRANCH   7   8
BRANCH   2  14
ATOM     13  C   UNL     1      50.683   9.803  13.657  0.00  0.00    +0.000 C 
ATOM     14  C   UNL     1      50.860   8.306  13.408  0.00  0.00    +0.000 C 
ENDBRANCH   2  14
ENDBRANCH   1   5
BRANCH   1  15
ATOM     15  O   UNL     1      45.520   6.186  10.678  0.00  0.00    +0.000 OA
BRANCH  15  16
ATOM     16  C   UNL     1      45.125   4.943  10.268  0.00  0.00    +0.000 A 
ATOM     17  C   UNL     1      44.421   4.035  11.065  0.00  0.00    +0.000 A 
ATOM     18  C   UNL     1      44.093   2.780  10.561  0.00  0.00    +0.000 A 
ATOM     19  C   UNL     1      44.442   2.434   9.257  0.00  0.00    +0.000 A 
ATOM     20  C   UNL     1      45.082   3.360   8.431  0.00  0.00    +0.000 A 
ATOM     21  C   UNL     1      45.440   4.606   8.950  0.00  0.00    +0.000 A 
BRANCH  20  22
ATOM     22  O   UNL     1      45.424   3.112   7.123  0.00  0.00    +0.000 OA
BRANCH  22  23
ATOM     23  C   UNL     1      46.837   2.999   6.885  0.00  0.00    +0.000 C 
ATOM     24  C   UNL     1      47.148   3.071   5.407  0.00  0.00    +0.000 C 
ATOM     25  C   UNL     1      47.175   1.628   4.956  0.00  0.00    +0.000 C 
ATOM     26  O   UNL     1      47.475   0.818   6.092  0.00  0.00    +0.000 OA
ATOM     27  C   UNL     1      47.330   1.611   7.278  0.00  0.00    +0.000 C 
ENDBRANCH  22  23
ENDBRANCH  20  22
ENDBRANCH  15  16
ENDBRANCH   1  15
TORSDOF 7
ENDMDL
MODEL 4
REMARK VINA RESULT:    -6.643      3.615      4.697
REMARK INTER + INTRA:         -10.117
REMARK INTER:                  -9.162
REMARK INTRA:                  -0.955
REMARK UNBOUND:                -0.755
REMARK  Name = 
REMARK  10 active torsions:
REMARK  status: ('A' for Active; 'I' for Inactive)
REMARK    1  A    between atoms: C_1  and  C_2
REMARK    2  A    between atoms: C_2  and  C_3
REMARK    3  A    between atoms: C_6  and  C_7
REMARK    4  A    between atoms: C_7  and  O_8
REMARK    5  A    between atoms: O_8  and  C_9
REMARK    6  A    between atoms: C_13  and  O_14
REMARK    7  A    between atoms: O_14  and  C_15
REMARK    8  A    between atoms: C_22  and  C_23
REMARK    9  A    between atoms: N_25  and  C_26
REMARK   10  A    between atoms: N_25  and  C_27
REMARK                            x       y       z     vdW  Elec       q    Type
REMARK                         _______ _______ _______ _____ _____    ______ ____
ROOT
ATOM      1  C   UNL     1      45.562   6.417  11.957  0.00  0.00    +0.000 C 
ENDROOT
BRANCH   1   5
ATOM      2  C   UNL     1      49.309   7.436  13.735  0.00  0.00    +0.000 A 
ATOM      3  C   UNL     1      48.221   6.913  14.442  0.00  0.00    +0.000 A 
ATOM      4  N   UNL     1      47.024   6.615  13.900  0.00  0.00    +0.000 NA
ATOM      5  C   UNL     1      46.902   6.760  12.564  0.00  0.00    +0.000 A 
ATOM      6  C   UNL     1      47.928   7.277  11.775  0.00  0.00    +0.000 A 
ATOM      7  C   UNL     1      49.117   7.707  12.363  0.00  0.00    +0.000 A 
BRANCH   7   8
ATOM      8  C   UNL     1      50.185   8.316  11.506  0.00  0.00    +0.000 C 
ATOM      9  O   UNL     1      50.904   7.535  10.882  0.00  0.00    +0.000 OA
ATOM     10  N   UNL     1      50.387   9.709  11.391  0.00  0.00    +0.000 N 
ATOM     11  C   UNL     1      49.788  10.797  12.168  0.00  0.00    +0.000 C 
ATOM     12  C   UNL     1      51.514  10.141  10.574  0.00  0.00    +0.000 C 
ENDBRANCH   7   8
BRANCH   2  14
ATOM     13  C   UNL     1      50.489   6.956  15.892  0.00  0.00    +0.000 C 
ATOM     14  C   UNL     1      50.615   7.545  14.487  0.00  0.00    +0.000 C 
ENDBRANCH   2  14
ENDBRANCH   1   5
BRANCH   1  15
ATOM     15  O   UNL     1      45.693   6.170  10.552  0.00  0.00    +0.000 OA
BRANCH  15  16
ATOM     16  C   UNL     1      45.256   4.946  10.126  0.00  0.00    +0.000 A 
ATOM     17  C   UNL     1      44.515   4.055  10.909  0.00  0.00    +0.000 A 
ATOM     18  C   UNL     1      44.145   2.819  10.389  0.00  0.00    +0.000 A 
ATOM     19  C   UNL     1      44.488   2.476   9.083  0.00  0.00    +0.000 A 
ATOM     20  C   UNL     1      45.167   3.387   8.271  0.00  0.00    +0.000 A 
ATOM     21  C   UNL     1      45.566   4.612   8.806  0.00  0.00    +0.000 A 
BRANCH  20  22
ATOM     22  O   UNL     1      45.507   3.141   6.962  0.00  0.00    +0.000 OA
BRANCH  22  23
ATOM     23  C   UNL     1      46.909   2.908   6.742  0.00  0.00    +0.000 C 
ATOM     24  C   UNL     1      47.240   2.936   5.267  0.00  0.00    +0.000 C 
ATOM     25  C   UNL     1      47.152   1.490   4.833  0.00  0.00    +0.000 C 
ATOM     26  O   UNL     1      47.372   0.672   5.982  0.00  0.00    +0.000 OA
ATOM     27  C   UNL     1      47.281   1.489   7.157  0.00  0.00    +0.000 C 
ENDBRANCH  22  23
ENDBRANCH  20  22
ENDBRANCH  15  16
ENDBRANCH   1  15
TORSDOF 7
ENDMDL
MODEL 5
REMARK VINA RESULT:    -6.314      2.653      4.017
REMARK INTER + INTRA:          -9.653
REMARK INTER:                  -8.551
REMARK INTRA:                  -1.102
REMARK UNBOUND:                -0.755
REMARK  Name = 
REMARK  10 active torsions:
REMARK  status: ('A' for Active; 'I' for Inactive)
REMARK    1  A    between atoms: C_1  and  C_2
REMARK    2  A    between atoms: C_2  and  C_3
REMARK    3  A    between atoms: C_6  and  C_7
REMARK    4  A    between atoms: C_7  and  O_8
REMARK    5  A    between atoms: O_8  and  C_9
REMARK    6  A    between atoms: C_13  and  O_14
REMARK    7  A    between atoms: O_14  and  C_15
REMARK    8  A    between atoms: C_22  and  C_23
REMARK    9  A    between atoms: N_25  and  C_26
REMARK   10  A    between atoms: N_25  and  C_27
REMARK                            x       y       z     vdW  Elec       q    Type
REMARK                         _______ _______ _______ _____ _____    ______ ____
ROOT
ATOM      1  C   UNL     1      48.872   7.921  15.684  0.00  0.00    +0.000 C 
ENDROOT
BRANCH   1   5
ATOM      2  C   UNL     1      48.966   5.082  18.873  0.00  0.00    +0.000 A 
ATOM      3  C   UNL     1      48.583   6.419  19.024  0.00  0.00    +0.000 A 
ATOM      4  N   UNL     1      48.578   7.333  18.034  0.00  0.00    +0.000 NA
ATOM      5  C   UNL     1      48.888   6.897  16.795  0.00  0.00    +0.000 A 
ATOM      6  C   UNL     1      49.285   5.584  16.545  0.00  0.00    +0.000 A 
ATOM      7  C   UNL     1      49.416   4.679  17.598  0.00  0.00    +0.000 A 
BRANCH   7   8
ATOM      8  C   UNL     1      49.903   3.289  17.318  0.00  0.00    +0.000 C 
ATOM      9  O   UNL     1      49.099   2.518  16.794  0.00  0.00    +0.000 OA
ATOM     10  N   UNL     1      51.209   2.849  17.623  0.00  0.00    +0.000 N 
ATOM     11  C   UNL     1      52.253   3.521  18.402  0.00  0.00    +0.000 C 
ATOM     12  C   UNL     1      51.507   1.448  17.355  0.00  0.00    +0.000 C 
ENDBRANCH   7   8
BRANCH   2  14
ATOM     13  C   UNL     1      48.968   4.931  21.374  0.00  0.00    +0.000 C 
ATOM     14  C   UNL     1      48.744   4.177  20.063  0.00  0.00    +0.000 C 
ENDBRANCH   2  14
ENDBRANCH   1   5
BRANCH   1  15
ATOM     15  O   UNL     1      48.823   7.277  14.405  0.00  0.00    +0.000 OA
BRANCH  15  16
ATOM     16  C   UNL     1      47.655   7.434  13.712  0.00  0.00    +0.000 A 
ATOM     17  C   UNL     1      46.964   8.643  13.591  0.00  0.00    +0.000 A 
ATOM     18  C   UNL     1      45.765   8.689  12.887  0.00  0.00    +0.000 A 
ATOM     19  C   UNL     1      45.263   7.540  12.280  0.00  0.00    +0.000 A 
ATOM     20  C   UNL     1      45.982   6.344  12.335  0.00  0.00    +0.000 A 
ATOM     21  C   UNL     1      47.167   6.293  13.071  0.00  0.00    +0.000 A 
BRANCH  20  22
ATOM     22  O   UNL     1      45.577   5.178  11.730  0.00  0.00    +0.000 OA
BRANCH  22  23
ATOM     23  C   UNL     1      44.156   5.062  11.546  0.00  0.00    +0.000 C 
ATOM     24  C   UNL     1      43.528   4.248  12.655  0.00  0.00    +0.000 C 
ATOM     25  C   UNL     1      43.496   2.836  12.116  0.00  0.00    +0.000 C 
ATOM     26  O   UNL     1      43.503   2.909  10.691  0.00  0.00    +0.000 OA
ATOM     27  C   UNL     1      43.850   4.243  10.297  0.00  0.00    +0.000 C 
ENDBRANCH  22  23
ENDBRANCH  20  22
ENDBRANCH  15  16
ENDBRANCH   1  15
TORSDOF 7
ENDMDL
MODEL 6
REMARK VINA RESULT:    -6.201      2.341      3.260
REMARK INTER + INTRA:          -9.493
REMARK INTER:                  -8.464
REMARK INTRA:                  -1.030
REMARK UNBOUND:                -0.755
REMARK  Name = 
REMARK  10 active torsions:
REMARK  status: ('A' for Active; 'I' for Inactive)
REMARK    1  A    between atoms: C_1  and  C_2
REMARK    2  A    between atoms: C_2  and  C_3
REMARK    3  A    between atoms: C_6  and  C_7
REMARK    4  A    between atoms: C_7  and  O_8
REMARK    5  A    between atoms: O_8  and  C_9
REMARK    6  A    between atoms: C_13  and  O_14
REMARK    7  A    between atoms: O_14  and  C_15
REMARK    8  A    between atoms: C_22  and  C_23
REMARK    9  A    between atoms: N_25  and  C_26
REMARK   10  A    between atoms: N_25  and  C_27
REMARK                            x       y       z     vdW  Elec       q    Type
REMARK                         _______ _______ _______ _____ _____    ______ ____
ROOT
ATOM      1  C   UNL     1      46.544   7.334  12.399  0.00  0.00    +0.000 C 
ENDROOT
BRANCH   1   5
ATOM      2  C   UNL     1      50.327   7.599  14.364  0.00  0.00    +0.000 A 
ATOM      3  C   UNL     1      50.089   8.036  13.057  0.00  0.00    +0.000 A 
ATOM      4  N   UNL     1      48.910   7.931  12.413  0.00  0.00    +0.000 NA
ATOM      5  C   UNL     1      47.869   7.442  13.118  0.00  0.00    +0.000 A 
ATOM      6  C   UNL     1      48.006   6.978  14.425  0.00  0.00    +0.000 A 
ATOM      7  C   UNL     1      49.259   6.967  15.037  0.00  0.00    +0.000 A 
BRANCH   7   8
ATOM      8  C   UNL     1      49.399   6.407  16.421  0.00  0.00    +0.000 C 
ATOM      9  O   UNL     1      49.745   5.229  16.507  0.00  0.00    +0.000 OA
ATOM     10  N   UNL     1      49.158   7.161  17.590  0.00  0.00    +0.000 N 
ATOM     11  C   UNL     1      48.569   8.496  17.724  0.00  0.00    +0.000 C 
ATOM     12  C   UNL     1      49.267   6.453  18.859  0.00  0.00    +0.000 C 
ENDBRANCH   7   8
BRANCH   2  14
ATOM     13  C   UNL     1      51.633   9.351  15.587  0.00  0.00    +0.000 C 
ATOM     14  C   UNL     1      51.667   7.956  14.963  0.00  0.00    +0.000 C 
ENDBRANCH   2  14
ENDBRANCH   1   5
BRANCH   1  15
ATOM     15  O   UNL     1      45.563   6.712  13.238  0.00  0.00    +0.000 OA
BRANCH  15  16
ATOM     16  C   UNL     1      44.765   5.787  12.625  0.00  0.00    +0.000 A 
ATOM     17  C   UNL     1      43.369   5.770  12.704  0.00  0.00    +0.000 A 
ATOM     18  C   UNL     1      42.651   4.764  12.066  0.00  0.00    +0.000 A 
ATOM     19  C   UNL     1      43.316   3.788  11.327  0.00  0.00    +0.000 A 
ATOM     20  C   UNL     1      44.705   3.837  11.184  0.00  0.00    +0.000 A 
ATOM     21  C   UNL     1      45.425   4.828  11.853  0.00  0.00    +0.000 A 
BRANCH  20  22
ATOM     22  O   UNL     1      45.431   2.937  10.441  0.00  0.00    +0.000 OA
BRANCH  22  23
ATOM     23  C   UNL     1      44.881   2.651   9.144  0.00  0.00    +0.000 C 
ATOM     24  C   UNL     1      45.780   1.715   8.366  0.00  0.00    +0.000 C 
ATOM     25  C   UNL     1      46.666   2.631   7.552  0.00  0.00    +0.000 C 
ATOM     26  O   UNL     1      45.978   3.870   7.382  0.00  0.00    +0.000 OA
ATOM     27  C   UNL     1      44.867   3.912   8.286  0.00  0.00    +0.000 C 
ENDBRANCH  22  23
ENDBRANCH  20  22
ENDBRANCH  15  16
ENDBRANCH   1  15
TORSDOF 7
ENDMDL
MODEL 7
REMARK VINA RESULT:    -6.182      2.500      3.874
REMARK INTER + INTRA:          -9.467
REMARK INTER:                  -8.210
REMARK INTRA:                  -1.257
REMARK UNBOUND:                -0.755
REMARK  Name = 
REMARK  10 active torsions:
REMARK  status: ('A' for Active; 'I' for Inactive)
REMARK    1  A    between atoms: C_1  and  C_2
REMARK    2  A    between atoms: C_2  and  C_3
REMARK    3  A    between atoms: C_6  and  C_7
REMARK    4  A    between atoms: C_7  and  O_8
REMARK    5  A    between atoms: O_8  and  C_9
REMARK    6  A    between atoms: C_13  and  O_14
REMARK    7  A    between atoms: O_14  and  C_15
REMARK    8  A    between atoms: C_22  and  C_23
REMARK    9  A    between atoms: N_25  and  C_26
REMARK   10  A    between atoms: N_25  and  C_27
REMARK                            x       y       z     vdW  Elec       q    Type
REMARK                         _______ _______ _______ _____ _____    ______ ____
ROOT
ATOM      1  C   UNL     1      48.697   9.033  14.642  0.00  0.00    +0.000 C 
ENDROOT
BRANCH   1   5
ATOM      2  C   UNL     1      48.914   6.875  18.320  0.00  0.00    +0.000 A 
ATOM      3  C   UNL     1      48.619   8.238  18.227  0.00  0.00    +0.000 A 
ATOM      4  N   UNL     1      48.577   8.939  17.077  0.00  0.00    +0.000 NA
ATOM      5  C   UNL     1      48.754   8.248  15.932  0.00  0.00    +0.000 A 
ATOM      6  C   UNL     1      49.055   6.887  15.921  0.00  0.00    +0.000 A 
ATOM      7  C   UNL     1      49.229   6.199  17.122  0.00  0.00    +0.000 A 
BRANCH   7   8
ATOM      8  C   UNL     1      49.613   4.750  17.091  0.00  0.00    +0.000 C 
ATOM      9  O   UNL     1      50.815   4.500  17.014  0.00  0.00    +0.000 OA
ATOM     10  N   UNL     1      48.673   3.697  17.147  0.00  0.00    +0.000 N 
ATOM     11  C   UNL     1      47.212   3.757  17.054  0.00  0.00    +0.000 C 
ATOM     12  C   UNL     1      49.200   2.343  17.035  0.00  0.00    +0.000 C 
ENDBRANCH   7   8
BRANCH   2  14
ATOM     13  C   UNL     1      47.278   6.223  20.102  0.00  0.00    +0.000 C 
ATOM     14  C   UNL     1      48.747   6.238  19.681  0.00  0.00    +0.000 C 
ENDBRANCH   2  14
ENDBRANCH   1   5
BRANCH   1  15
ATOM     15  O   UNL     1      48.622   8.150  13.516  0.00  0.00    +0.000 OA
BRANCH  15  16
ATOM     16  C   UNL     1      47.392   8.053  12.926  0.00  0.00    +0.000 A 
ATOM     17  C   UNL     1      46.547   9.138  12.677  0.00  0.00    +0.000 A 
ATOM     18  C   UNL     1      45.300   8.926  12.098  0.00  0.00    +0.000 A 
ATOM     19  C   UNL     1      44.899   7.640  11.744  0.00  0.00    +0.000 A 
ATOM     20  C   UNL     1      45.765   6.559  11.924  0.00  0.00    +0.000 A 
ATOM     21  C   UNL     1      47.002   6.769  12.536  0.00  0.00    +0.000 A 
BRANCH  20  22
ATOM     22  O   UNL     1      45.463   5.267  11.566  0.00  0.00    +0.000 OA
BRANCH  22  23
ATOM     23  C   UNL     1      44.095   5.059  11.175  0.00  0.00    +0.000 C 
ATOM     24  C   UNL     1      43.320   4.348  12.261  0.00  0.00    +0.000 C 
ATOM     25  C   UNL     1      43.421   2.883  11.900  0.00  0.00    +0.000 C 
ATOM     26  O   UNL     1      43.657   2.792  10.496  0.00  0.00    +0.000 OA
ATOM     27  C   UNL     1      44.022   4.087  10.002  0.00  0.00    +0.000 C 
ENDBRANCH  22  23
ENDBRANCH  20  22
ENDBRANCH  15  16
ENDBRANCH   1  15
TORSDOF 7
ENDMDL
MODEL 8
REMARK VINA RESULT:    -6.165      3.419      4.845
REMARK INTER + INTRA:          -9.444
REMARK INTER:                  -8.275
REMARK INTRA:                  -1.168
REMARK UNBOUND:                -0.755
REMARK  Name = 
REMARK  10 active torsions:
REMARK  status: ('A' for Active; 'I' for Inactive)
REMARK    1  A    between atoms: C_1  and  C_2
REMARK    2  A    between atoms: C_2  and  C_3
REMARK    3  A    between atoms: C_6  and  C_7
REMARK    4  A    between atoms: C_7  and  O_8
REMARK    5  A    between atoms: O_8  and  C_9
REMARK    6  A    between atoms: C_13  and  O_14
REMARK    7  A    between atoms: O_14  and  C_15
REMARK    8  A    between atoms: C_22  and  C_23
REMARK    9  A    between atoms: N_25  and  C_26
REMARK   10  A    between atoms: N_25  and  C_27
REMARK                            x       y       z     vdW  Elec       q    Type
REMARK                         _______ _______ _______ _____ _____    ______ ____
ROOT
ATOM      1  C   UNL     1      47.392   3.481  15.947  0.00  0.00    +0.000 C 
ENDROOT
BRANCH   1   5
ATOM      2  C   UNL     1      51.209   2.590  17.644  0.00  0.00    +0.000 A 
ATOM      3  C   UNL     1      50.468   1.695  16.866  0.00  0.00    +0.000 A 
ATOM      4  N   UNL     1      49.249   1.951  16.350  0.00  0.00    +0.000 NA
ATOM      5  C   UNL     1      48.754   3.192  16.535  0.00  0.00    +0.000 A 
ATOM      6  C   UNL     1      49.416   4.153  17.298  0.00  0.00    +0.000 A 
ATOM      7  C   UNL     1      50.612   3.835  17.939  0.00  0.00    +0.000 A 
BRANCH   7   8
ATOM      8  C   UNL     1      51.279   4.862  18.806  0.00  0.00    +0.000 C 
ATOM      9  O   UNL     1      50.969   4.863  19.997  0.00  0.00    +0.000 OA
ATOM     10  N   UNL     1      52.219   5.796  18.318  0.00  0.00    +0.000 N 
ATOM     11  C   UNL     1      52.591   6.096  16.933  0.00  0.00    +0.000 C 
ATOM     12  C   UNL     1      52.723   6.775  19.272  0.00  0.00    +0.000 C 
ENDBRANCH   7   8
BRANCH   2  14
ATOM     13  C   UNL     1      52.945   0.800  17.414  0.00  0.00    +0.000 C 
ATOM     14  C   UNL     1      52.621   2.179  17.989  0.00  0.00    +0.000 C 
ENDBRANCH   2  14
ENDBRANCH   1   5
BRANCH   1  15
ATOM     15  O   UNL     1      47.357   3.129  14.559  0.00  0.00    +0.000 OA
BRANCH  15  16
ATOM     16  C   UNL     1      46.822   4.073  13.726  0.00  0.00    +0.000 A 
ATOM     17  C   UNL     1      45.806   3.824  12.799  0.00  0.00    +0.000 A 
ATOM     18  C   UNL     1      45.353   4.850  11.976  0.00  0.00    +0.000 A 
ATOM     19  C   UNL     1      45.890   6.130  12.090  0.00  0.00    +0.000 A 
ATOM     20  C   UNL     1      46.856   6.405  13.061  0.00  0.00    +0.000 A 
ATOM     21  C   UNL     1      47.332   5.366  13.862  0.00  0.00    +0.000 A 
BRANCH  20  22
ATOM     22  O   UNL     1      47.406   7.648  13.264  0.00  0.00    +0.000 OA
BRANCH  22  23
ATOM     23  C   UNL     1      47.923   8.274  12.078  0.00  0.00    +0.000 C 
ATOM     24  C   UNL     1      49.286   7.726  11.722  0.00  0.00    +0.000 C 
ATOM     25  C   UNL     1      50.260   8.673  12.387  0.00  0.00    +0.000 C 
ATOM     26  O   UNL     1      49.604   9.928  12.558  0.00  0.00    +0.000 OA
ATOM     27  C   UNL     1      48.198   9.752  12.338  0.00  0.00    +0.000 C 
ENDBRANCH  22  23
ENDBRANCH  20  22
ENDBRANCH  15  16
ENDBRANCH   1  15
TORSDOF 7
ENDMDL
MODEL 9
REMARK VINA RESULT:    -5.938      2.495      4.149
REMARK INTER + INTRA:          -9.123
REMARK INTER:                  -8.003
REMARK INTRA:                  -1.121
REMARK UNBOUND:                -0.755
REMARK  Name = 
REMARK  10 active torsions:
REMARK  status: ('A' for Active; 'I' for Inactive)
REMARK    1  A    between atoms: C_1  and  C_2
REMARK    2  A    between atoms: C_2  and  C_3
REMARK    3  A    between atoms: C_6  and  C_7
REMARK    4  A    between atoms: C_7  and  O_8
REMARK    5  A    between atoms: O_8  and  C_9
REMARK    6  A    between atoms: C_13  and  O_14
REMARK    7  A    between atoms: O_14  and  C_15
REMARK    8  A    between atoms: C_22  and  C_23
REMARK    9  A    between atoms: N_25  and  C_26
REMARK   10  A    between atoms: N_25  and  C_27
REMARK                            x       y       z     vdW  Elec       q    Type
REMARK                         _______ _______ _______ _____ _____    ______ ____
ROOT
ATOM      1  C   UNL     1      49.884   7.599  14.517  0.00  0.00    +0.000 C 
ENDROOT
BRANCH   1   5
ATOM      2  C   UNL     1      48.033   8.501  18.258  0.00  0.00    +0.000 A 
ATOM      3  C   UNL     1      48.344   9.457  17.286  0.00  0.00    +0.000 A 
ATOM      4  N   UNL     1      48.955   9.191  16.114  0.00  0.00    +0.000 NA
ATOM      5  C   UNL     1      49.207   7.896  15.835  0.00  0.00    +0.000 A 
ATOM      6  C   UNL     1      48.936   6.872  16.740  0.00  0.00    +0.000 A 
ATOM      7  C   UNL     1      48.427   7.170  18.004  0.00  0.00    +0.000 A 
BRANCH   7   8
ATOM      8  C   UNL     1      48.200   6.061  18.987  0.00  0.00    +0.000 C 
ATOM      9  O   UNL     1      47.149   5.429  18.872  0.00  0.00    +0.000 OA
ATOM     10  N   UNL     1      49.119   5.726  20.005  0.00  0.00    +0.000 N 
ATOM     11  C   UNL     1      50.321   6.445  20.438  0.00  0.00    +0.000 C 
ATOM     12  C   UNL     1      48.720   4.670  20.926  0.00  0.00    +0.000 C 
ENDBRANCH   7   8
BRANCH   2  14
ATOM     13  C   UNL     1      48.082   9.560  20.528  0.00  0.00    +0.000 C 
ATOM     14  C   UNL     1      47.199   8.972  19.427  0.00  0.00    +0.000 C 
ENDBRANCH   2  14
ENDBRANCH   1   5
BRANCH   1  15
ATOM     15  O   UNL     1      49.199   6.549  13.823  0.00  0.00    +0.000 OA
BRANCH  15  16
ATOM     16  C   UNL     1      47.980   6.885  13.303  0.00  0.00    +0.000 A 
ATOM     17  C   UNL     1      47.709   8.081  12.633  0.00  0.00    +0.000 A 
ATOM     18  C   UNL     1      46.424   8.340  12.168  0.00  0.00    +0.000 A 
ATOM     19  C   UNL     1      45.411   7.400  12.345  0.00  0.00    +0.000 A 
ATOM     20  C   UNL     1      45.688   6.172  12.951  0.00  0.00    +0.000 A 
ATOM     21  C   UNL     1      46.970   5.930  13.447  0.00  0.00    +0.000 A 
BRANCH  20  22
ATOM     22  O   UNL     1      44.756   5.178  13.128  0.00  0.00    +0.000 OA
BRANCH  22  23
ATOM     23  C   UNL     1      44.981   4.000  12.336  0.00  0.00    +0.000 C 
ATOM     24  C   UNL     1      45.064   4.340  10.865  0.00  0.00    +0.000 C 
ATOM     25  C   UNL     1      43.653   4.153  10.354  0.00  0.00    +0.000 C 
ATOM     26  O   UNL     1      42.990   3.235  11.222  0.00  0.00    +0.000 OA
ATOM     27  C   UNL     1      43.773   3.072  12.412  0.00  0.00    +0.000 C 
ENDBRANCH  22  23
ENDBRANCH  20  22
ENDBRANCH  15  16
ENDBRANCH   1  15
TORSDOF 7
ENDMDL
