MODEL 1
REMARK VINA RESULT:    -8.233      0.000      0.000
REMARK INTER + INTRA:         -12.900
REMARK INTER:                 -12.083
REMARK INTRA:                  -0.817
REMARK UNBOUND:                -0.817
REMARK  Name = 
REMARK  9 active torsions:
REMARK  status: ('A' for Active; 'I' for Inactive)
REMARK    1  A    between atoms: C_1  and  C_2
REMARK    2  A    between atoms: C_2  and  O_3
REMARK    3  A    between atoms: O_3  and  C_4
REMARK    4  A    between atoms: C_4  and  C_5
REMARK    5  A    between atoms: C_4  and  C_12
REMARK    6  A    between atoms: C_5  and  C_6
REMARK    7  A    between atoms: C_15  and  C_16
REMARK    8  A    between atoms: C_16  and  N_17
REMARK    9  A    between atoms: C_18  and  C_20
REMARK                            x       y       z     vdW  Elec       q    Type
REMARK                         _______ _______ _______ _____ _____    ______ ____
ROOT
ATOM      1  C   UNL     1      45.541   4.451  11.982  0.00  0.00    +0.000 A 
ATOM      2  C   UNL     1      45.870   5.691  11.418  0.00  0.00    +0.000 A 
ATOM      3  C   UNL     1      46.834   6.510  12.005  0.00  0.00    +0.000 A 
ATOM      4  C   UNL     1      47.508   6.054  13.132  0.00  0.00    +0.000 A 
ATOM      5  N   UNL     1      47.230   4.854  13.697  0.00  0.00    +0.000 NA
ATOM      6  C   UNL     1      46.265   4.092  13.116  0.00  0.00    +0.000 A 
ENDROOT
BRANCH   1   7
ATOM      7  C   UNL     1      44.464   3.533  11.398  0.00  0.00    +0.000 C 
BRANCH   7   8
ATOM      8  O   UNL     1      43.283   3.602  12.226  0.00  0.00    +0.000 OA
BRANCH   8  10
ATOM      9  C   UNL     1      42.174   5.683  11.849  0.00  0.00    +0.000 C 
ATOM     10  C   UNL     1      43.014   4.870  12.817  0.00  0.00    +0.000 C 
ENDBRANCH   8  10
ENDBRANCH   7   8
BRANCH   7  11
ATOM     11  C   UNL     1      44.163   3.812   9.895  0.00  0.00    +0.000 C 
BRANCH  11  12
ATOM     12  C   UNL     1      45.160   3.263   8.890  0.00  0.00    +0.000 A 
ATOM     13  C   UNL     1      45.438   1.889   8.887  0.00  0.00    +0.000 A 
ATOM     14  C   UNL     1      46.399   1.359   8.023  0.00  0.00    +0.000 A 
ATOM     15  C   UNL     1      47.084   2.194   7.143  0.00  0.00    +0.000 A 
ATOM     16  C   UNL     1      46.793   3.552   7.109  0.00  0.00    +0.000 A 
ATOM     17  C   UNL     1      45.830   4.080   7.967  0.00  0.00    +0.000 A 
ENDBRANCH  11  12
ENDBRANCH   7  11
ENDBRANCH   1   7
BRANCH   4  18
ATOM     18  C   UNL     1      48.560   6.923  13.783  0.00  0.00    +0.000 C 
BRANCH  18  19
ATOM     19  N   UNL     1      48.340   7.047  15.207  0.00  0.00    +0.000 N 
ATOM     20  C   UNL     1      49.329   6.788  16.124  0.00  0.00    +0.000 C 
ATOM     21  O   UNL     1      50.478   6.526  15.785  0.00  0.00    +0.000 OA
ATOM     22  H   UNL     1      47.367   7.030  15.497  0.00  0.00    +0.000 HD
BRANCH  20  23
ATOM     23  C   UNL     1      48.960   6.914  17.539  0.00  0.00    +0.000 A 
ATOM     24  C   UNL     1      48.596   8.152  18.049  0.00  0.00    +0.000 A 
ATOM     25  S   UNL     1      48.132   8.110  19.688  0.00  0.00    +0.000 S 
ATOM     26  C   UNL     1      48.452   6.442  19.793  0.00  0.00    +0.000 A 
ATOM     27  N   UNL     1      48.272   5.765  20.959  0.00  0.00    +0.000 NA
ATOM     28  C   UNL     1      48.592   4.514  20.904  0.00  0.00    +0.000 A 
ATOM     29  N   UNL     1      49.071   3.879  19.788  0.00  0.00    +0.000 N 
ATOM     30  C   UNL     1      49.244   4.517  18.582  0.00  0.00    +0.000 A 
ATOM     31  O   UNL     1      49.647   3.913  17.594  0.00  0.00    +0.000 OA
ATOM     32  C   UNL     1      48.901   5.925  18.590  0.00  0.00    +0.000 A 
ATOM     33  H   UNL     1      49.304   2.897  19.807  0.00  0.00    +0.000 HD
ENDBRANCH  20  23
ENDBRANCH  18  19
ENDBRANCH   4  18
TORSDOF 8
ENDMDL
MODEL 2
REMARK VINA RESULT:    -8.066      1.451      2.213
REMARK INTER + INTRA:         -12.655
REMARK INTER:                 -11.652
REMARK INTRA:                  -1.003
REMARK UNBOUND:                -0.817
REMARK  Name = 
REMARK  9 active torsions:
REMARK  status: ('A' for Active; 'I' for Inactive)
REMARK    1  A    between atoms: C_1  and  C_2
REMARK    2  A    between atoms: C_2  and  O_3
REMARK    3  A    between atoms: O_3  and  C_4
REMARK    4  A    between atoms: C_4  and  C_5
REMARK    5  A    between atoms: C_4  and  C_12
REMARK    6  A    between atoms: C_5  and  C_6
REMARK    7  A    between atoms: C_15  and  C_16
REMARK    8  A    between atoms: C_16  and  N_17
REMARK    9  A    between atoms: C_18  and  C_20
REMARK                            x       y       z     vdW  Elec       q    Type
REMARK                         _______ _______ _______ _____ _____    ______ ____
ROOT
ATOM      1  C   UNL     1      45.592   4.472  11.926  0.00  0.00    +0.000 A 
ATOM      2  C   UNL     1      45.903   5.763  11.479  0.00  0.00    +0.000 A 
ATOM      3  C   UNL     1      46.836   6.548  12.155  0.00  0.00    +0.000 A 
ATOM      4  C   UNL     1      47.497   6.012  13.253  0.00  0.00    +0.000 A 
ATOM      5  N   UNL     1      47.237   4.761  13.706  0.00  0.00    +0.000 NA
ATOM      6  C   UNL     1      46.301   4.032  13.041  0.00  0.00    +0.000 A 
ENDROOT
BRANCH   1   7
ATOM      7  C   UNL     1      44.549   3.585  11.242  0.00  0.00    +0.000 C 
BRANCH   7   8
ATOM      8  O   UNL     1      43.321   3.628  12.000  0.00  0.00    +0.000 OA
BRANCH   8  10
ATOM      9  C   UNL     1      42.202   5.735  11.889  0.00  0.00    +0.000 C 
ATOM     10  C   UNL     1      43.084   4.829  12.729  0.00  0.00    +0.000 C 
ENDBRANCH   8  10
ENDBRANCH   7   8
BRANCH   7  11
ATOM     11  C   UNL     1      44.340   3.926   9.736  0.00  0.00    +0.000 C 
BRANCH  11  12
ATOM     12  C   UNL     1      45.281   3.255   8.752  0.00  0.00    +0.000 A 
ATOM     13  C   UNL     1      45.496   1.873   8.849  0.00  0.00    +0.000 A 
ATOM     14  C   UNL     1      46.407   1.234   8.005  0.00  0.00    +0.000 A 
ATOM     15  C   UNL     1      47.101   1.964   7.044  0.00  0.00    +0.000 A 
ATOM     16  C   UNL     1      46.870   3.328   6.911  0.00  0.00    +0.000 A 
ATOM     17  C   UNL     1      45.957   3.965   7.750  0.00  0.00    +0.000 A 
ENDBRANCH  11  12
ENDBRANCH   7  11
ENDBRANCH   1   7
BRANCH   4  18
ATOM     18  C   UNL     1      48.516   6.844  13.999  0.00  0.00    +0.000 C 
BRANCH  18  19
ATOM     19  N   UNL     1      48.198   6.935  15.407  0.00  0.00    +0.000 N 
ATOM     20  C   UNL     1      49.047   6.465  16.379  0.00  0.00    +0.000 C 
ATOM     21  O   UNL     1      50.159   6.023  16.113  0.00  0.00    +0.000 OA
ATOM     22  H   UNL     1      47.215   7.073  15.619  0.00  0.00    +0.000 HD
BRANCH  20  23
ATOM     23  C   UNL     1      48.583   6.584  17.767  0.00  0.00    +0.000 A 
ATOM     24  C   UNL     1      48.564   5.464  18.585  0.00  0.00    +0.000 A 
ATOM     25  S   UNL     1      48.064   5.789  20.182  0.00  0.00    +0.000 S 
ATOM     26  C   UNL     1      47.803   7.432  19.824  0.00  0.00    +0.000 A 
ATOM     27  N   UNL     1      47.346   8.294  20.773  0.00  0.00    +0.000 NA
ATOM     28  C   UNL     1      47.156   9.500  20.352  0.00  0.00    +0.000 A 
ATOM     29  N   UNL     1      47.384   9.923  19.068  0.00  0.00    +0.000 N 
ATOM     30  C   UNL     1      47.870   9.096  18.083  0.00  0.00    +0.000 A 
ATOM     31  O   UNL     1      48.091   9.513  16.952  0.00  0.00    +0.000 OA
ATOM     32  C   UNL     1      48.099   7.728  18.504  0.00  0.00    +0.000 A 
ATOM     33  H   UNL     1      47.217  10.881  18.798  0.00  0.00    +0.000 HD
ENDBRANCH  20  23
ENDBRANCH  18  19
ENDBRANCH   4  18
TORSDOF 8
ENDMDL
MODEL 3
REMARK VINA RESULT:    -7.403      1.777      2.442
REMARK INTER + INTRA:         -11.682
REMARK INTER:                 -10.522
REMARK INTRA:                  -1.161
REMARK UNBOUND:                -0.817
REMARK  Name = 
REMARK  9 active torsions:
REMARK  status: ('A' for Active; 'I' for Inactive)
REMARK    1  A    between atoms: C_1  and  C_2
REMARK    2  A    between atoms: C_2  and  O_3
REMARK    3  A    between atoms: O_3  and  C_4
REMARK    4  A    between atoms: C_4  and  C_5
REMARK    5  A    between atoms: C_4  and  C_12
REMARK    6  A    between atoms: C_5  and  C_6
REMARK    7  A    between atoms: C_15  and  C_16
REMARK    8  A    between atoms: C_16  and  N_17
REMARK    9  A    between atoms: C_18  and  C_20
REMARK                            x       y       z     vdW  Elec       q    Type
REMARK                         _______ _______ _______ _____ _____    ______ ____
ROOT
ATOM      1  C   UNL     1      45.648   5.286  11.308  0.00  0.00    +0.000 A 
ATOM      2  C   UNL     1      46.009   6.607  11.012  0.00  0.00    +0.000 A 
ATOM      3  C   UNL     1      46.761   7.361  11.912  0.00  0.00    +0.000 A 
ATOM      4  C   UNL     1      47.197   6.766  13.089  0.00  0.00    +0.000 A 
ATOM      5  N   UNL     1      46.884   5.485  13.404  0.00  0.00    +0.000 NA
ATOM      6  C   UNL     1      46.125   4.786  12.517  0.00  0.00    +0.000 A 
ENDROOT
BRANCH   1   7
ATOM      7  C   UNL     1      44.793   4.428  10.372  0.00  0.00    +0.000 C 
BRANCH   7   8
ATOM      8  O   UNL     1      43.398   4.706  10.618  0.00  0.00    +0.000 OA
BRANCH   8  10
ATOM      9  C   UNL     1      43.294   2.595  11.727  0.00  0.00    +0.000 C 
ATOM     10  C   UNL     1      42.819   4.036  11.734  0.00  0.00    +0.000 C 
ENDBRANCH   8  10
ENDBRANCH   7   8
BRANCH   7  11
ATOM     11  C   UNL     1      45.181   4.579   8.870  0.00  0.00    +0.000 C 
BRANCH  11  12
ATOM     12  C   UNL     1      45.925   3.414   8.242  0.00  0.00    +0.000 A 
ATOM     13  C   UNL     1      46.860   3.669   7.229  0.00  0.00    +0.000 A 
ATOM     14  C   UNL     1      47.512   2.617   6.581  0.00  0.00    +0.000 A 
ATOM     15  C   UNL     1      47.249   1.300   6.948  0.00  0.00    +0.000 A 
ATOM     16  C   UNL     1      46.353   1.033   7.976  0.00  0.00    +0.000 A 
ATOM     17  C   UNL     1      45.706   2.082   8.626  0.00  0.00    +0.000 A 
ENDBRANCH  11  12
ENDBRANCH   7  11
ENDBRANCH   1   7
BRANCH   4  18
ATOM     18  C   UNL     1      48.017   7.563  14.078  0.00  0.00    +0.000 C 
BRANCH  18  19
ATOM     19  N   UNL     1      48.477   6.739  15.174  0.00  0.00    +0.000 N 
ATOM     20  C   UNL     1      48.780   7.265  16.406  0.00  0.00    +0.000 C 
ATOM     21  O   UNL     1      48.591   8.446  16.673  0.00  0.00    +0.000 OA
ATOM     22  H   UNL     1      48.853   5.834  14.905  0.00  0.00    +0.000 HD
BRANCH  20  23
ATOM     23  C   UNL     1      49.275   6.322  17.417  0.00  0.00    +0.000 A 
ATOM     24  C   UNL     1      48.415   5.852  18.400  0.00  0.00    +0.000 A 
ATOM     25  S   UNL     1      49.129   4.716  19.450  0.00  0.00    +0.000 S 
ATOM     26  C   UNL     1      50.632   4.850  18.662  0.00  0.00    +0.000 A 
ATOM     27  N   UNL     1      51.711   4.135  19.082  0.00  0.00    +0.000 NA
ATOM     28  C   UNL     1      52.794   4.365  18.418  0.00  0.00    +0.000 A 
ATOM     29  N   UNL     1      52.896   5.243  17.369  0.00  0.00    +0.000 N 
ATOM     30  C   UNL     1      51.827   5.967  16.895  0.00  0.00    +0.000 A 
ATOM     31  O   UNL     1      51.945   6.722  15.936  0.00  0.00    +0.000 OA
ATOM     32  C   UNL     1      50.585   5.746  17.608  0.00  0.00    +0.000 A 
ATOM     33  H   UNL     1      53.772   5.380  16.888  0.00  0.00    +0.000 HD
ENDBRANCH  20  23
ENDBRANCH  18  19
ENDBRANCH   4  18
TORSDOF 8
ENDMDL
MODEL 4
REMARK VINA RESULT:    -7.194      3.376      8.618
REMARK INTER + INTRA:         -11.376
REMARK INTER:                 -10.118
REMARK INTRA:                  -1.258
REMARK UNBOUND:                -0.817
REMARK  Name = 
REMARK  9 active torsions:
REMARK  status: ('A' for Active; 'I' for Inactive)
REMARK    1  A    between atoms: C_1  and  C_2
REMARK    2  A    between atoms: C_2  and  O_3
REMARK    3  A    between atoms: O_3  and  C_4
REMARK    4  A    between atoms: C_4  and  C_5
REMARK    5  A    between atoms: C_4  and  C_12
REMARK    6  A    between atoms: C_5  and  C_6
REMARK    7  A    between atoms: C_15  and  C_16
REMARK    8  A    between atoms: C_16  and  N_17
REMARK    9  A    between atoms: C_18  and  C_20
REMARK                            x       y       z     vdW  Elec       q    Type
REMARK                         _______ _______ _______ _____ _____    ______ ____
ROOT
ATOM      1  C   UNL     1      49.688   6.151  16.427  0.00  0.00    +0.000 A 
ATOM      2  C   UNL     1      50.475   7.132  15.807  0.00  0.00    +0.000 A 
ATOM      3  C   UNL     1      50.136   7.630  14.550  0.00  0.00    +0.000 A 
ATOM      4  C   UNL     1      48.973   7.179  13.938  0.00  0.00    +0.000 A 
ATOM      5  N   UNL     1      48.177   6.245  14.513  0.00  0.00    +0.000 NA
ATOM      6  C   UNL     1      48.550   5.759  15.727  0.00  0.00    +0.000 A 
ENDROOT
BRANCH   1   7
ATOM      7  C   UNL     1      50.036   5.545  17.789  0.00  0.00    +0.000 C 
BRANCH   7   8
ATOM      8  O   UNL     1      49.291   6.233  18.817  0.00  0.00    +0.000 OA
BRANCH   8  10
ATOM      9  C   UNL     1      46.949   5.834  19.057  0.00  0.00    +0.000 C 
ATOM     10  C   UNL     1      48.339   5.444  19.526  0.00  0.00    +0.000 C 
ENDBRANCH   8  10
ENDBRANCH   7   8
BRANCH   7  11
ATOM     11  C   UNL     1      49.850   3.999  17.843  0.00  0.00    +0.000 C 
BRANCH  11  12
ATOM     12  C   UNL     1      51.116   3.162  17.795  0.00  0.00    +0.000 A 
ATOM     13  C   UNL     1      51.029   1.817  17.408  0.00  0.00    +0.000 A 
ATOM     14  C   UNL     1      52.161   0.999  17.418  0.00  0.00    +0.000 A 
ATOM     15  C   UNL     1      53.396   1.518  17.800  0.00  0.00    +0.000 A 
ATOM     16  C   UNL     1      53.504   2.858  18.150  0.00  0.00    +0.000 A 
ATOM     17  C   UNL     1      52.376   3.676  18.134  0.00  0.00    +0.000 A 
ENDBRANCH  11  12
ENDBRANCH   7  11
ENDBRANCH   1   7
BRANCH   4  18
ATOM     18  C   UNL     1      48.584   7.709  12.576  0.00  0.00    +0.000 C 
BRANCH  18  19
ATOM     19  N   UNL     1      47.805   6.743  11.834  0.00  0.00    +0.000 N 
ATOM     20  C   UNL     1      46.436   6.816  11.753  0.00  0.00    +0.000 C 
ATOM     21  O   UNL     1      45.806   7.753  12.229  0.00  0.00    +0.000 OA
ATOM     22  H   UNL     1      48.276   5.862  11.645  0.00  0.00    +0.000 HD
BRANCH  20  23
ATOM     23  C   UNL     1      45.766   5.748  11.001  0.00  0.00    +0.000 A 
ATOM     24  C   UNL     1      45.904   5.687   9.621  0.00  0.00    +0.000 A 
ATOM     25  S   UNL     1      45.120   4.350   8.912  0.00  0.00    +0.000 S 
ATOM     26  C   UNL     1      44.522   3.832  10.418  0.00  0.00    +0.000 A 
ATOM     27  N   UNL     1      43.741   2.722  10.520  0.00  0.00    +0.000 NA
ATOM     28  C   UNL     1      43.325   2.470  11.717  0.00  0.00    +0.000 A 
ATOM     29  N   UNL     1      43.623   3.224  12.822  0.00  0.00    +0.000 N 
ATOM     30  C   UNL     1      44.429   4.337  12.771  0.00  0.00    +0.000 A 
ATOM     31  O   UNL     1      44.700   4.974  13.784  0.00  0.00    +0.000 OA
ATOM     32  C   UNL     1      44.921   4.666  11.448  0.00  0.00    +0.000 A 
ATOM     33  H   UNL     1      43.268   2.975  13.733  0.00  0.00    +0.000 HD
ENDBRANCH  20  23
ENDBRANCH  18  19
ENDBRANCH   4  18
TORSDOF 8
ENDMDL
MODEL 5
REMARK VINA RESULT:    -6.889      3.254      8.972
REMARK INTER + INTRA:         -10.928
REMARK INTER:                  -9.275
REMARK INTRA:                  -1.653
REMARK UNBOUND:                -0.817
REMARK  Name = 
REMARK  9 active torsions:
REMARK  status: ('A' for Active; 'I' for Inactive)
REMARK    1  A    between atoms: C_1  and  C_2
REMARK    2  A    between atoms: C_2  and  O_3
REMARK    3  A    between atoms: O_3  and  C_4
REMARK    4  A    between atoms: C_4  and  C_5
REMARK    5  A    between atoms: C_4  and  C_12
REMARK    6  A    between atoms: C_5  and  C_6
REMARK    7  A    between atoms: C_15  and  C_16
REMARK    8  A    between atoms: C_16  and  N_17
REMARK    9  A    between atoms: C_18  and  C_20
REMARK                            x       y       z     vdW  Elec       q    Type
REMARK                         _______ _______ _______ _____ _____    ______ ____
ROOT
ATOM      1  C   UNL     1      49.452   7.749  16.186  0.00  0.00    +0.000 A 
ATOM      2  C   UNL     1      48.440   8.672  15.886  0.00  0.00    +0.000 A 
ATOM      3  C   UNL     1      47.890   8.737  14.607  0.00  0.00    +0.000 A 
ATOM      4  C   UNL     1      48.321   7.835  13.642  0.00  0.00    +0.000 A 
ATOM      5  N   UNL     1      49.285   6.917  13.898  0.00  0.00    +0.000 NA
ATOM      6  C   UNL     1      49.821   6.899  15.148  0.00  0.00    +0.000 A 
ENDROOT
BRANCH   1   7
ATOM      7  C   UNL     1      50.115   7.662  17.563  0.00  0.00    +0.000 C 
BRANCH   7   8
ATOM      8  O   UNL     1      50.353   8.997  18.059  0.00  0.00    +0.000 OA
BRANCH   8  10
ATOM      9  C   UNL     1      52.710   9.173  17.723  0.00  0.00    +0.000 C 
ATOM     10  C   UNL     1      51.587   9.194  18.743  0.00  0.00    +0.000 C 
ENDBRANCH   8  10
ENDBRANCH   7   8
BRANCH   7  11
ATOM     11  C   UNL     1      49.325   6.777  18.574  0.00  0.00    +0.000 C 
BRANCH  11  12
ATOM     12  C   UNL     1      48.941   5.386  18.101  0.00  0.00    +0.000 A 
ATOM     13  C   UNL     1      49.950   4.433  17.898  0.00  0.00    +0.000 A 
ATOM     14  C   UNL     1      49.641   3.166  17.399  0.00  0.00    +0.000 A 
ATOM     15  C   UNL     1      48.320   2.830  17.111  0.00  0.00    +0.000 A 
ATOM     16  C   UNL     1      47.306   3.752  17.342  0.00  0.00    +0.000 A 
ATOM     17  C   UNL     1      47.613   5.014  17.845  0.00  0.00    +0.000 A 
ENDBRANCH  11  12
ENDBRANCH   7  11
ENDBRANCH   1   7
BRANCH   4  18
ATOM     18  C   UNL     1      47.736   7.886  12.248  0.00  0.00    +0.000 C 
BRANCH  18  19
ATOM     19  N   UNL     1      47.001   6.679  11.937  0.00  0.00    +0.000 N 
ATOM     20  C   UNL     1      45.646   6.579  12.137  0.00  0.00    +0.000 C 
ATOM     21  O   UNL     1      44.970   7.533  12.503  0.00  0.00    +0.000 OA
ATOM     22  H   UNL     1      47.564   5.837  11.864  0.00  0.00    +0.000 HD
BRANCH  20  23
ATOM     23  C   UNL     1      45.031   5.284  11.817  0.00  0.00    +0.000 A 
ATOM     24  C   UNL     1      44.357   4.580  12.804  0.00  0.00    +0.000 A 
ATOM     25  S   UNL     1      43.646   3.133  12.251  0.00  0.00    +0.000 S 
ATOM     26  C   UNL     1      44.260   3.367  10.681  0.00  0.00    +0.000 A 
ATOM     27  N   UNL     1      44.026   2.462   9.693  0.00  0.00    +0.000 NA
ATOM     28  C   UNL     1      44.584   2.747   8.564  0.00  0.00    +0.000 A 
ATOM     29  N   UNL     1      45.355   3.858   8.333  0.00  0.00    +0.000 N 
ATOM     30  C   UNL     1      45.597   4.812   9.293  0.00  0.00    +0.000 A 
ATOM     31  O   UNL     1      46.266   5.809   9.046  0.00  0.00    +0.000 OA
ATOM     32  C   UNL     1      44.993   4.538  10.582  0.00  0.00    +0.000 A 
ATOM     33  H   UNL     1      45.766   4.027   7.427  0.00  0.00    +0.000 HD
ENDBRANCH  20  23
ENDBRANCH  18  19
ENDBRANCH   4  18
TORSDOF 8
ENDMDL
MODEL 6
REMARK VINA RESULT:    -6.775      3.629      8.420
REMARK INTER + INTRA:         -10.761
REMARK INTER:                  -9.141
REMARK INTRA:                  -1.620
REMARK UNBOUND:                -0.817
REMARK  Name = 
REMARK  9 active torsions:
REMARK  status: ('A' for Active; 'I' for Inactive)
REMARK    1  A    between atoms: C_1  and  C_2
REMARK    2  A    between atoms: C_2  and  O_3
REMARK    3  A    between atoms: O_3  and  C_4
REMARK    4  A    between atoms: C_4  and  C_5
REMARK    5  A    between atoms: C_4  and  C_12
REMARK    6  A    between atoms: C_5  and  C_6
REMARK    7  A    between atoms: C_15  and  C_16
REMARK    8  A    between atoms: C_16  and  N_17
REMARK    9  A    between atoms: C_18  and  C_20
REMARK                            x       y       z     vdW  Elec       q    Type
REMARK                         _______ _______ _______ _____ _____    ______ ____
ROOT
ATOM      1  C   UNL     1      48.906   7.709  16.182  0.00  0.00    +0.000 A 
ATOM      2  C   UNL     1      49.657   7.002  15.233  0.00  0.00    +0.000 A 
ATOM      3  C   UNL     1      49.435   7.182  13.869  0.00  0.00    +0.000 A 
ATOM      4  C   UNL     1      48.492   8.115  13.457  0.00  0.00    +0.000 A 
ATOM      5  N   UNL     1      47.758   8.831  14.344  0.00  0.00    +0.000 NA
ATOM      6  C   UNL     1      47.979   8.611  15.668  0.00  0.00    +0.000 A 
ENDROOT
BRANCH   1   7
ATOM      7  C   UNL     1      49.085   7.521  17.691  0.00  0.00    +0.000 C 
BRANCH   7   8
ATOM      8  O   UNL     1      48.846   8.780  18.356  0.00  0.00    +0.000 OA
BRANCH   8  10
ATOM      9  C   UNL     1      48.436   9.322  20.645  0.00  0.00    +0.000 C 
ATOM     10  C   UNL     1      47.840   8.767  19.365  0.00  0.00    +0.000 C 
ENDBRANCH   8  10
ENDBRANCH   7   8
BRANCH   7  11
ATOM     11  C   UNL     1      48.226   6.359  18.274  0.00  0.00    +0.000 C 
BRANCH  11  12
ATOM     12  C   UNL     1      48.607   4.953  17.848  0.00  0.00    +0.000 A 
ATOM     13  C   UNL     1      49.922   4.511  18.053  0.00  0.00    +0.000 A 
ATOM     14  C   UNL     1      50.326   3.250  17.611  0.00  0.00    +0.000 A 
ATOM     15  C   UNL     1      49.418   2.408  16.973  0.00  0.00    +0.000 A 
ATOM     16  C   UNL     1      48.102   2.817  16.796  0.00  0.00    +0.000 A 
ATOM     17  C   UNL     1      47.697   4.074  17.241  0.00  0.00    +0.000 A 
ENDBRANCH  11  12
ENDBRANCH   7  11
ENDBRANCH   1   7
BRANCH   4  18
ATOM     18  C   UNL     1      48.237   8.329  11.982  0.00  0.00    +0.000 C 
BRANCH  18  19
ATOM     19  N   UNL     1      47.549   7.202  11.393  0.00  0.00    +0.000 N 
ATOM     20  C   UNL     1      46.182   7.076  11.437  0.00  0.00    +0.000 C 
ATOM     21  O   UNL     1      45.463   7.956  11.897  0.00  0.00    +0.000 OA
ATOM     22  H   UNL     1      48.126   6.382  11.229  0.00  0.00    +0.000 HD
BRANCH  20  23
ATOM     23  C   UNL     1      45.616   5.863  10.835  0.00  0.00    +0.000 A 
ATOM     24  C   UNL     1      45.831   5.596   9.491  0.00  0.00    +0.000 A 
ATOM     25  S   UNL     1      45.165   4.116   8.970  0.00  0.00    +0.000 S 
ATOM     26  C   UNL     1      44.517   3.802  10.511  0.00  0.00    +0.000 A 
ATOM     27  N   UNL     1      43.796   2.674  10.754  0.00  0.00    +0.000 NA
ATOM     28  C   UNL     1      43.332   2.585  11.956  0.00  0.00    +0.000 A 
ATOM     29  N   UNL     1      43.526   3.521  12.939  0.00  0.00    +0.000 N 
ATOM     30  C   UNL     1      44.268   4.662  12.747  0.00  0.00    +0.000 A 
ATOM     31  O   UNL     1      44.447   5.466  13.656  0.00  0.00    +0.000 OA
ATOM     32  C   UNL     1      44.811   4.812  11.412  0.00  0.00    +0.000 A 
ATOM     33  H   UNL     1      43.137   3.395  13.862  0.00  0.00    +0.000 HD
ENDBRANCH  20  23
ENDBRANCH  18  19
ENDBRANCH   4  18
TORSDOF 8
ENDMDL
MODEL 7
REMARK VINA RESULT:    -6.701      3.979      5.738
REMARK INTER + INTRA:         -10.651
REMARK INTER:                  -9.175
REMARK INTRA:                  -1.477
REMARK UNBOUND:                -0.817
REMARK  Name = 
REMARK  9 active torsions:
REMARK  status: ('A' for Active; 'I' for Inactive)
REMARK    1  A    between atoms: C_1  and  C_2
REMARK    2  A    between atoms: C_2  and  O_3
REMARK    3  A    between atoms: O_3  and  C_4
REMARK    4  A    between atoms: C_4  and  C_5
REMARK    5  A    between atoms: C_4  and  C_12
REMARK    6  A    between atoms: C_5  and  C_6
REMARK    7  A    between atoms: C_15  and  C_16
REMARK    8  A    between atoms: C_16  and  N_17
REMARK    9  A    between atoms: C_18  and  C_20
REMARK                            x       y       z     vdW  Elec       q    Type
REMARK                         _______ _______ _______ _____ _____    ______ ____
ROOT
ATOM      1  C   UNL     1      45.763   8.562  12.394  0.00  0.00    +0.000 A 
ATOM      2  C   UNL     1      46.996   8.265  12.991  0.00  0.00    +0.000 A 
ATOM      3  C   UNL     1      47.232   7.014  13.559  0.00  0.00    +0.000 A 
ATOM      4  C   UNL     1      46.244   6.041  13.478  0.00  0.00    +0.000 A 
ATOM      5  N   UNL     1      45.045   6.283  12.893  0.00  0.00    +0.000 NA
ATOM      6  C   UNL     1      44.837   7.523  12.374  0.00  0.00    +0.000 A 
ENDROOT
BRANCH   1   7
ATOM      7  C   UNL     1      45.441   9.931  11.791  0.00  0.00    +0.000 C 
BRANCH   7   8
ATOM      8  O   UNL     1      44.116  10.330  12.204  0.00  0.00    +0.000 OA
BRANCH   8  10
ATOM      9  C   UNL     1      43.636  10.438   9.867  0.00  0.00    +0.000 C 
ATOM     10  C   UNL     1      43.350  11.036  11.232  0.00  0.00    +0.000 C 
ENDBRANCH   8  10
ENDBRANCH   7   8
BRANCH   7  11
ATOM     11  C   UNL     1      46.520  11.012  12.100  0.00  0.00    +0.000 C 
BRANCH  11  12
ATOM     12  C   UNL     1      47.431  11.409  10.953  0.00  0.00    +0.000 A 
ATOM     13  C   UNL     1      48.780  11.029  10.992  0.00  0.00    +0.000 A 
ATOM     14  C   UNL     1      49.663  11.435   9.988  0.00  0.00    +0.000 A 
ATOM     15  C   UNL     1      49.205  12.212   8.926  0.00  0.00    +0.000 A 
ATOM     16  C   UNL     1      47.863  12.565   8.856  0.00  0.00    +0.000 A 
ATOM     17  C   UNL     1      46.981  12.156   9.854  0.00  0.00    +0.000 A 
ENDBRANCH  11  12
ENDBRANCH   7  11
ENDBRANCH   1   7
BRANCH   4  18
ATOM     18  C   UNL     1      46.479   4.675  14.083  0.00  0.00    +0.000 C 
BRANCH  18  19
ATOM     19  N   UNL     1      47.640   4.669  14.944  0.00  0.00    +0.000 N 
ATOM     20  C   UNL     1      47.570   4.289  16.262  0.00  0.00    +0.000 C 
ATOM     21  O   UNL     1      46.539   3.847  16.757  0.00  0.00    +0.000 OA
ATOM     22  H   UNL     1      48.418   5.239  14.625  0.00  0.00    +0.000 HD
BRANCH  20  23
ATOM     23  C   UNL     1      48.816   4.368  17.035  0.00  0.00    +0.000 A 
ATOM     24  C   UNL     1      49.123   5.530  17.728  0.00  0.00    +0.000 A 
ATOM     25  S   UNL     1      50.568   5.432  18.626  0.00  0.00    +0.000 S 
ATOM     26  C   UNL     1      50.866   3.849  18.078  0.00  0.00    +0.000 A 
ATOM     27  N   UNL     1      51.978   3.168  18.467  0.00  0.00    +0.000 NA
ATOM     28  C   UNL     1      52.095   1.993  17.943  0.00  0.00    +0.000 A 
ATOM     29  N   UNL     1      51.199   1.436  17.067  0.00  0.00    +0.000 N 
ATOM     30  C   UNL     1      50.050   2.076  16.666  0.00  0.00    +0.000 A 
ATOM     31  O   UNL     1      49.254   1.538  15.904  0.00  0.00    +0.000 OA
ATOM     32  C   UNL     1      49.871   3.401  17.225  0.00  0.00    +0.000 A 
ATOM     33  H   UNL     1      51.345   0.511  16.690  0.00  0.00    +0.000 HD
ENDBRANCH  20  23
ENDBRANCH  18  19
ENDBRANCH   4  18
TORSDOF 8
ENDMDL
MODEL 8
REMARK VINA RESULT:    -6.626      3.745      9.172
REMARK INTER + INTRA:         -10.542
REMARK INTER:                  -9.249
REMARK INTRA:                  -1.293
REMARK UNBOUND:                -0.817
REMARK  Name = 
REMARK  9 active torsions:
REMARK  status: ('A' for Active; 'I' for Inactive)
REMARK    1  A    between atoms: C_1  and  C_2
REMARK    2  A    between atoms: C_2  and  O_3
REMARK    3  A    between atoms: O_3  and  C_4
REMARK    4  A    between atoms: C_4  and  C_5
REMARK    5  A    between atoms: C_4  and  C_12
REMARK    6  A    between atoms: C_5  and  C_6
REMARK    7  A    between atoms: C_15  and  C_16
REMARK    8  A    between atoms: C_16  and  N_17
REMARK    9  A    between atoms: C_18  and  C_20
REMARK                            x       y       z     vdW  Elec       q    Type
REMARK                         _______ _______ _______ _____ _____    ______ ____
ROOT
ATOM      1  C   UNL     1      51.493   4.068  17.849  0.00  0.00    +0.000 A 
ATOM      2  C   UNL     1      50.563   5.112  17.950  0.00  0.00    +0.000 A 
ATOM      3  C   UNL     1      49.228   4.916  17.599  0.00  0.00    +0.000 A 
ATOM      4  C   UNL     1      48.817   3.651  17.197  0.00  0.00    +0.000 A 
ATOM      5  N   UNL     1      49.682   2.612  17.104  0.00  0.00    +0.000 NA
ATOM      6  C   UNL     1      50.983   2.844  17.427  0.00  0.00    +0.000 A 
ENDROOT
BRANCH   1   7
ATOM      7  C   UNL     1      52.976   4.241  18.186  0.00  0.00    +0.000 C 
BRANCH   7   8
ATOM      8  O   UNL     1      53.756   3.353  17.359  0.00  0.00    +0.000 OA
BRANCH   8  10
ATOM      9  C   UNL     1      54.292   1.389  18.606  0.00  0.00    +0.000 C 
ATOM     10  C   UNL     1      54.828   2.678  18.012  0.00  0.00    +0.000 C 
ENDBRANCH   8  10
ENDBRANCH   7   8
BRANCH   7  11
ATOM     11  C   UNL     1      53.459   5.721  18.104  0.00  0.00    +0.000 C 
BRANCH  11  12
ATOM     12  C   UNL     1      53.713   6.275  16.714  0.00  0.00    +0.000 A 
ATOM     13  C   UNL     1      54.906   5.942  16.055  0.00  0.00    +0.000 A 
ATOM     14  C   UNL     1      55.204   6.488  14.805  0.00  0.00    +0.000 A 
ATOM     15  C   UNL     1      54.308   7.360  14.191  0.00  0.00    +0.000 A 
ATOM     16  C   UNL     1      53.106   7.670  14.815  0.00  0.00    +0.000 A 
ATOM     17  C   UNL     1      52.805   7.121  16.060  0.00  0.00    +0.000 A 
ENDBRANCH  11  12
ENDBRANCH   7  11
ENDBRANCH   1   7
BRANCH   4  18
ATOM     18  C   UNL     1      47.373   3.414  16.816  0.00  0.00    +0.000 C 
BRANCH  18  19
ATOM     19  N   UNL     1      46.906   4.399  15.865  0.00  0.00    +0.000 N 
ATOM     20  C   UNL     1      46.972   4.194  14.509  0.00  0.00    +0.000 C 
ATOM     21  O   UNL     1      47.346   3.129  14.030  0.00  0.00    +0.000 OA
ATOM     22  H   UNL     1      46.822   5.344  16.229  0.00  0.00    +0.000 HD
BRANCH  20  23
ATOM     23  C   UNL     1      46.501   5.292  13.656  0.00  0.00    +0.000 A 
ATOM     24  C   UNL     1      47.300   6.412  13.474  0.00  0.00    +0.000 A 
ATOM     25  S   UNL     1      46.636   7.560  12.403  0.00  0.00    +0.000 S 
ATOM     26  C   UNL     1      45.230   6.627  12.186  0.00  0.00    +0.000 A 
ATOM     27  N   UNL     1      44.221   7.053  11.380  0.00  0.00    +0.000 NA
ATOM     28  C   UNL     1      43.199   6.264  11.339  0.00  0.00    +0.000 A 
ATOM     29  N   UNL     1      43.097   5.084  12.030  0.00  0.00    +0.000 N 
ATOM     30  C   UNL     1      44.101   4.601  12.836  0.00  0.00    +0.000 A 
ATOM     31  O   UNL     1      43.990   3.527  13.417  0.00  0.00    +0.000 OA
ATOM     32  C   UNL     1      45.271   5.452  12.917  0.00  0.00    +0.000 A 
ATOM     33  H   UNL     1      42.271   4.508  11.958  0.00  0.00    +0.000 HD
ENDBRANCH  20  23
ENDBRANCH  18  19
ENDBRANCH   4  18
TORSDOF 8
ENDMDL
MODEL 9
REMARK VINA RESULT:    -6.428      3.749      8.975
REMARK INTER + INTRA:         -10.252
REMARK INTER:                  -8.396
REMARK INTRA:                  -1.856
REMARK UNBOUND:                -0.817
REMARK  Name = 
REMARK  9 active torsions:
REMARK  status: ('A' for Active; 'I' for Inactive)
REMARK    1  A    between atoms: C_1  and  C_2
REMARK    2  A    between atoms: C_2  and  O_3
REMARK    3  A    between atoms: O_3  and  C_4
REMARK    4  A    between atoms: C_4  and  C_5
REMARK    5  A    between atoms: C_4  and  C_12
REMARK    6  A    between atoms: C_5  and  C_6
REMARK    7  A    between atoms: C_15  and  C_16
REMARK    8  A    between atoms: C_16  and  N_17
REMARK    9  A    between atoms: C_18  and  C_20
REMARK                            x       y       z     vdW  Elec       q    Type
REMARK                         _______ _______ _______ _____ _____    ______ ____
ROOT
ATOM      1  C   UNL     1      51.368   3.528  18.154  0.00  0.00    +0.000 A 
ATOM      2  C   UNL     1      50.503   4.516  18.645  0.00  0.00    +0.000 A 
ATOM      3  C   UNL     1      49.166   4.554  18.252  0.00  0.00    +0.000 A 
ATOM      4  C   UNL     1      48.685   3.564  17.404  0.00  0.00    +0.000 A 
ATOM      5  N   UNL     1      49.485   2.583  16.922  0.00  0.00    +0.000 NA
ATOM      6  C   UNL     1      50.791   2.590  17.302  0.00  0.00    +0.000 A 
ENDROOT
BRANCH   1   7
ATOM      7  C   UNL     1      52.852   3.464  18.524  0.00  0.00    +0.000 C 
BRANCH   7   8
ATOM      8  O   UNL     1      53.520   2.536  17.643  0.00  0.00    +0.000 OA
BRANCH   8  10
ATOM      9  C   UNL     1      54.011   0.278  18.244  0.00  0.00    +0.000 C 
ATOM     10  C   UNL     1      54.511   1.710  18.248  0.00  0.00    +0.000 C 
ENDBRANCH   8  10
ENDBRANCH   7   8
BRANCH   7  11
ATOM     11  C   UNL     1      53.540   4.861  18.561  0.00  0.00    +0.000 C 
BRANCH  11  12
ATOM     12  C   UNL     1      53.781   5.534  17.222  0.00  0.00    +0.000 A 
ATOM     13  C   UNL     1      54.934   5.208  16.493  0.00  0.00    +0.000 A 
ATOM     14  C   UNL     1      55.223   5.857  15.291  0.00  0.00    +0.000 A 
ATOM     15  C   UNL     1      54.357   6.828  14.794  0.00  0.00    +0.000 A 
ATOM     16  C   UNL     1      53.192   7.135  15.487  0.00  0.00    +0.000 A 
ATOM     17  C   UNL     1      52.901   6.484  16.684  0.00  0.00    +0.000 A 
ENDBRANCH  11  12
ENDBRANCH   7  11
ENDBRANCH   1   7
BRANCH   4  18
ATOM     18  C   UNL     1      47.237   3.584  16.968  0.00  0.00    +0.000 C 
BRANCH  18  19
ATOM     19  N   UNL     1      47.006   4.575  15.940  0.00  0.00    +0.000 N 
ATOM     20  C   UNL     1      47.073   4.268  14.603  0.00  0.00    +0.000 C 
ATOM     21  O   UNL     1      47.243   3.120  14.207  0.00  0.00    +0.000 OA
ATOM     22  H   UNL     1      47.100   5.540  16.241  0.00  0.00    +0.000 HD
BRANCH  20  23
ATOM     23  C   UNL     1      46.858   5.377  13.665  0.00  0.00    +0.000 A 
ATOM     24  C   UNL     1      45.778   5.341  12.793  0.00  0.00    +0.000 A 
ATOM     25  S   UNL     1      45.634   6.734  11.822  0.00  0.00    +0.000 S 
ATOM     26  C   UNL     1      47.043   7.414  12.493  0.00  0.00    +0.000 A 
ATOM     27  N   UNL     1      47.503   8.626  12.080  0.00  0.00    +0.000 NA
ATOM     28  C   UNL     1      48.602   9.001  12.645  0.00  0.00    +0.000 A 
ATOM     29  N   UNL     1      49.282   8.274  13.588  0.00  0.00    +0.000 N 
ATOM     30  C   UNL     1      48.842   7.057  14.054  0.00  0.00    +0.000 A 
ATOM     31  O   UNL     1      49.458   6.446  14.920  0.00  0.00    +0.000 OA
ATOM     32  C   UNL     1      47.610   6.590  13.449  0.00  0.00    +0.000 A 
ATOM     33  H   UNL     1      50.138   8.621  13.995  0.00  0.00    +0.000 HD
ENDBRANCH  20  23
ENDBRANCH  18  19
ENDBRANCH   4  18
TORSDOF 8
ENDMDL
