MODEL 1
REMARK VINA RESULT:    -8.166      0.000      0.000
REMARK INTER + INTRA:         -11.230
REMARK INTER:                 -10.553
REMARK INTRA:                  -0.677
REMARK UNBOUND:                -0.677
REMARK  Name = 
REMARK  5 active torsions:
REMARK  status: ('A' for Active; 'I' for Inactive)
REMARK    1  A    between atoms: C_5  and  O_6
REMARK    2  A    between atoms: O_6  and  C_7
REMARK    3  A    between atoms: C_7  and  C_8
REMARK    4  A    between atoms: C_13  and  C_14
REMARK    5  A    between atoms: C_18  and  C_19
REMARK                            x       y       z     vdW  Elec       q    Type
REMARK                         _______ _______ _______ _____ _____    ______ ____
ROOT
ATOM      1  C   UNL     1      44.688   4.109  11.345  0.00  0.00    +0.000 A 
ATOM      2  C   UNL     1      44.051   5.290  10.951  0.00  0.00    +0.000 A 
ATOM      3  C   UNL     1      44.348   6.486  11.601  0.00  0.00    +0.000 A 
ATOM      4  C   UNL     1      45.276   6.506  12.643  0.00  0.00    +0.000 A 
ATOM      5  F   UNL     1      45.551   7.696  13.199  0.00  0.00    +0.000 F 
ATOM      6  C   UNL     1      45.921   5.340  13.092  0.00  0.00    +0.000 A 
ATOM      7  C   UNL     1      45.588   4.142  12.426  0.00  0.00    +0.000 A 
ENDROOT
BRANCH   6   8
ATOM      8  C   UNL     1      46.911   5.346  14.197  0.00  0.00    +0.000 A 
ATOM      9  C   UNL     1      47.843   6.384  14.337  0.00  0.00    +0.000 A 
ATOM     10  C   UNL     1      48.778   6.338  15.359  0.00  0.00    +0.000 A 
ATOM     11  N   UNL     1      48.854   5.340  16.260  0.00  0.00    +0.000 NA
ATOM     12  C   UNL     1      47.951   4.328  16.150  0.00  0.00    +0.000 A 
ATOM     13  C   UNL     1      46.979   4.310  15.143  0.00  0.00    +0.000 A 
BRANCH  12  14
ATOM     14  C   UNL     1      48.004   3.164  17.131  0.00  0.00    +0.000 C 
ATOM     15  F   UNL     1      48.590   2.036  16.637  0.00  0.00    +0.000 F 
ATOM     16  F   UNL     1      48.690   3.469  18.271  0.00  0.00    +0.000 F 
ATOM     17  F   UNL     1      46.761   2.781  17.548  0.00  0.00    +0.000 F 
ENDBRANCH  12  14
ENDBRANCH   6   8
BRANCH   1  18
ATOM     18  C   UNL     1      44.447   2.817  10.596  0.00  0.00    +0.000 C 
BRANCH  18  19
ATOM     19  O   UNL     1      44.142   3.091   9.228  0.00  0.00    +0.000 OA
BRANCH  19  24
ATOM     20  F   UNL     1      48.483   2.208   6.131  0.00  0.00    +0.000 F 
ATOM     21  C   UNL     1      47.406   2.410   6.903  0.00  0.00    +0.000 A 
ATOM     22  C   UNL     1      46.797   3.654   6.909  0.00  0.00    +0.000 A 
ATOM     23  N   UNL     1      45.705   3.936   7.663  0.00  0.00    +0.000 NA
ATOM     24  C   UNL     1      45.245   2.910   8.417  0.00  0.00    +0.000 A 
ATOM     25  C   UNL     1      45.856   1.662   8.409  0.00  0.00    +0.000 A 
ATOM     26  N   UNL     1      46.952   1.380   7.652  0.00  0.00    +0.000 NA
ENDBRANCH  19  24
ENDBRANCH  18  19
ENDBRANCH   1  18
TORSDOF 5
ENDMDL
MODEL 2
REMARK VINA RESULT:    -7.778      2.710      5.155
REMARK INTER + INTRA:         -10.729
REMARK INTER:                 -10.002
REMARK INTRA:                  -0.727
REMARK UNBOUND:                -0.677
REMARK  Name = 
REMARK  5 active torsions:
REMARK  status: ('A' for Active; 'I' for Inactive)
REMARK    1  A    between atoms: C_5  and  O_6
REMARK    2  A    between atoms: O_6  and  C_7
REMARK    3  A    between atoms: C_7  and  C_8
REMARK    4  A    between atoms: C_13  and  C_14
REMARK    5  A    between atoms: C_18  and  C_19
REMARK                            x       y       z     vdW  Elec       q    Type
REMARK                         _______ _______ _______ _____ _____    ______ ____
ROOT
ATOM      1  C   UNL     1      45.004   4.214  11.520  0.00  0.00    +0.000 A 
ATOM      2  C   UNL     1      45.548   3.467  12.568  0.00  0.00    +0.000 A 
ATOM      3  C   UNL     1      46.436   4.067  13.457  0.00  0.00    +0.000 A 
ATOM      4  C   UNL     1      46.783   5.410  13.302  0.00  0.00    +0.000 A 
ATOM      5  F   UNL     1      47.609   5.942  14.217  0.00  0.00    +0.000 F 
ATOM      6  C   UNL     1      46.283   6.194  12.248  0.00  0.00    +0.000 A 
ATOM      7  C   UNL     1      45.399   5.554  11.353  0.00  0.00    +0.000 A 
ENDROOT
BRANCH   6   8
ATOM      8  C   UNL     1      46.642   7.623  12.071  0.00  0.00    +0.000 A 
ATOM      9  C   UNL     1      47.978   8.049  12.094  0.00  0.00    +0.000 A 
ATOM     10  C   UNL     1      48.274   9.396  11.964  0.00  0.00    +0.000 A 
ATOM     11  N   UNL     1      47.343  10.355  11.806  0.00  0.00    +0.000 NA
ATOM     12  C   UNL     1      46.040   9.963  11.768  0.00  0.00    +0.000 A 
ATOM     13  C   UNL     1      45.669   8.619  11.893  0.00  0.00    +0.000 A 
BRANCH  12  14
ATOM     14  C   UNL     1      44.945  11.010  11.611  0.00  0.00    +0.000 C 
ATOM     15  F   UNL     1      43.748  10.664  12.166  0.00  0.00    +0.000 F 
ATOM     16  F   UNL     1      45.280  12.209  12.169  0.00  0.00    +0.000 F 
ATOM     17  F   UNL     1      44.676  11.283  10.299  0.00  0.00    +0.000 F 
ENDBRANCH  12  14
ENDBRANCH   6   8
BRANCH   1  18
ATOM     18  C   UNL     1      43.971   3.607  10.595  0.00  0.00    +0.000 C 
BRANCH  18  19
ATOM     19  O   UNL     1      44.155   4.093   9.266  0.00  0.00    +0.000 OA
BRANCH  19  24
ATOM     20  F   UNL     1      47.913   1.135   6.747  0.00  0.00    +0.000 F 
ATOM     21  C   UNL     1      46.975   1.854   7.378  0.00  0.00    +0.000 A 
ATOM     22  C   UNL     1      46.845   3.203   7.093  0.00  0.00    +0.000 A 
ATOM     23  N   UNL     1      45.921   3.997   7.691  0.00  0.00    +0.000 NA
ATOM     24  C   UNL     1      45.126   3.376   8.593  0.00  0.00    +0.000 A 
ATOM     25  C   UNL     1      45.257   2.022   8.878  0.00  0.00    +0.000 A 
ATOM     26  N   UNL     1      46.184   1.227   8.278  0.00  0.00    +0.000 NA
ENDBRANCH  19  24
ENDBRANCH  18  19
ENDBRANCH   1  18
TORSDOF 5
ENDMDL
MODEL 3
REMARK VINA RESULT:    -7.751      3.206      4.628
REMARK INTER + INTRA:         -10.694
REMARK INTER:                  -9.808
REMARK INTRA:                  -0.886
REMARK UNBOUND:                -0.677
REMARK  Name = 
REMARK  5 active torsions:
REMARK  status: ('A' for Active; 'I' for Inactive)
REMARK    1  A    between atoms: C_5  and  O_6
REMARK    2  A    between atoms: O_6  and  C_7
REMARK    3  A    between atoms: C_7  and  C_8
REMARK    4  A    between atoms: C_13  and  C_14
REMARK    5  A    between atoms: C_18  and  C_19
REMARK                            x       y       z     vdW  Elec       q    Type
REMARK                         _______ _______ _______ _____ _____    ______ ____
ROOT
ATOM      1  C   UNL     1      44.988   4.583  11.314  0.00  0.00    +0.000 A 
ATOM      2  C   UNL     1      45.136   3.780  12.449  0.00  0.00    +0.000 A 
ATOM      3  C   UNL     1      46.002   4.173  13.467  0.00  0.00    +0.000 A 
ATOM      4  C   UNL     1      46.722   5.363  13.354  0.00  0.00    +0.000 A 
ATOM      5  F   UNL     1      47.506   5.708  14.387  0.00  0.00    +0.000 F 
ATOM      6  C   UNL     1      46.628   6.189  12.220  0.00  0.00    +0.000 A 
ATOM      7  C   UNL     1      45.755   5.756  11.199  0.00  0.00    +0.000 A 
ENDROOT
BRANCH   6   8
ATOM      8  C   UNL     1      47.386   7.457  12.087  0.00  0.00    +0.000 A 
ATOM      9  C   UNL     1      46.759   8.702  12.238  0.00  0.00    +0.000 A 
ATOM     10  C   UNL     1      47.490   9.867  12.069  0.00  0.00    +0.000 A 
ATOM     11  N   UNL     1      48.802   9.891  11.766  0.00  0.00    +0.000 NA
ATOM     12  C   UNL     1      49.433   8.693  11.626  0.00  0.00    +0.000 A 
ATOM     13  C   UNL     1      48.756   7.478  11.783  0.00  0.00    +0.000 A 
BRANCH  12  14
ATOM     14  C   UNL     1      50.913   8.662  11.264  0.00  0.00    +0.000 C 
ATOM     15  F   UNL     1      51.301   7.554  10.570  0.00  0.00    +0.000 F 
ATOM     16  F   UNL     1      51.289   9.729  10.500  0.00  0.00    +0.000 F 
ATOM     17  F   UNL     1      51.716   8.705  12.368  0.00  0.00    +0.000 F 
ENDBRANCH  12  14
ENDBRANCH   6   8
BRANCH   1  18
ATOM     18  C   UNL     1      43.989   4.220  10.238  0.00  0.00    +0.000 C 
BRANCH  18  19
ATOM     19  O   UNL     1      44.168   2.861   9.839  0.00  0.00    +0.000 OA
BRANCH  19  24
ATOM     20  F   UNL     1      47.841   2.579   5.884  0.00  0.00    +0.000 F 
ATOM     21  C   UNL     1      46.928   2.666   6.861  0.00  0.00    +0.000 A 
ATOM     22  C   UNL     1      46.720   1.580   7.695  0.00  0.00    +0.000 A 
ATOM     23  N   UNL     1      45.814   1.591   8.705  0.00  0.00    +0.000 NA
ATOM     24  C   UNL     1      45.121   2.745   8.846  0.00  0.00    +0.000 A 
ATOM     25  C   UNL     1      45.332   3.833   8.009  0.00  0.00    +0.000 A 
ATOM     26  N   UNL     1      46.241   3.822   6.995  0.00  0.00    +0.000 NA
ENDBRANCH  19  24
ENDBRANCH  18  19
ENDBRANCH   1  18
TORSDOF 5
ENDMDL
MODEL 4
REMARK VINA RESULT:    -7.615      1.892      2.470
REMARK INTER + INTRA:         -10.518
REMARK INTER:                  -9.574
REMARK INTRA:                  -0.944
REMARK UNBOUND:                -0.677
REMARK  Name = 
REMARK  5 active torsions:
REMARK  status: ('A' for Active; 'I' for Inactive)
REMARK    1  A    between atoms: C_5  and  O_6
REMARK    2  A    between atoms: O_6  and  C_7
REMARK    3  A    between atoms: C_7  and  C_8
REMARK    4  A    between atoms: C_13  and  C_14
REMARK    5  A    between atoms: C_18  and  C_19
REMARK                            x       y       z     vdW  Elec       q    Type
REMARK                         _______ _______ _______ _____ _____    ______ ____
ROOT
ATOM      1  C   UNL     1      44.430   4.249  11.257  0.00  0.00    +0.000 A 
ATOM      2  C   UNL     1      43.350   5.118  11.084  0.00  0.00    +0.000 A 
ATOM      3  C   UNL     1      43.497   6.472  11.377  0.00  0.00    +0.000 A 
ATOM      4  C   UNL     1      44.718   6.959  11.846  0.00  0.00    +0.000 A 
ATOM      5  F   UNL     1      44.809   8.279  12.068  0.00  0.00    +0.000 F 
ATOM      6  C   UNL     1      45.824   6.119  12.062  0.00  0.00    +0.000 A 
ATOM      7  C   UNL     1      45.640   4.750  11.772  0.00  0.00    +0.000 A 
ENDROOT
BRANCH   6   8
ATOM      8  C   UNL     1      47.129   6.623  12.558  0.00  0.00    +0.000 A 
ATOM      9  C   UNL     1      48.020   7.298  11.712  0.00  0.00    +0.000 A 
ATOM     10  C   UNL     1      49.246   7.721  12.199  0.00  0.00    +0.000 A 
ATOM     11  N   UNL     1      49.653   7.531  13.468  0.00  0.00    +0.000 NA
ATOM     12  C   UNL     1      48.798   6.888  14.310  0.00  0.00    +0.000 A 
ATOM     13  C   UNL     1      47.545   6.434  13.885  0.00  0.00    +0.000 A 
BRANCH  12  14
ATOM     14  C   UNL     1      49.217   6.629  15.752  0.00  0.00    +0.000 C 
ATOM     15  F   UNL     1      50.565   6.537  15.940  0.00  0.00    +0.000 F 
ATOM     16  F   UNL     1      48.790   7.604  16.606  0.00  0.00    +0.000 F 
ATOM     17  F   UNL     1      48.697   5.465  16.241  0.00  0.00    +0.000 F 
ENDBRANCH  12  14
ENDBRANCH   6   8
BRANCH   1  18
ATOM     18  C   UNL     1      44.319   2.793  10.862  0.00  0.00    +0.000 C 
BRANCH  18  19
ATOM     19  O   UNL     1      43.954   2.683   9.487  0.00  0.00    +0.000 OA
BRANCH  19  24
ATOM     20  F   UNL     1      48.264   2.661   6.226  0.00  0.00    +0.000 F 
ATOM     21  C   UNL     1      47.195   2.684   7.032  0.00  0.00    +0.000 A 
ATOM     22  C   UNL     1      46.827   1.531   7.706  0.00  0.00    +0.000 A 
ATOM     23  N   UNL     1      45.757   1.475   8.539  0.00  0.00    +0.000 NA
ATOM     24  C   UNL     1      45.066   2.631   8.669  0.00  0.00    +0.000 A 
ATOM     25  C   UNL     1      45.437   3.787   7.992  0.00  0.00    +0.000 A 
ATOM     26  N   UNL     1      46.510   3.843   7.157  0.00  0.00    +0.000 NA
ENDBRANCH  19  24
ENDBRANCH  18  19
ENDBRANCH   1  18
TORSDOF 5
ENDMDL
MODEL 5
REMARK VINA RESULT:    -7.615      2.833      7.523
REMARK INTER + INTRA:         -10.518
REMARK INTER:                  -9.580
REMARK INTRA:                  -0.939
REMARK UNBOUND:                -0.677
REMARK  Name = 
REMARK  5 active torsions:
REMARK  status: ('A' for Active; 'I' for Inactive)
REMARK    1  A    between atoms: C_5  and  O_6
REMARK    2  A    between atoms: O_6  and  C_7
REMARK    3  A    between atoms: C_7  and  C_8
REMARK    4  A    between atoms: C_13  and  C_14
REMARK    5  A    between atoms: C_18  and  C_19
REMARK                            x       y       z     vdW  Elec       q    Type
REMARK                         _______ _______ _______ _____ _____    ______ ____
ROOT
ATOM      1  C   UNL     1      47.701   6.530  14.163  0.00  0.00    +0.000 A 
ATOM      2  C   UNL     1      47.615   7.832  13.663  0.00  0.00    +0.000 A 
ATOM      3  C   UNL     1      46.720   8.121  12.635  0.00  0.00    +0.000 A 
ATOM      4  C   UNL     1      45.913   7.114  12.105  0.00  0.00    +0.000 A 
ATOM      5  F   UNL     1      45.040   7.464  11.147  0.00  0.00    +0.000 F 
ATOM      6  C   UNL     1      45.984   5.784  12.556  0.00  0.00    +0.000 A 
ATOM      7  C   UNL     1      46.911   5.519  13.586  0.00  0.00    +0.000 A 
ENDROOT
BRANCH   6   8
ATOM      8  C   UNL     1      45.131   4.703  12.003  0.00  0.00    +0.000 A 
ATOM      9  C   UNL     1      44.030   4.205  12.714  0.00  0.00    +0.000 A 
ATOM     10  C   UNL     1      43.278   3.169  12.184  0.00  0.00    +0.000 A 
ATOM     11  N   UNL     1      43.534   2.591  10.994  0.00  0.00    +0.000 NA
ATOM     12  C   UNL     1      44.592   3.067  10.282  0.00  0.00    +0.000 A 
ATOM     13  C   UNL     1      45.393   4.112  10.757  0.00  0.00    +0.000 A 
BRANCH  12  14
ATOM     14  C   UNL     1      44.937   2.436   8.938  0.00  0.00    +0.000 C 
ATOM     15  F   UNL     1      44.432   3.098   7.858  0.00  0.00    +0.000 F 
ATOM     16  F   UNL     1      46.282   2.354   8.727  0.00  0.00    +0.000 F 
ATOM     17  F   UNL     1      44.474   1.155   8.835  0.00  0.00    +0.000 F 
ENDBRANCH  12  14
ENDBRANCH   6   8
BRANCH   1  18
ATOM     18  C   UNL     1      48.602   6.213  15.336  0.00  0.00    +0.000 C 
BRANCH  18  19
ATOM     19  O   UNL     1      47.963   5.282  16.210  0.00  0.00    +0.000 OA
BRANCH  19  24
ATOM     20  F   UNL     1      51.108   1.049  17.394  0.00  0.00    +0.000 F 
ATOM     21  C   UNL     1      50.319   2.088  17.090  0.00  0.00    +0.000 A 
ATOM     22  C   UNL     1      50.660   3.354  17.537  0.00  0.00    +0.000 A 
ATOM     23  N   UNL     1      49.912   4.455  17.271  0.00  0.00    +0.000 NA
ATOM     24  C   UNL     1      48.800   4.232  16.532  0.00  0.00    +0.000 A 
ATOM     25  C   UNL     1      48.460   2.961  16.084  0.00  0.00    +0.000 A 
ATOM     26  N   UNL     1      49.211   1.857  16.351  0.00  0.00    +0.000 NA
ENDBRANCH  19  24
ENDBRANCH  18  19
ENDBRANCH   1  18
TORSDOF 5
ENDMDL
MODEL 6
REMARK VINA RESULT:    -7.540      3.395      4.074
REMARK INTER + INTRA:         -10.421
REMARK INTER:                  -9.552
REMARK INTRA:                  -0.869
REMARK UNBOUND:                -0.677
REMARK  Name = 
REMARK  5 active torsions:
REMARK  status: ('A' for Active; 'I' for Inactive)
REMARK    1  A    between atoms: C_5  and  O_6
REMARK    2  A    between atoms: O_6  and  C_7
REMARK    3  A    between atoms: C_7  and  C_8
REMARK    4  A    between atoms: C_13  and  C_14
REMARK    5  A    between atoms: C_18  and  C_19
REMARK                            x       y       z     vdW  Elec       q    Type
REMARK                         _______ _______ _______ _____ _____    ______ ____
ROOT
ATOM      1  C   UNL     1      44.354   3.486  10.260  0.00  0.00    +0.000 A 
ATOM      2  C   UNL     1      43.443   3.068  11.236  0.00  0.00    +0.000 A 
ATOM      3  C   UNL     1      43.244   3.846  12.374  0.00  0.00    +0.000 A 
ATOM      4  C   UNL     1      43.952   5.037  12.542  0.00  0.00    +0.000 A 
ATOM      5  F   UNL     1      43.683   5.764  13.638  0.00  0.00    +0.000 F 
ATOM      6  C   UNL     1      44.897   5.484  11.601  0.00  0.00    +0.000 A 
ATOM      7  C   UNL     1      45.089   4.667  10.467  0.00  0.00    +0.000 A 
ENDROOT
BRANCH   6   8
ATOM      8  C   UNL     1      45.655   6.749  11.766  0.00  0.00    +0.000 A 
ATOM      9  C   UNL     1      45.005   7.990  11.807  0.00  0.00    +0.000 A 
ATOM     10  C   UNL     1      45.748   9.154  11.923  0.00  0.00    +0.000 A 
ATOM     11  N   UNL     1      47.091   9.179  12.008  0.00  0.00    +0.000 NA
ATOM     12  C   UNL     1      47.743   7.984  11.981  0.00  0.00    +0.000 A 
ATOM     13  C   UNL     1      47.055   6.770  11.866  0.00  0.00    +0.000 A 
BRANCH  12  14
ATOM     14  C   UNL     1      49.264   7.956  12.054  0.00  0.00    +0.000 C 
ATOM     15  F   UNL     1      49.873   7.451  10.943  0.00  0.00    +0.000 F 
ATOM     16  F   UNL     1      49.804   9.196  12.240  0.00  0.00    +0.000 F 
ATOM     17  F   UNL     1      49.718   7.202  13.098  0.00  0.00    +0.000 F 
ENDBRANCH  12  14
ENDBRANCH   6   8
BRANCH   1  18
ATOM     18  C   UNL     1      44.521   2.702   8.977  0.00  0.00    +0.000 C 
BRANCH  18  19
ATOM     19  O   UNL     1      45.792   2.052   8.960  0.00  0.00    +0.000 OA
BRANCH  19  24
ATOM     20  F   UNL     1      48.155   2.087   4.099  0.00  0.00    +0.000 F 
ATOM     21  C   UNL     1      47.575   2.062   5.306  0.00  0.00    +0.000 A 
ATOM     22  C   UNL     1      46.778   3.124   5.699  0.00  0.00    +0.000 A 
ATOM     23  N   UNL     1      46.157   3.172   6.905  0.00  0.00    +0.000 NA
ATOM     24  C   UNL     1      46.371   2.102   7.706  0.00  0.00    +0.000 A 
ATOM     25  C   UNL     1      47.170   1.037   7.310  0.00  0.00    +0.000 A 
ATOM     26  N   UNL     1      47.792   0.989   6.100  0.00  0.00    +0.000 NA
ENDBRANCH  19  24
ENDBRANCH  18  19
ENDBRANCH   1  18
TORSDOF 5
ENDMDL
MODEL 7
REMARK VINA RESULT:    -7.524      2.791      7.852
REMARK INTER + INTRA:         -10.401
REMARK INTER:                  -9.462
REMARK INTRA:                  -0.939
REMARK UNBOUND:                -0.677
REMARK  Name = 
REMARK  5 active torsions:
REMARK  status: ('A' for Active; 'I' for Inactive)
REMARK    1  A    between atoms: C_5  and  O_6
REMARK    2  A    between atoms: O_6  and  C_7
REMARK    3  A    between atoms: C_7  and  C_8
REMARK    4  A    between atoms: C_13  and  C_14
REMARK    5  A    between atoms: C_18  and  C_19
REMARK                            x       y       z     vdW  Elec       q    Type
REMARK                         _______ _______ _______ _____ _____    ______ ____
ROOT
ATOM      1  C   UNL     1      47.304   7.624  13.277  0.00  0.00    +0.000 A 
ATOM      2  C   UNL     1      46.756   8.856  12.910  0.00  0.00    +0.000 A 
ATOM      3  C   UNL     1      45.576   8.896  12.170  0.00  0.00    +0.000 A 
ATOM      4  C   UNL     1      44.944   7.710  11.795  0.00  0.00    +0.000 A 
ATOM      5  F   UNL     1      43.788   7.815  11.121  0.00  0.00    +0.000 F 
ATOM      6  C   UNL     1      45.472   6.447  12.117  0.00  0.00    +0.000 A 
ATOM      7  C   UNL     1      46.676   6.439  12.852  0.00  0.00    +0.000 A 
ENDROOT
BRANCH   6   8
ATOM      8  C   UNL     1      44.810   5.178  11.726  0.00  0.00    +0.000 A 
ATOM      9  C   UNL     1      43.869   4.558  12.560  0.00  0.00    +0.000 A 
ATOM     10  C   UNL     1      43.299   3.353  12.181  0.00  0.00    +0.000 A 
ATOM     11  N   UNL     1      43.588   2.719  11.029  0.00  0.00    +0.000 NA
ATOM     12  C   UNL     1      44.491   3.309  10.199  0.00  0.00    +0.000 A 
ATOM     13  C   UNL     1      45.104   4.525  10.519  0.00  0.00    +0.000 A 
BRANCH  12  14
ATOM     14  C   UNL     1      44.868   2.623   8.892  0.00  0.00    +0.000 C 
ATOM     15  F   UNL     1      46.210   2.536   8.667  0.00  0.00    +0.000 F 
ATOM     16  F   UNL     1      44.396   1.345   8.813  0.00  0.00    +0.000 F 
ATOM     17  F   UNL     1      44.354   3.268   7.803  0.00  0.00    +0.000 F 
ENDBRANCH  12  14
ENDBRANCH   6   8
BRANCH   1  18
ATOM     18  C   UNL     1      48.535   7.559  14.154  0.00  0.00    +0.000 C 
BRANCH  18  19
ATOM     19  O   UNL     1      48.847   6.201  14.464  0.00  0.00    +0.000 OA
BRANCH  19  24
ATOM     20  F   UNL     1      47.766   5.180  19.660  0.00  0.00    +0.000 F 
ATOM     21  C   UNL     1      48.038   5.450  18.377  0.00  0.00    +0.000 A 
ATOM     22  C   UNL     1      47.734   4.510  17.406  0.00  0.00    +0.000 A 
ATOM     23  N   UNL     1      47.980   4.708  16.086  0.00  0.00    +0.000 NA
ATOM     24  C   UNL     1      48.547   5.898  15.778  0.00  0.00    +0.000 A 
ATOM     25  C   UNL     1      48.851   6.840  16.753  0.00  0.00    +0.000 A 
ATOM     26  N   UNL     1      48.604   6.640  18.077  0.00  0.00    +0.000 NA
ENDBRANCH  19  24
ENDBRANCH  18  19
ENDBRANCH   1  18
TORSDOF 5
ENDMDL
MODEL 8
REMARK VINA RESULT:    -7.511      3.269      4.007
REMARK INTER + INTRA:         -10.383
REMARK INTER:                  -9.398
REMARK INTRA:                  -0.985
REMARK UNBOUND:                -0.677
REMARK  Name = 
REMARK  5 active torsions:
REMARK  status: ('A' for Active; 'I' for Inactive)
REMARK    1  A    between atoms: C_5  and  O_6
REMARK    2  A    between atoms: O_6  and  C_7
REMARK    3  A    between atoms: C_7  and  C_8
REMARK    4  A    between atoms: C_13  and  C_14
REMARK    5  A    between atoms: C_18  and  C_19
REMARK                            x       y       z     vdW  Elec       q    Type
REMARK                         _______ _______ _______ _____ _____    ______ ____
ROOT
ATOM      1  C   UNL     1      44.511   4.538  11.400  0.00  0.00    +0.000 A 
ATOM      2  C   UNL     1      43.532   5.501  11.141  0.00  0.00    +0.000 A 
ATOM      3  C   UNL     1      43.802   6.846  11.385  0.00  0.00    +0.000 A 
ATOM      4  C   UNL     1      45.046   7.231  11.889  0.00  0.00    +0.000 A 
ATOM      5  F   UNL     1      45.260   8.544  12.061  0.00  0.00    +0.000 F 
ATOM      6  C   UNL     1      46.052   6.296  12.190  0.00  0.00    +0.000 A 
ATOM      7  C   UNL     1      45.743   4.940  11.948  0.00  0.00    +0.000 A 
ENDROOT
BRANCH   6   8
ATOM      8  C   UNL     1      47.379   6.690  12.724  0.00  0.00    +0.000 A 
ATOM      9  C   UNL     1      47.692   6.544  14.083  0.00  0.00    +0.000 A 
ATOM     10  C   UNL     1      48.927   6.958  14.555  0.00  0.00    +0.000 A 
ATOM     11  N   UNL     1      49.881   7.502  13.775  0.00  0.00    +0.000 NA
ATOM     12  C   UNL     1      49.603   7.642  12.450  0.00  0.00    +0.000 A 
ATOM     13  C   UNL     1      48.376   7.245  11.907  0.00  0.00    +0.000 A 
BRANCH  12  14
ATOM     14  C   UNL     1      50.641   8.269  11.528  0.00  0.00    +0.000 C 
ATOM     15  F   UNL     1      51.825   8.570  12.132  0.00  0.00    +0.000 F 
ATOM     16  F   UNL     1      50.957   7.467  10.470  0.00  0.00    +0.000 F 
ATOM     17  F   UNL     1      50.201   9.439  10.976  0.00  0.00    +0.000 F 
ENDBRANCH  12  14
ENDBRANCH   6   8
BRANCH   1  18
ATOM     18  C   UNL     1      44.270   3.084  11.060  0.00  0.00    +0.000 C 
BRANCH  18  19
ATOM     19  O   UNL     1      43.850   2.959   9.701  0.00  0.00    +0.000 OA
BRANCH  19  24
ATOM     20  F   UNL     1      48.023   2.528   6.293  0.00  0.00    +0.000 F 
ATOM     21  C   UNL     1      46.988   2.652   7.135  0.00  0.00    +0.000 A 
ATOM     22  C   UNL     1      46.612   1.571   7.915  0.00  0.00    +0.000 A 
ATOM     23  N   UNL     1      45.575   1.618   8.789  0.00  0.00    +0.000 NA
ATOM     24  C   UNL     1      44.926   2.804   8.849  0.00  0.00    +0.000 A 
ATOM     25  C   UNL     1      45.305   3.888   8.066  0.00  0.00    +0.000 A 
ATOM     26  N   UNL     1      46.345   3.840   7.190  0.00  0.00    +0.000 NA
ENDBRANCH  19  24
ENDBRANCH  18  19
ENDBRANCH   1  18
TORSDOF 5
ENDMDL
MODEL 9
REMARK VINA RESULT:    -6.985      3.252      5.340
REMARK INTER + INTRA:          -9.704
REMARK INTER:                  -8.893
REMARK INTRA:                  -0.812
REMARK UNBOUND:                -0.677
REMARK  Name = 
REMARK  5 active torsions:
REMARK  status: ('A' for Active; 'I' for Inactive)
REMARK    1  A    between atoms: C_5  and  O_6
REMARK    2  A    between atoms: O_6  and  C_7
REMARK    3  A    between atoms: C_7  and  C_8
REMARK    4  A    between atoms: C_13  and  C_14
REMARK    5  A    between atoms: C_18  and  C_19
REMARK                            x       y       z     vdW  Elec       q    Type
REMARK                         _______ _______ _______ _____ _____    ______ ____
ROOT
ATOM      1  C   UNL     1      45.358   5.218  11.927  0.00  0.00    +0.000 A 
ATOM      2  C   UNL     1      45.436   4.583  13.170  0.00  0.00    +0.000 A 
ATOM      3  C   UNL     1      46.452   4.927  14.060  0.00  0.00    +0.000 A 
ATOM      4  C   UNL     1      47.389   5.901  13.712  0.00  0.00    +0.000 A 
ATOM      5  F   UNL     1      48.315   6.219  14.629  0.00  0.00    +0.000 F 
ATOM      6  C   UNL     1      47.366   6.547  12.463  0.00  0.00    +0.000 A 
ATOM      7  C   UNL     1      46.337   6.165  11.577  0.00  0.00    +0.000 A 
ENDROOT
BRANCH   6   8
ATOM      8  C   UNL     1      48.355   7.585  12.080  0.00  0.00    +0.000 A 
ATOM      9  C   UNL     1      49.726   7.298  12.012  0.00  0.00    +0.000 A 
ATOM     10  C   UNL     1      50.625   8.302  11.688  0.00  0.00    +0.000 A 
ATOM     11  N   UNL     1      50.264   9.571  11.419  0.00  0.00    +0.000 NA
ATOM     12  C   UNL     1      48.937   9.868  11.467  0.00  0.00    +0.000 A 
ATOM     13  C   UNL     1      47.975   8.904  11.787  0.00  0.00    +0.000 A 
BRANCH  12  14
ATOM     14  C   UNL     1      48.477  11.294  11.190  0.00  0.00    +0.000 C 
ATOM     15  F   UNL     1      48.415  11.620   9.867  0.00  0.00    +0.000 F 
ATOM     16  F   UNL     1      47.235  11.553  11.694  0.00  0.00    +0.000 F 
ATOM     17  F   UNL     1      49.300  12.223  11.759  0.00  0.00    +0.000 F 
ENDBRANCH  12  14
ENDBRANCH   6   8
BRANCH   1  18
ATOM     18  C   UNL     1      44.214   4.923  10.982  0.00  0.00    +0.000 C 
BRANCH  18  19
ATOM     19  O   UNL     1      44.200   3.536  10.645  0.00  0.00    +0.000 OA
BRANCH  19  24
ATOM     20  F   UNL     1      47.000   2.738   6.091  0.00  0.00    +0.000 F 
ATOM     21  C   UNL     1      46.306   2.953   7.217  0.00  0.00    +0.000 A 
ATOM     22  C   UNL     1      46.074   1.898   8.085  0.00  0.00    +0.000 A 
ATOM     23  N   UNL     1      45.380   2.036   9.242  0.00  0.00    +0.000 NA
ATOM     24  C   UNL     1      44.925   3.286   9.496  0.00  0.00    +0.000 A 
ATOM     25  C   UNL     1      45.160   4.343   8.625  0.00  0.00    +0.000 A 
ATOM     26  N   UNL     1      45.856   4.203   7.464  0.00  0.00    +0.000 NA
ENDBRANCH  19  24
ENDBRANCH  18  19
ENDBRANCH   1  18
TORSDOF 5
ENDMDL
