MODEL 1
REMARK VINA RESULT:    -7.718      0.000      0.000
REMARK INTER + INTRA:         -12.391
REMARK INTER:                 -11.779
REMARK INTRA:                  -0.612
REMARK UNBOUND:                -0.612
REMARK  Name = 
REMARK  11 active torsions:
REMARK  status: ('A' for Active; 'I' for Inactive)
REMARK    1  A    between atoms: C_1  and  C_2
REMARK    2  A    between atoms: C_2  and  C_3
REMARK    3  A    between atoms: C_2  and  C_14
REMARK    4  A    between atoms: C_3  and  N_4
REMARK    5  A    between atoms: C_7  and  C_8
REMARK    6  A    between atoms: C_8  and  O_9
REMARK    7  A    between atoms: C_10  and  C_11
REMARK    8  A    between atoms: C_11  and  O_12
REMARK    9  A    between atoms: C_17  and  C_18
REMARK   10  A    between atoms: C_18  and  N_19
REMARK   11  A    between atoms: C_20  and  C_22
REMARK                            x       y       z     vdW  Elec       q    Type
REMARK                         _______ _______ _______ _____ _____    ______ ____
ROOT
ATOM      1  C   UNL     1      45.074   5.313  11.757  0.00  0.00    +0.000 A 
ATOM      2  C   UNL     1      45.605   4.441  12.709  0.00  0.00    +0.000 A 
ATOM      3  C   UNL     1      46.703   4.844  13.465  0.00  0.00    +0.000 A 
ATOM      4  C   UNL     1      47.261   6.104  13.248  0.00  0.00    +0.000 A 
ATOM      5  C   UNL     1      46.688   6.895  12.262  0.00  0.00    +0.000 A 
ATOM      6  N   UNL     1      45.611   6.535  11.532  0.00  0.00    +0.000 NA
ENDROOT
BRANCH   1   8
ATOM      7  C   UNL     1      42.539   5.086  11.644  0.00  0.00    +0.000 C 
ATOM      8  C   UNL     1      43.879   4.892  10.915  0.00  0.00    +0.000 C 
BRANCH   8   9
ATOM      9  C   UNL     1      44.046   3.426  10.439  0.00  0.00    +0.000 C 
BRANCH   9  10
ATOM     10  N   UNL     1      44.687   3.262   9.118  0.00  0.00    +0.000 NA
ATOM     11  C   UNL     1      45.566   4.385   8.781  0.00  0.00    +0.000 C 
ATOM     12  C   UNL     1      46.075   4.236   7.356  0.00  0.00    +0.000 C 
ATOM     13  C   UNL     1      46.846   2.922   7.160  0.00  0.00    +0.000 C 
ATOM     14  C   UNL     1      46.017   1.718   7.678  0.00  0.00    +0.000 C 
ATOM     15  C   UNL     1      45.438   1.997   9.080  0.00  0.00    +0.000 C 
BRANCH  13  16
ATOM     16  C   UNL     1      47.226   2.773   5.680  0.00  0.00    +0.000 C 
BRANCH  16  17
ATOM     17  O   UNL     1      48.546   2.258   5.553  0.00  0.00    +0.000 OA
ATOM     18  H   UNL     1      48.746   1.748   6.356  0.00  0.00    +0.000 HD
ENDBRANCH  16  17
ENDBRANCH  13  16
BRANCH  14  19
ATOM     19  C   UNL     1      46.809   0.400   7.716  0.00  0.00    +0.000 C 
BRANCH  19  20
ATOM     20  O   UNL     1      46.912  -0.213   6.436  0.00  0.00    +0.000 OA
ATOM     21  H   UNL     1      47.587  -0.910   6.469  0.00  0.00    +0.000 HD
ENDBRANCH  19  20
ENDBRANCH  14  19
ENDBRANCH   9  10
ENDBRANCH   8   9
ENDBRANCH   1   8
BRANCH   4  22
ATOM     22  C   UNL     1      48.485   6.566  13.976  0.00  0.00    +0.000 C 
BRANCH  22  23
ATOM     23  N   UNL     1      48.184   6.806  15.363  0.00  0.00    +0.000 N 
ATOM     24  C   UNL     1      49.098   6.550  16.348  0.00  0.00    +0.000 C 
ATOM     25  O   UNL     1      50.235   6.157  16.096  0.00  0.00    +0.000 OA
ATOM     26  H   UNL     1      47.205   6.912  15.611  0.00  0.00    +0.000 HD
BRANCH  24  27
ATOM     27  C   UNL     1      48.666   6.827  17.722  0.00  0.00    +0.000 A 
ATOM     28  C   UNL     1      48.293   8.117  18.075  0.00  0.00    +0.000 A 
ATOM     29  S   UNL     1      47.779   8.261  19.695  0.00  0.00    +0.000 S 
ATOM     30  C   UNL     1      48.080   6.613  19.994  0.00  0.00    +0.000 A 
ATOM     31  N   UNL     1      47.863   6.077  21.225  0.00  0.00    +0.000 NA
ATOM     32  C   UNL     1      48.160   4.825  21.322  0.00  0.00    +0.000 A 
ATOM     33  N   UNL     1      48.646   4.055  20.295  0.00  0.00    +0.000 N 
ATOM     34  C   UNL     1      48.850   4.541  19.027  0.00  0.00    +0.000 A 
ATOM     35  O   UNL     1      49.241   3.822  18.114  0.00  0.00    +0.000 OA
ATOM     36  C   UNL     1      48.549   5.956  18.870  0.00  0.00    +0.000 A 
ATOM     37  H   UNL     1      48.846   3.075  20.434  0.00  0.00    +0.000 HD
ENDBRANCH  24  27
ENDBRANCH  22  23
ENDBRANCH   4  22
TORSDOF 10
ENDMDL
MODEL 2
REMARK VINA RESULT:    -7.662      3.169      9.266
REMARK INTER + INTRA:         -12.306
REMARK INTER:                 -11.117
REMARK INTRA:                  -1.189
REMARK UNBOUND:                -0.612
REMARK  Name = 
REMARK  11 active torsions:
REMARK  status: ('A' for Active; 'I' for Inactive)
REMARK    1  A    between atoms: C_1  and  C_2
REMARK    2  A    between atoms: C_2  and  C_3
REMARK    3  A    between atoms: C_2  and  C_14
REMARK    4  A    between atoms: C_3  and  N_4
REMARK    5  A    between atoms: C_7  and  C_8
REMARK    6  A    between atoms: C_8  and  O_9
REMARK    7  A    between atoms: C_10  and  C_11
REMARK    8  A    between atoms: C_11  and  O_12
REMARK    9  A    between atoms: C_17  and  C_18
REMARK   10  A    between atoms: C_18  and  N_19
REMARK   11  A    between atoms: C_20  and  C_22
REMARK                            x       y       z     vdW  Elec       q    Type
REMARK                         _______ _______ _______ _____ _____    ______ ____
ROOT
ATOM      1  C   UNL     1      49.699   8.334  15.593  0.00  0.00    +0.000 A 
ATOM      2  C   UNL     1      48.390   8.799  15.454  0.00  0.00    +0.000 A 
ATOM      3  C   UNL     1      47.748   8.668  14.225  0.00  0.00    +0.000 A 
ATOM      4  C   UNL     1      48.426   8.087  13.154  0.00  0.00    +0.000 A 
ATOM      5  C   UNL     1      49.735   7.679  13.373  0.00  0.00    +0.000 A 
ATOM      6  N   UNL     1      50.371   7.776  14.560  0.00  0.00    +0.000 NA
ENDROOT
BRANCH   1   8
ATOM      7  C   UNL     1      51.953   8.404  16.779  0.00  0.00    +0.000 C 
ATOM      8  C   UNL     1      50.424   8.474  16.924  0.00  0.00    +0.000 C 
BRANCH   8   9
ATOM      9  C   UNL     1      49.911   7.411  17.930  0.00  0.00    +0.000 C 
BRANCH   9  10
ATOM     10  N   UNL     1      50.084   6.006  17.505  0.00  0.00    +0.000 NA
ATOM     11  C   UNL     1      51.266   5.383  18.105  0.00  0.00    +0.000 C 
ATOM     12  C   UNL     1      51.477   3.997  17.518  0.00  0.00    +0.000 C 
ATOM     13  C   UNL     1      50.261   3.088  17.748  0.00  0.00    +0.000 C 
ATOM     14  C   UNL     1      48.957   3.791  17.290  0.00  0.00    +0.000 C 
ATOM     15  C   UNL     1      48.876   5.232  17.833  0.00  0.00    +0.000 C 
BRANCH  13  16
ATOM     16  C   UNL     1      50.485   1.750  17.029  0.00  0.00    +0.000 C 
BRANCH  16  17
ATOM     17  O   UNL     1      49.731   1.700  15.822  0.00  0.00    +0.000 OA
ATOM     18  H   UNL     1      49.615   2.611  15.505  0.00  0.00    +0.000 HD
ENDBRANCH  16  17
ENDBRANCH  13  16
BRANCH  14  19
ATOM     19  C   UNL     1      47.680   3.032  17.691  0.00  0.00    +0.000 C 
BRANCH  19  20
ATOM     20  O   UNL     1      46.550   3.417  16.916  0.00  0.00    +0.000 OA
ATOM     21  H   UNL     1      46.812   4.111  16.291  0.00  0.00    +0.000 HD
ENDBRANCH  19  20
ENDBRANCH  14  19
ENDBRANCH   9  10
ENDBRANCH   8   9
ENDBRANCH   1   8
BRANCH   4  22
ATOM     22  C   UNL     1      47.817   7.983  11.790  0.00  0.00    +0.000 C 
BRANCH  22  23
ATOM     23  N   UNL     1      47.065   6.761  11.668  0.00  0.00    +0.000 N 
ATOM     24  C   UNL     1      45.698   6.756  11.708  0.00  0.00    +0.000 C 
ATOM     25  O   UNL     1      45.045   7.793  11.794  0.00  0.00    +0.000 OA
ATOM     26  H   UNL     1      47.569   5.893  11.820  0.00  0.00    +0.000 HD
BRANCH  24  27
ATOM     27  C   UNL     1      45.050   5.446  11.583  0.00  0.00    +0.000 A 
ATOM     28  C   UNL     1      44.367   4.913  12.668  0.00  0.00    +0.000 A 
ATOM     29  S   UNL     1      43.638   3.406  12.344  0.00  0.00    +0.000 S 
ATOM     30  C   UNL     1      44.249   3.391  10.756  0.00  0.00    +0.000 A 
ATOM     31  N   UNL     1      44.003   2.342   9.925  0.00  0.00    +0.000 NA
ATOM     32  C   UNL     1      44.551   2.446   8.760  0.00  0.00    +0.000 A 
ATOM     33  N   UNL     1      45.314   3.507   8.346  0.00  0.00    +0.000 N 
ATOM     34  C   UNL     1      45.562   4.603   9.136  0.00  0.00    +0.000 A 
ATOM     35  O   UNL     1      46.210   5.562   8.726  0.00  0.00    +0.000 OA
ATOM     36  C   UNL     1      44.984   4.528  10.468  0.00  0.00    +0.000 A 
ATOM     37  H   UNL     1      45.702   3.532   7.414  0.00  0.00    +0.000 HD
ENDBRANCH  24  27
ENDBRANCH  22  23
ENDBRANCH   4  22
TORSDOF 10
ENDMDL
MODEL 3
REMARK VINA RESULT:    -7.417      1.203      1.808
REMARK INTER + INTRA:         -11.932
REMARK INTER:                 -11.113
REMARK INTRA:                  -0.819
REMARK UNBOUND:                -0.612
REMARK  Name = 
REMARK  11 active torsions:
REMARK  status: ('A' for Active; 'I' for Inactive)
REMARK    1  A    between atoms: C_1  and  C_2
REMARK    2  A    between atoms: C_2  and  C_3
REMARK    3  A    between atoms: C_2  and  C_14
REMARK    4  A    between atoms: C_3  and  N_4
REMARK    5  A    between atoms: C_7  and  C_8
REMARK    6  A    between atoms: C_8  and  O_9
REMARK    7  A    between atoms: C_10  and  C_11
REMARK    8  A    between atoms: C_11  and  O_12
REMARK    9  A    between atoms: C_17  and  C_18
REMARK   10  A    between atoms: C_18  and  N_19
REMARK   11  A    between atoms: C_20  and  C_22
REMARK                            x       y       z     vdW  Elec       q    Type
REMARK                         _______ _______ _______ _____ _____    ______ ____
ROOT
ATOM      1  C   UNL     1      45.224   5.560  11.806  0.00  0.00    +0.000 A 
ATOM      2  C   UNL     1      45.513   4.833  12.963  0.00  0.00    +0.000 A 
ATOM      3  C   UNL     1      46.550   5.254  13.791  0.00  0.00    +0.000 A 
ATOM      4  C   UNL     1      47.290   6.385  13.445  0.00  0.00    +0.000 A 
ATOM      5  C   UNL     1      46.953   7.030  12.263  0.00  0.00    +0.000 A 
ATOM      6  N   UNL     1      45.939   6.653  11.456  0.00  0.00    +0.000 NA
ENDROOT
BRANCH   1   8
ATOM      7  C   UNL     1      42.706   5.354  11.484  0.00  0.00    +0.000 C 
ATOM      8  C   UNL     1      44.101   5.114  10.883  0.00  0.00    +0.000 C 
BRANCH   8   9
ATOM      9  C   UNL     1      44.287   3.627  10.487  0.00  0.00    +0.000 C 
BRANCH   9  10
ATOM     10  N   UNL     1      44.846   3.399   9.138  0.00  0.00    +0.000 NA
ATOM     11  C   UNL     1      45.758   4.468   8.725  0.00  0.00    +0.000 C 
ATOM     12  C   UNL     1      46.180   4.259   7.279  0.00  0.00    +0.000 C 
ATOM     13  C   UNL     1      46.874   2.904   7.077  0.00  0.00    +0.000 C 
ATOM     14  C   UNL     1      46.017   1.756   7.671  0.00  0.00    +0.000 C 
ATOM     15  C   UNL     1      45.531   2.098   9.094  0.00  0.00    +0.000 C 
BRANCH  13  16
ATOM     16  C   UNL     1      47.165   2.702   5.583  0.00  0.00    +0.000 C 
BRANCH  16  17
ATOM     17  O   UNL     1      48.497   2.238   5.392  0.00  0.00    +0.000 OA
ATOM     18  H   UNL     1      49.101   2.963   5.623  0.00  0.00    +0.000 HD
ENDBRANCH  16  17
ENDBRANCH  13  16
BRANCH  14  19
ATOM     19  C   UNL     1      46.746   0.402   7.701  0.00  0.00    +0.000 C 
BRANCH  19  20
ATOM     20  O   UNL     1      47.023  -0.100   6.399  0.00  0.00    +0.000 OA
ATOM     21  H   UNL     1      47.957   0.056   6.188  0.00  0.00    +0.000 HD
ENDBRANCH  19  20
ENDBRANCH  14  19
ENDBRANCH   9  10
ENDBRANCH   8   9
ENDBRANCH   1   8
BRANCH   4  22
ATOM     22  C   UNL     1      48.462   6.845  14.255  0.00  0.00    +0.000 C 
BRANCH  22  23
ATOM     23  N   UNL     1      48.234   6.597  15.654  0.00  0.00    +0.000 N 
ATOM     24  C   UNL     1      49.237   6.157  16.475  0.00  0.00    +0.000 C 
ATOM     25  O   UNL     1      50.388   6.008  16.074  0.00  0.00    +0.000 OA
ATOM     26  H   UNL     1      47.268   6.497  15.954  0.00  0.00    +0.000 HD
BRANCH  24  27
ATOM     27  C   UNL     1      48.874   5.932  17.878  0.00  0.00    +0.000 A 
ATOM     28  C   UNL     1      49.063   4.676  18.441  0.00  0.00    +0.000 A 
ATOM     29  S   UNL     1      48.631   4.593  20.088  0.00  0.00    +0.000 S 
ATOM     30  C   UNL     1      48.134   6.221  20.096  0.00  0.00    +0.000 A 
ATOM     31  N   UNL     1      47.626   6.789  21.223  0.00  0.00    +0.000 NA
ATOM     32  C   UNL     1      47.261   8.019  21.081  0.00  0.00    +0.000 A 
ATOM     33  N   UNL     1      47.366   8.737  19.917  0.00  0.00    +0.000 N 
ATOM     34  C   UNL     1      47.902   8.219  18.764  0.00  0.00    +0.000 A 
ATOM     35  O   UNL     1      48.028   8.895  17.748  0.00  0.00    +0.000 OA
ATOM     36  C   UNL     1      48.312   6.826  18.864  0.00  0.00    +0.000 A 
ATOM     37  H   UNL     1      47.073   9.703  19.878  0.00  0.00    +0.000 HD
ENDBRANCH  24  27
ENDBRANCH  22  23
ENDBRANCH   4  22
TORSDOF 10
ENDMDL
MODEL 4
REMARK VINA RESULT:    -7.392      3.348      5.283
REMARK INTER + INTRA:         -11.894
REMARK INTER:                 -10.798
REMARK INTRA:                  -1.096
REMARK UNBOUND:                -0.612
REMARK  Name = 
REMARK  11 active torsions:
REMARK  status: ('A' for Active; 'I' for Inactive)
REMARK    1  A    between atoms: C_1  and  C_2
REMARK    2  A    between atoms: C_2  and  C_3
REMARK    3  A    between atoms: C_2  and  C_14
REMARK    4  A    between atoms: C_3  and  N_4
REMARK    5  A    between atoms: C_7  and  C_8
REMARK    6  A    between atoms: C_8  and  O_9
REMARK    7  A    between atoms: C_10  and  C_11
REMARK    8  A    between atoms: C_11  and  O_12
REMARK    9  A    between atoms: C_17  and  C_18
REMARK   10  A    between atoms: C_18  and  N_19
REMARK   11  A    between atoms: C_20  and  C_22
REMARK                            x       y       z     vdW  Elec       q    Type
REMARK                         _______ _______ _______ _____ _____    ______ ____
ROOT
ATOM      1  C   UNL     1      48.423   7.057  13.935  0.00  0.00    +0.000 A 
ATOM      2  C   UNL     1      48.850   8.169  14.663  0.00  0.00    +0.000 A 
ATOM      3  C   UNL     1      49.098   8.036  16.027  0.00  0.00    +0.000 A 
ATOM      4  C   UNL     1      48.902   6.800  16.643  0.00  0.00    +0.000 A 
ATOM      5  C   UNL     1      48.447   5.756  15.849  0.00  0.00    +0.000 A 
ATOM      6  N   UNL     1      48.221   5.856  14.522  0.00  0.00    +0.000 NA
ENDROOT
BRANCH   1   8
ATOM      7  C   UNL     1      48.903   8.343  11.789  0.00  0.00    +0.000 C 
ATOM      8  C   UNL     1      48.140   7.181  12.445  0.00  0.00    +0.000 C 
BRANCH   8   9
ATOM      9  C   UNL     1      46.615   7.306  12.195  0.00  0.00    +0.000 C 
BRANCH   9  10
ATOM     10  N   UNL     1      45.889   6.025  12.073  0.00  0.00    +0.000 NA
ATOM     11  C   UNL     1      44.735   5.950  12.974  0.00  0.00    +0.000 C 
ATOM     12  C   UNL     1      44.122   4.560  12.915  0.00  0.00    +0.000 C 
ATOM     13  C   UNL     1      43.671   4.194  11.493  0.00  0.00    +0.000 C 
ATOM     14  C   UNL     1      44.816   4.437  10.476  0.00  0.00    +0.000 C 
ATOM     15  C   UNL     1      45.463   5.822  10.680  0.00  0.00    +0.000 C 
BRANCH  13  16
ATOM     16  C   UNL     1      43.176   2.741  11.477  0.00  0.00    +0.000 C 
BRANCH  16  17
ATOM     17  O   UNL     1      43.571   2.066  12.667  0.00  0.00    +0.000 OA
ATOM     18  H   UNL     1      43.988   1.227  12.409  0.00  0.00    +0.000 HD
ENDBRANCH  16  17
ENDBRANCH  13  16
BRANCH  14  19
ATOM     19  C   UNL     1      44.371   4.301   9.010  0.00  0.00    +0.000 C 
BRANCH  19  20
ATOM     20  O   UNL     1      45.395   4.669   8.092  0.00  0.00    +0.000 OA
ATOM     21  H   UNL     1      46.257   4.600   8.531  0.00  0.00    +0.000 HD
ENDBRANCH  19  20
ENDBRANCH  14  19
ENDBRANCH   9  10
ENDBRANCH   8   9
ENDBRANCH   1   8
BRANCH   4  22
ATOM     22  C   UNL     1      49.080   6.611  18.118  0.00  0.00    +0.000 C 
BRANCH  22  23
ATOM     23  N   UNL     1      50.031   5.561  18.378  0.00  0.00    +0.000 N 
ATOM     24  C   UNL     1      51.376   5.765  18.234  0.00  0.00    +0.000 C 
ATOM     25  O   UNL     1      51.841   6.861  17.933  0.00  0.00    +0.000 OA
ATOM     26  H   UNL     1      49.673   4.611  18.406  0.00  0.00    +0.000 HD
BRANCH  24  27
ATOM     27  C   UNL     1      52.240   4.614  18.519  0.00  0.00    +0.000 A 
ATOM     28  C   UNL     1      53.405   4.796  19.252  0.00  0.00    +0.000 A 
ATOM     29  S   UNL     1      54.271   3.355  19.530  0.00  0.00    +0.000 S 
ATOM     30  C   UNL     1      53.143   2.441  18.642  0.00  0.00    +0.000 A 
ATOM     31  N   UNL     1      53.311   1.102  18.471  0.00  0.00    +0.000 NA
ATOM     32  C   UNL     1      52.398   0.538  17.752  0.00  0.00    +0.000 A 
ATOM     33  N   UNL     1      51.328   1.190  17.195  0.00  0.00    +0.000 N 
ATOM     34  C   UNL     1      51.097   2.533  17.367  0.00  0.00    +0.000 A 
ATOM     35  O   UNL     1      50.106   3.085  16.898  0.00  0.00    +0.000 OA
ATOM     36  C   UNL     1      52.109   3.221  18.154  0.00  0.00    +0.000 A 
ATOM     37  H   UNL     1      50.640   0.685  16.654  0.00  0.00    +0.000 HD
ENDBRANCH  24  27
ENDBRANCH  22  23
ENDBRANCH   4  22
TORSDOF 10
ENDMDL
MODEL 5
REMARK VINA RESULT:    -6.938      5.204      8.629
REMARK INTER + INTRA:         -11.200
REMARK INTER:                  -9.992
REMARK INTRA:                  -1.208
REMARK UNBOUND:                -0.612
REMARK  Name = 
REMARK  11 active torsions:
REMARK  status: ('A' for Active; 'I' for Inactive)
REMARK    1  A    between atoms: C_1  and  C_2
REMARK    2  A    between atoms: C_2  and  C_3
REMARK    3  A    between atoms: C_2  and  C_14
REMARK    4  A    between atoms: C_3  and  N_4
REMARK    5  A    between atoms: C_7  and  C_8
REMARK    6  A    between atoms: C_8  and  O_9
REMARK    7  A    between atoms: C_10  and  C_11
REMARK    8  A    between atoms: C_11  and  O_12
REMARK    9  A    between atoms: C_17  and  C_18
REMARK   10  A    between atoms: C_18  and  N_19
REMARK   11  A    between atoms: C_20  and  C_22
REMARK                            x       y       z     vdW  Elec       q    Type
REMARK                         _______ _______ _______ _____ _____    ______ ____
ROOT
ATOM      1  C   UNL     1      50.642   8.819  11.634  0.00  0.00    +0.000 A 
ATOM      2  C   UNL     1      50.208   7.537  11.974  0.00  0.00    +0.000 A 
ATOM      3  C   UNL     1      48.851   7.313  12.194  0.00  0.00    +0.000 A 
ATOM      4  C   UNL     1      47.953   8.374  12.085  0.00  0.00    +0.000 A 
ATOM      5  C   UNL     1      48.475   9.622  11.772  0.00  0.00    +0.000 A 
ATOM      6  N   UNL     1      49.782   9.859  11.533  0.00  0.00    +0.000 NA
ENDROOT
BRANCH   1   8
ATOM      7  C   UNL     1      52.666  10.230  12.270  0.00  0.00    +0.000 C 
ATOM      8  C   UNL     1      52.120   9.089  11.396  0.00  0.00    +0.000 C 
BRANCH   8   9
ATOM      9  C   UNL     1      52.382   9.367   9.893  0.00  0.00    +0.000 C 
BRANCH   9  10
ATOM     10  N   UNL     1      52.589   8.166   9.057  0.00  0.00    +0.000 NA
ATOM     11  C   UNL     1      53.076   8.498   7.716  0.00  0.00    +0.000 C 
ATOM     12  C   UNL     1      53.125   7.244   6.857  0.00  0.00    +0.000 C 
ATOM     13  C   UNL     1      54.035   6.169   7.468  0.00  0.00    +0.000 C 
ATOM     14  C   UNL     1      53.668   5.919   8.953  0.00  0.00    +0.000 C 
ATOM     15  C   UNL     1      53.522   7.246   9.726  0.00  0.00    +0.000 C 
BRANCH  13  16
ATOM     16  C   UNL     1      53.946   4.891   6.623  0.00  0.00    +0.000 C 
BRANCH  16  17
ATOM     17  O   UNL     1      52.593   4.465   6.502  0.00  0.00    +0.000 OA
ATOM     18  H   UNL     1      52.586   3.631   6.004  0.00  0.00    +0.000 HD
ENDBRANCH  16  17
ENDBRANCH  13  16
BRANCH  14  19
ATOM     19  C   UNL     1      54.674   5.018   9.690  0.00  0.00    +0.000 C 
BRANCH  19  20
ATOM     20  O   UNL     1      54.219   4.632  10.981  0.00  0.00    +0.000 OA
ATOM     21  H   UNL     1      53.684   3.826  10.905  0.00  0.00    +0.000 HD
ENDBRANCH  19  20
ENDBRANCH  14  19
ENDBRANCH   9  10
ENDBRANCH   8   9
ENDBRANCH   1   8
BRANCH   4  22
ATOM     22  C   UNL     1      46.494   8.214  12.381  0.00  0.00    +0.000 C 
BRANCH  22  23
ATOM     23  N   UNL     1      46.066   6.872  12.081  0.00  0.00    +0.000 N 
ATOM     24  C   UNL     1      44.830   6.618  11.552  0.00  0.00    +0.000 C 
ATOM     25  O   UNL     1      44.051   7.519  11.255  0.00  0.00    +0.000 OA
ATOM     26  H   UNL     1      46.586   6.114  12.514  0.00  0.00    +0.000 HD
BRANCH  24  27
ATOM     27  C   UNL     1      44.510   5.208  11.301  0.00  0.00    +0.000 A 
ATOM     28  C   UNL     1      43.750   4.504  12.225  0.00  0.00    +0.000 A 
ATOM     29  S   UNL     1      43.433   2.893  11.765  0.00  0.00    +0.000 S 
ATOM     30  C   UNL     1      44.339   3.067  10.334  0.00  0.00    +0.000 A 
ATOM     31  N   UNL     1      44.489   2.024   9.474  0.00  0.00    +0.000 NA
ATOM     32  C   UNL     1      45.224   2.284   8.444  0.00  0.00    +0.000 A 
ATOM     33  N   UNL     1      45.815   3.495   8.192  0.00  0.00    +0.000 N 
ATOM     34  C   UNL     1      45.665   4.587   9.012  0.00  0.00    +0.000 A 
ATOM     35  O   UNL     1      46.166   5.674   8.740  0.00  0.00    +0.000 OA
ATOM     36  C   UNL     1      44.861   4.341  10.199  0.00  0.00    +0.000 A 
ATOM     37  H   UNL     1      46.368   3.637   7.358  0.00  0.00    +0.000 HD
ENDBRANCH  24  27
ENDBRANCH  22  23
ENDBRANCH   4  22
TORSDOF 10
ENDMDL
MODEL 6
REMARK VINA RESULT:    -6.488      3.604      5.379
REMARK INTER + INTRA:         -10.514
REMARK INTER:                  -9.371
REMARK INTRA:                  -1.143
REMARK UNBOUND:                -0.612
REMARK  Name = 
REMARK  11 active torsions:
REMARK  status: ('A' for Active; 'I' for Inactive)
REMARK    1  A    between atoms: C_1  and  C_2
REMARK    2  A    between atoms: C_2  and  C_3
REMARK    3  A    between atoms: C_2  and  C_14
REMARK    4  A    between atoms: C_3  and  N_4
REMARK    5  A    between atoms: C_7  and  C_8
REMARK    6  A    between atoms: C_8  and  O_9
REMARK    7  A    between atoms: C_10  and  C_11
REMARK    8  A    between atoms: C_11  and  O_12
REMARK    9  A    between atoms: C_17  and  C_18
REMARK   10  A    between atoms: C_18  and  N_19
REMARK   11  A    between atoms: C_20  and  C_22
REMARK                            x       y       z     vdW  Elec       q    Type
REMARK                         _______ _______ _______ _____ _____    ______ ____
ROOT
ATOM      1  C   UNL     1      47.986   7.975  14.136  0.00  0.00    +0.000 A 
ATOM      2  C   UNL     1      48.189   9.012  15.049  0.00  0.00    +0.000 A 
ATOM      3  C   UNL     1      48.760   8.727  16.286  0.00  0.00    +0.000 A 
ATOM      4  C   UNL     1      49.106   7.413  16.598  0.00  0.00    +0.000 A 
ATOM      5  C   UNL     1      48.843   6.440  15.644  0.00  0.00    +0.000 A 
ATOM      6  N   UNL     1      48.310   6.694  14.429  0.00  0.00    +0.000 NA
ENDROOT
BRANCH   1   8
ATOM      7  C   UNL     1      47.668   9.676  12.267  0.00  0.00    +0.000 C 
ATOM      8  C   UNL     1      47.357   8.260  12.781  0.00  0.00    +0.000 C 
BRANCH   8   9
ATOM      9  C   UNL     1      45.828   8.011  12.833  0.00  0.00    +0.000 C 
BRANCH   9  10
ATOM     10  N   UNL     1      45.325   6.983  11.899  0.00  0.00    +0.000 NA
ATOM     11  C   UNL     1      46.384   6.438  11.046  0.00  0.00    +0.000 C 
ATOM     12  C   UNL     1      45.784   5.502  10.009  0.00  0.00    +0.000 C 
ATOM     13  C   UNL     1      45.021   4.340  10.661  0.00  0.00    +0.000 C 
ATOM     14  C   UNL     1      44.011   4.870  11.712  0.00  0.00    +0.000 C 
ATOM     15  C   UNL     1      44.668   5.902  12.651  0.00  0.00    +0.000 C 
BRANCH  13  16
ATOM     16  C   UNL     1      44.339   3.505   9.569  0.00  0.00    +0.000 C 
BRANCH  16  17
ATOM     17  O   UNL     1      43.719   4.351   8.607  0.00  0.00    +0.000 OA
ATOM     18  H   UNL     1      42.820   4.547   8.918  0.00  0.00    +0.000 HD
ENDBRANCH  16  17
ENDBRANCH  13  16
BRANCH  14  19
ATOM     19  C   UNL     1      43.370   3.758  12.560  0.00  0.00    +0.000 C 
BRANCH  19  20
ATOM     20  O   UNL     1      44.197   2.605  12.665  0.00  0.00    +0.000 OA
ATOM     21  H   UNL     1      45.127   2.871  12.589  0.00  0.00    +0.000 HD
ENDBRANCH  19  20
ENDBRANCH  14  19
ENDBRANCH   9  10
ENDBRANCH   8   9
ENDBRANCH   1   8
BRANCH   4  22
ATOM     22  C   UNL     1      49.656   7.032  17.938  0.00  0.00    +0.000 C 
BRANCH  22  23
ATOM     23  N   UNL     1      50.493   5.866  17.824  0.00  0.00    +0.000 N 
ATOM     24  C   UNL     1      50.084   4.646  18.287  0.00  0.00    +0.000 C 
ATOM     25  O   UNL     1      48.968   4.472  18.769  0.00  0.00    +0.000 OA
ATOM     26  H   UNL     1      51.480   6.023  17.642  0.00  0.00    +0.000 HD
BRANCH  24  27
ATOM     27  C   UNL     1      51.033   3.539  18.122  0.00  0.00    +0.000 A 
ATOM     28  C   UNL     1      50.631   2.386  17.461  0.00  0.00    +0.000 A 
ATOM     29  S   UNL     1      51.862   1.215  17.318  0.00  0.00    +0.000 S 
ATOM     30  C   UNL     1      52.964   2.190  18.173  0.00  0.00    +0.000 A 
ATOM     31  N   UNL     1      54.229   1.757  18.424  0.00  0.00    +0.000 NA
ATOM     32  C   UNL     1      54.949   2.583  19.107  0.00  0.00    +0.000 A 
ATOM     33  N   UNL     1      54.522   3.807  19.556  0.00  0.00    +0.000 N 
ATOM     34  C   UNL     1      53.267   4.302  19.299  0.00  0.00    +0.000 A 
ATOM     35  O   UNL     1      52.925   5.420  19.671  0.00  0.00    +0.000 OA
ATOM     36  C   UNL     1      52.407   3.400  18.548  0.00  0.00    +0.000 A 
ATOM     37  H   UNL     1      55.143   4.412  20.074  0.00  0.00    +0.000 HD
ENDBRANCH  24  27
ENDBRANCH  22  23
ENDBRANCH   4  22
TORSDOF 10
ENDMDL
MODEL 7
REMARK VINA RESULT:    -6.401      4.793      5.905
REMARK INTER + INTRA:         -10.382
REMARK INTER:                  -9.109
REMARK INTRA:                  -1.272
REMARK UNBOUND:                -0.612
REMARK  Name = 
REMARK  11 active torsions:
REMARK  status: ('A' for Active; 'I' for Inactive)
REMARK    1  A    between atoms: C_1  and  C_2
REMARK    2  A    between atoms: C_2  and  C_3
REMARK    3  A    between atoms: C_2  and  C_14
REMARK    4  A    between atoms: C_3  and  N_4
REMARK    5  A    between atoms: C_7  and  C_8
REMARK    6  A    between atoms: C_8  and  O_9
REMARK    7  A    between atoms: C_10  and  C_11
REMARK    8  A    between atoms: C_11  and  O_12
REMARK    9  A    between atoms: C_17  and  C_18
REMARK   10  A    between atoms: C_18  and  N_19
REMARK   11  A    between atoms: C_20  and  C_22
REMARK                            x       y       z     vdW  Elec       q    Type
REMARK                         _______ _______ _______ _____ _____    ______ ____
ROOT
ATOM      1  C   UNL     1      44.793   6.020  11.969  0.00  0.00    +0.000 A 
ATOM      2  C   UNL     1      45.975   6.191  12.693  0.00  0.00    +0.000 A 
ATOM      3  C   UNL     1      46.508   7.469  12.835  0.00  0.00    +0.000 A 
ATOM      4  C   UNL     1      45.862   8.553  12.242  0.00  0.00    +0.000 A 
ATOM      5  C   UNL     1      44.709   8.289  11.516  0.00  0.00    +0.000 A 
ATOM      6  N   UNL     1      44.161   7.062  11.382  0.00  0.00    +0.000 NA
ENDROOT
BRANCH   1   8
ATOM      7  C   UNL     1      45.062   3.528  12.422  0.00  0.00    +0.000 C 
ATOM      8  C   UNL     1      44.196   4.632  11.794  0.00  0.00    +0.000 C 
BRANCH   8   9
ATOM      9  C   UNL     1      43.931   4.345  10.294  0.00  0.00    +0.000 C 
BRANCH   9  10
ATOM     10  N   UNL     1      44.929   3.479   9.632  0.00  0.00    +0.000 NA
ATOM     11  C   UNL     1      44.373   2.179   9.249  0.00  0.00    +0.000 C 
ATOM     12  C   UNL     1      45.477   1.280   8.714  0.00  0.00    +0.000 C 
ATOM     13  C   UNL     1      46.180   1.902   7.498  0.00  0.00    +0.000 C 
ATOM     14  C   UNL     1      46.624   3.355   7.805  0.00  0.00    +0.000 C 
ATOM     15  C   UNL     1      45.483   4.165   8.454  0.00  0.00    +0.000 C 
BRANCH  13  16
ATOM     16  C   UNL     1      47.358   1.008   7.083  0.00  0.00    +0.000 C 
BRANCH  16  17
ATOM     17  O   UNL     1      47.216   0.593   5.729  0.00  0.00    +0.000 OA
ATOM     18  H   UNL     1      47.679   1.238   5.169  0.00  0.00    +0.000 HD
ENDBRANCH  16  17
ENDBRANCH  13  16
BRANCH  14  19
ATOM     19  C   UNL     1      47.137   4.113   6.569  0.00  0.00    +0.000 C 
BRANCH  19  20
ATOM     20  O   UNL     1      46.944   3.384   5.362  0.00  0.00    +0.000 OA
ATOM     21  H   UNL     1      47.768   2.927   5.129  0.00  0.00    +0.000 HD
ENDBRANCH  19  20
ENDBRANCH  14  19
ENDBRANCH   9  10
ENDBRANCH   8   9
ENDBRANCH   1   8
BRANCH   4  22
ATOM     22  C   UNL     1      46.423   9.940  12.297  0.00  0.00    +0.000 C 
BRANCH  22  23
ATOM     23  N   UNL     1      47.764   9.960  11.771  0.00  0.00    +0.000 N 
ATOM     24  C   UNL     1      48.815  10.429  12.510  0.00  0.00    +0.000 C 
ATOM     25  O   UNL     1      48.678  10.802  13.672  0.00  0.00    +0.000 OA
ATOM     26  H   UNL     1      47.865   9.872  10.764  0.00  0.00    +0.000 HD
BRANCH  24  27
ATOM     27  C   UNL     1      50.128  10.406  11.857  0.00  0.00    +0.000 A 
ATOM     28  C   UNL     1      50.799  11.599  11.626  0.00  0.00    +0.000 A 
ATOM     29  S   UNL     1      52.328  11.394  10.898  0.00  0.00    +0.000 S 
ATOM     30  C   UNL     1      52.127   9.706  10.826  0.00  0.00    +0.000 A 
ATOM     31  N   UNL     1      53.089   8.913  10.280  0.00  0.00    +0.000 NA
ATOM     32  C   UNL     1      52.796   7.656  10.262  0.00  0.00    +0.000 A 
ATOM     33  N   UNL     1      51.632   7.117  10.748  0.00  0.00    +0.000 N 
ATOM     34  C   UNL     1      50.647   7.872  11.337  0.00  0.00    +0.000 A 
ATOM     35  O   UNL     1      49.635   7.361  11.807  0.00  0.00    +0.000 OA
ATOM     36  C   UNL     1      50.919   9.300  11.366  0.00  0.00    +0.000 A 
ATOM     37  H   UNL     1      51.471   6.121  10.716  0.00  0.00    +0.000 HD
ENDBRANCH  24  27
ENDBRANCH  22  23
ENDBRANCH   4  22
TORSDOF 10
ENDMDL
MODEL 8
REMARK VINA RESULT:    -5.938      5.874      9.012
REMARK INTER + INTRA:          -9.674
REMARK INTER:                  -8.542
REMARK INTRA:                  -1.133
REMARK UNBOUND:                -0.612
REMARK  Name = 
REMARK  11 active torsions:
REMARK  status: ('A' for Active; 'I' for Inactive)
REMARK    1  A    between atoms: C_1  and  C_2
REMARK    2  A    between atoms: C_2  and  C_3
REMARK    3  A    between atoms: C_2  and  C_14
REMARK    4  A    between atoms: C_3  and  N_4
REMARK    5  A    between atoms: C_7  and  C_8
REMARK    6  A    between atoms: C_8  and  O_9
REMARK    7  A    between atoms: C_10  and  C_11
REMARK    8  A    between atoms: C_11  and  O_12
REMARK    9  A    between atoms: C_17  and  C_18
REMARK   10  A    between atoms: C_18  and  N_19
REMARK   11  A    between atoms: C_20  and  C_22
REMARK                            x       y       z     vdW  Elec       q    Type
REMARK                         _______ _______ _______ _____ _____    ______ ____
ROOT
ATOM      1  C   UNL     1      50.627   8.873  11.366  0.00  0.00    +0.000 A 
ATOM      2  C   UNL     1      50.134   7.576  11.516  0.00  0.00    +0.000 A 
ATOM      3  C   UNL     1      48.831   7.392  11.972  0.00  0.00    +0.000 A 
ATOM      4  C   UNL     1      48.048   8.503  12.283  0.00  0.00    +0.000 A 
ATOM      5  C   UNL     1      48.628   9.755  12.131  0.00  0.00    +0.000 A 
ATOM      6  N   UNL     1      49.881   9.959  11.671  0.00  0.00    +0.000 NA
ENDROOT
BRANCH   1   8
ATOM      7  C   UNL     1      53.094   8.958  11.995  0.00  0.00    +0.000 C 
ATOM      8  C   UNL     1      52.050   9.099  10.876  0.00  0.00    +0.000 C 
BRANCH   8   9
ATOM      9  C   UNL     1      52.167  10.478  10.178  0.00  0.00    +0.000 C 
BRANCH   9  10
ATOM     10  N   UNL     1      52.501  10.430   8.739  0.00  0.00    +0.000 NA
ATOM     11  C   UNL     1      53.649  11.277   8.405  0.00  0.00    +0.000 C 
ATOM     12  C   UNL     1      53.850  11.306   6.898  0.00  0.00    +0.000 C 
ATOM     13  C   UNL     1      54.082   9.900   6.325  0.00  0.00    +0.000 C 
ATOM     14  C   UNL     1      52.980   8.923   6.810  0.00  0.00    +0.000 C 
ATOM     15  C   UNL     1      52.756   9.040   8.331  0.00  0.00    +0.000 C 
BRANCH  13  16
ATOM     16  C   UNL     1      54.155   9.983   4.794  0.00  0.00    +0.000 C 
BRANCH  16  17
ATOM     17  O   UNL     1      55.222   9.179   4.301  0.00  0.00    +0.000 OA
ATOM     18  H   UNL     1      55.380   8.467   4.942  0.00  0.00    +0.000 HD
ENDBRANCH  16  17
ENDBRANCH  13  16
BRANCH  14  19
ATOM     19  C   UNL     1      53.267   7.453   6.456  0.00  0.00    +0.000 C 
BRANCH  19  20
ATOM     20  O   UNL     1      52.263   6.569   6.940  0.00  0.00    +0.000 OA
ATOM     21  H   UNL     1      52.644   5.684   7.054  0.00  0.00    +0.000 HD
ENDBRANCH  19  20
ENDBRANCH  14  19
ENDBRANCH   9  10
ENDBRANCH   8   9
ENDBRANCH   1   8
BRANCH   4  22
ATOM     22  C   UNL     1      46.667   8.369  12.846  0.00  0.00    +0.000 C 
BRANCH  22  23
ATOM     23  N   UNL     1      46.157   7.043  12.615  0.00  0.00    +0.000 N 
ATOM     24  C   UNL     1      45.137   6.813  11.733  0.00  0.00    +0.000 C 
ATOM     25  O   UNL     1      44.646   7.713  11.056  0.00  0.00    +0.000 OA
ATOM     26  H   UNL     1      46.384   6.334  13.307  0.00  0.00    +0.000 HD
BRANCH  24  27
ATOM     27  C   UNL     1      44.701   5.419  11.594  0.00  0.00    +0.000 A 
ATOM     28  C   UNL     1      44.012   4.811  12.635  0.00  0.00    +0.000 A 
ATOM     29  S   UNL     1      43.542   3.207  12.298  0.00  0.00    +0.000 S 
ATOM     30  C   UNL     1      44.282   3.254  10.766  0.00  0.00    +0.000 A 
ATOM     31  N   UNL     1      44.264   2.166   9.950  0.00  0.00    +0.000 NA
ATOM     32  C   UNL     1      44.888   2.329   8.831  0.00  0.00    +0.000 A 
ATOM     33  N   UNL     1      45.521   3.484   8.449  0.00  0.00    +0.000 N 
ATOM     34  C   UNL     1      45.537   4.619   9.223  0.00  0.00    +0.000 A 
ATOM     35  O   UNL     1      46.070   5.656   8.840  0.00  0.00    +0.000 OA
ATOM     36  C   UNL     1      44.864   4.482  10.506  0.00  0.00    +0.000 A 
ATOM     37  H   UNL     1      45.979   3.550   7.552  0.00  0.00    +0.000 HD
ENDBRANCH  24  27
ENDBRANCH  22  23
ENDBRANCH   4  22
TORSDOF 10
ENDMDL
MODEL 9
REMARK VINA RESULT:    -5.855      5.642      8.002
REMARK INTER + INTRA:          -9.547
REMARK INTER:                  -8.337
REMARK INTRA:                  -1.210
REMARK UNBOUND:                -0.612
REMARK  Name = 
REMARK  11 active torsions:
REMARK  status: ('A' for Active; 'I' for Inactive)
REMARK    1  A    between atoms: C_1  and  C_2
REMARK    2  A    between atoms: C_2  and  C_3
REMARK    3  A    between atoms: C_2  and  C_14
REMARK    4  A    between atoms: C_3  and  N_4
REMARK    5  A    between atoms: C_7  and  C_8
REMARK    6  A    between atoms: C_8  and  O_9
REMARK    7  A    between atoms: C_10  and  C_11
REMARK    8  A    between atoms: C_11  and  O_12
REMARK    9  A    between atoms: C_17  and  C_18
REMARK   10  A    between atoms: C_18  and  N_19
REMARK   11  A    between atoms: C_20  and  C_22
REMARK                            x       y       z     vdW  Elec       q    Type
REMARK                         _______ _______ _______ _____ _____    ______ ____
ROOT
ATOM      1  C   UNL     1      51.478   9.997  10.796  0.00  0.00    +0.000 A 
ATOM      2  C   UNL     1      50.990   8.801  11.328  0.00  0.00    +0.000 A 
ATOM      3  C   UNL     1      49.667   8.737  11.756  0.00  0.00    +0.000 A 
ATOM      4  C   UNL     1      48.857   9.868  11.660  0.00  0.00    +0.000 A 
ATOM      5  C   UNL     1      49.432  11.022  11.145  0.00  0.00    +0.000 A 
ATOM      6  N   UNL     1      50.705  11.103  10.704  0.00  0.00    +0.000 NA
ENDROOT
BRANCH   1   8
ATOM      7  C   UNL     1      53.593  11.416  10.735  0.00  0.00    +0.000 C 
ATOM      8  C   UNL     1      52.923  10.093  10.329  0.00  0.00    +0.000 C 
BRANCH   8   9
ATOM      9  C   UNL     1      53.008   9.874   8.796  0.00  0.00    +0.000 C 
BRANCH   9  10
ATOM     10  N   UNL     1      53.010   8.462   8.361  0.00  0.00    +0.000 NA
ATOM     11  C   UNL     1      53.533   8.299   7.002  0.00  0.00    +0.000 C 
ATOM     12  C   UNL     1      53.369   6.855   6.554  0.00  0.00    +0.000 C 
ATOM     13  C   UNL     1      54.098   5.880   7.490  0.00  0.00    +0.000 C 
ATOM     14  C   UNL     1      53.707   6.145   8.967  0.00  0.00    +0.000 C 
ATOM     15  C   UNL     1      53.786   7.647   9.308  0.00  0.00    +0.000 C 
BRANCH  13  16
ATOM     16  C   UNL     1      53.794   4.439   7.057  0.00  0.00    +0.000 C 
BRANCH  16  17
ATOM     17  O   UNL     1      52.512   4.362   6.445  0.00  0.00    +0.000 OA
ATOM     18  H   UNL     1      52.424   3.480   6.047  0.00  0.00    +0.000 HD
ENDBRANCH  16  17
ENDBRANCH  13  16
BRANCH  14  19
ATOM     19  C   UNL     1      54.560   5.357   9.976  0.00  0.00    +0.000 C 
BRANCH  19  20
ATOM     20  O   UNL     1      54.282   5.716  11.325  0.00  0.00    +0.000 OA
ATOM     21  H   UNL     1      53.354   5.988  11.399  0.00  0.00    +0.000 HD
ENDBRANCH  19  20
ENDBRANCH  14  19
ENDBRANCH   9  10
ENDBRANCH   8   9
ENDBRANCH   1   8
BRANCH   4  22
ATOM     22  C   UNL     1      47.449   9.883  12.169  0.00  0.00    +0.000 C 
BRANCH  22  23
ATOM     23  N   UNL     1      46.859   8.575  12.052  0.00  0.00    +0.000 N 
ATOM     24  C   UNL     1      45.515   8.380  12.214  0.00  0.00    +0.000 C 
ATOM     25  O   UNL     1      44.740   9.314  12.409  0.00  0.00    +0.000 OA
ATOM     26  H   UNL     1      47.486   7.778  12.114  0.00  0.00    +0.000 HD
BRANCH  24  27
ATOM     27  C   UNL     1      45.038   6.999  12.079  0.00  0.00    +0.000 A 
ATOM     28  C   UNL     1      43.859   6.745  11.392  0.00  0.00    +0.000 A 
ATOM     29  S   UNL     1      43.469   5.089  11.292  0.00  0.00    +0.000 S 
ATOM     30  C   UNL     1      44.839   4.655  12.203  0.00  0.00    +0.000 A 
ATOM     31  N   UNL     1      45.092   3.353  12.505  0.00  0.00    +0.000 NA
ATOM     32  C   UNL     1      46.147   3.168  13.226  0.00  0.00    +0.000 A 
ATOM     33  N   UNL     1      46.978   4.167  13.666  0.00  0.00    +0.000 N 
ATOM     34  C   UNL     1      46.784   5.491  13.360  0.00  0.00    +0.000 A 
ATOM     35  O   UNL     1      47.568   6.361  13.726  0.00  0.00    +0.000 OA
ATOM     36  C   UNL     1      45.595   5.757  12.564  0.00  0.00    +0.000 A 
ATOM     37  H   UNL     1      47.797   3.952  14.217  0.00  0.00    +0.000 HD
ENDBRANCH  24  27
ENDBRANCH  22  23
ENDBRANCH   4  22
TORSDOF 10
ENDMDL
