MODEL 1
REMARK VINA RESULT:    -8.125      0.000      0.000
REMARK INTER + INTRA:         -11.249
REMARK INTER:                 -10.500
REMARK INTRA:                  -0.749
REMARK UNBOUND:                -0.749
REMARK  Name = 
REMARK  5 active torsions:
REMARK  status: ('A' for Active; 'I' for Inactive)
REMARK    1  A    between atoms: C_2  and  C_4
REMARK    2  A    between atoms: C_7  and  N_8
REMARK    3  A    between atoms: N_8  and  C_9
REMARK    4  A    between atoms: C_9  and  C_10
REMARK    5  A    between atoms: C_14  and  C_15
REMARK                            x       y       z     vdW  Elec       q    Type
REMARK                         _______ _______ _______ _____ _____    ______ ____
ROOT
ATOM      1  C   UNL     1      43.831   3.776  11.459  0.00  0.00    +0.000 C 
ENDROOT
BRANCH   1   2
ATOM      2  C   UNL     1      44.749   4.879  11.942  0.00  0.00    +0.000 A 
ATOM      3  C   UNL     1      44.712   6.154  11.372  0.00  0.00    +0.000 A 
ATOM      4  C   UNL     1      45.557   7.155  11.846  0.00  0.00    +0.000 A 
ATOM      5  C   UNL     1      46.436   6.894  12.904  0.00  0.00    +0.000 A 
ATOM      6  C   UNL     1      46.489   5.630  13.515  0.00  0.00    +0.000 A 
ATOM      7  C   UNL     1      45.647   4.630  12.998  0.00  0.00    +0.000 A 
BRANCH   6   8
ATOM      8  C   UNL     1      47.356   5.365  14.680  0.00  0.00    +0.000 A 
ATOM      9  C   UNL     1      48.434   6.199  15.003  0.00  0.00    +0.000 A 
ATOM     10  N   UNL     1      49.251   6.045  16.073  0.00  0.00    +0.000 NA
ATOM     11  C   UNL     1      48.982   5.001  16.889  0.00  0.00    +0.000 A 
ATOM     12  C   UNL     1      47.943   4.111  16.675  0.00  0.00    +0.000 A 
ATOM     13 CL   UNL     1      47.651   2.820  17.766  0.00  0.00    +0.000 Cl
ATOM     14  C   UNL     1      47.130   4.293  15.557  0.00  0.00    +0.000 A 
ENDBRANCH   6   8
ENDBRANCH   1   2
BRANCH   1  15
ATOM     15  N   UNL     1      43.628   3.931  10.022  0.00  0.00    +0.000 N 
ATOM     16  H   UNL     1      43.307   4.868   9.789  0.00  0.00    +0.000 HD
BRANCH  15  20
ATOM     17  C   UNL     1      46.535   2.335   7.514  0.00  0.00    +0.000 A 
ATOM     18  C   UNL     1      46.305   3.701   7.440  0.00  0.00    +0.000 A 
ATOM     19  C   UNL     1      45.317   4.254   8.258  0.00  0.00    +0.000 A 
ATOM     20  C   UNL     1      44.572   3.445   9.118  0.00  0.00    +0.000 A 
ATOM     21  C   UNL     1      44.931   2.090   9.142  0.00  0.00    +0.000 A 
ATOM     22  N   UNL     1      45.868   1.503   8.356  0.00  0.00    +0.000 NA
BRANCH  17  24
ATOM     23  N   UNL     1      48.672   2.476   6.379  0.00  0.00    +0.000 N 
ATOM     24  C   UNL     1      47.569   1.706   6.632  0.00  0.00    +0.000 C 
ATOM     25  O   UNL     1      47.449   0.578   6.171  0.00  0.00    +0.000 OA
ATOM     26  H   UNL     1      49.415   2.114   5.801  0.00  0.00    +0.000 HD
ATOM     27  H   UNL     1      48.738   3.402   6.788  0.00  0.00    +0.000 HD
ENDBRANCH  17  24
ENDBRANCH  15  20
ENDBRANCH   1  15
TORSDOF 5
ENDMDL
MODEL 2
REMARK VINA RESULT:    -7.990      2.951      4.066
REMARK INTER + INTRA:         -11.075
REMARK INTER:                 -10.196
REMARK INTRA:                  -0.879
REMARK UNBOUND:                -0.749
REMARK  Name = 
REMARK  5 active torsions:
REMARK  status: ('A' for Active; 'I' for Inactive)
REMARK    1  A    between atoms: C_2  and  C_4
REMARK    2  A    between atoms: C_7  and  N_8
REMARK    3  A    between atoms: N_8  and  C_9
REMARK    4  A    between atoms: C_9  and  C_10
REMARK    5  A    between atoms: C_14  and  C_15
REMARK                            x       y       z     vdW  Elec       q    Type
REMARK                         _______ _______ _______ _____ _____    ______ ____
ROOT
ATOM      1  C   UNL     1      43.774   3.213  11.491  0.00  0.00    +0.000 C 
ENDROOT
BRANCH   1   2
ATOM      2  C   UNL     1      44.828   4.074  12.155  0.00  0.00    +0.000 A 
ATOM      3  C   UNL     1      45.856   3.506  12.912  0.00  0.00    +0.000 A 
ATOM      4  C   UNL     1      46.821   4.321  13.499  0.00  0.00    +0.000 A 
ATOM      5  C   UNL     1      46.774   5.709  13.324  0.00  0.00    +0.000 A 
ATOM      6  C   UNL     1      45.767   6.315  12.555  0.00  0.00    +0.000 A 
ATOM      7  C   UNL     1      44.790   5.472  11.998  0.00  0.00    +0.000 A 
BRANCH   6   8
ATOM      8  C   UNL     1      45.751   7.769  12.300  0.00  0.00    +0.000 A 
ATOM      9  C   UNL     1      46.810   8.598  12.692  0.00  0.00    +0.000 A 
ATOM     10  N   UNL     1      46.888   9.932  12.462  0.00  0.00    +0.000 NA
ATOM     11  C   UNL     1      45.854  10.487  11.789  0.00  0.00    +0.000 A 
ATOM     12  C   UNL     1      44.755   9.769  11.348  0.00  0.00    +0.000 A 
ATOM     13 CL   UNL     1      43.490  10.539  10.482  0.00  0.00    +0.000 Cl
ATOM     14  C   UNL     1      44.703   8.401  11.613  0.00  0.00    +0.000 A 
ENDBRANCH   6   8
ENDBRANCH   1   2
BRANCH   1  15
ATOM     15  N   UNL     1      43.646   3.622  10.095  0.00  0.00    +0.000 N 
ATOM     16  H   UNL     1      43.409   4.608  10.016  0.00  0.00    +0.000 HD
BRANCH  15  20
ATOM     17  C   UNL     1      46.566   2.275   7.460  0.00  0.00    +0.000 A 
ATOM     18  C   UNL     1      46.206   3.613   7.388  0.00  0.00    +0.000 A 
ATOM     19  C   UNL     1      45.211   4.081   8.250  0.00  0.00    +0.000 A 
ATOM     20  C   UNL     1      44.586   3.216   9.150  0.00  0.00    +0.000 A 
ATOM     21  C   UNL     1      45.071   1.900   9.165  0.00  0.00    +0.000 A 
ATOM     22  N   UNL     1      46.020   1.394   8.338  0.00  0.00    +0.000 NA
BRANCH  17  24
ATOM     23  N   UNL     1      48.731   2.510   6.396  0.00  0.00    +0.000 N 
ATOM     24  C   UNL     1      47.610   1.735   6.532  0.00  0.00    +0.000 C 
ATOM     25  O   UNL     1      47.485   0.671   5.940  0.00  0.00    +0.000 OA
ATOM     26  H   UNL     1      49.482   2.204   5.796  0.00  0.00    +0.000 HD
ATOM     27  H   UNL     1      48.802   3.380   6.911  0.00  0.00    +0.000 HD
ENDBRANCH  17  24
ENDBRANCH  15  20
ENDBRANCH   1  15
TORSDOF 5
ENDMDL
MODEL 3
REMARK VINA RESULT:    -7.855      2.776      3.563
REMARK INTER + INTRA:         -10.900
REMARK INTER:                 -10.108
REMARK INTRA:                  -0.792
REMARK UNBOUND:                -0.749
REMARK  Name = 
REMARK  5 active torsions:
REMARK  status: ('A' for Active; 'I' for Inactive)
REMARK    1  A    between atoms: C_2  and  C_4
REMARK    2  A    between atoms: C_7  and  N_8
REMARK    3  A    between atoms: N_8  and  C_9
REMARK    4  A    between atoms: C_9  and  C_10
REMARK    5  A    between atoms: C_14  and  C_15
REMARK                            x       y       z     vdW  Elec       q    Type
REMARK                         _______ _______ _______ _____ _____    ______ ____
ROOT
ATOM      1  C   UNL     1      43.780   5.243  10.711  0.00  0.00    +0.000 C 
ENDROOT
BRANCH   1   2
ATOM      2  C   UNL     1      44.928   5.403  11.684  0.00  0.00    +0.000 A 
ATOM      3  C   UNL     1      45.100   4.520  12.754  0.00  0.00    +0.000 A 
ATOM      4  C   UNL     1      46.175   4.681  13.626  0.00  0.00    +0.000 A 
ATOM      5  C   UNL     1      47.094   5.719  13.428  0.00  0.00    +0.000 A 
ATOM      6  C   UNL     1      46.964   6.616  12.354  0.00  0.00    +0.000 A 
ATOM      7  C   UNL     1      45.855   6.447  11.507  0.00  0.00    +0.000 A 
BRANCH   6   8
ATOM      8  C   UNL     1      47.969   7.665  12.091  0.00  0.00    +0.000 A 
ATOM      9  C   UNL     1      47.649   9.027  12.165  0.00  0.00    +0.000 A 
ATOM     10  N   UNL     1      48.521  10.047  11.975  0.00  0.00    +0.000 NA
ATOM     11  C   UNL     1      49.800   9.702  11.702  0.00  0.00    +0.000 A 
ATOM     12  C   UNL     1      50.235   8.391  11.608  0.00  0.00    +0.000 A 
ATOM     13 CL   UNL     1      51.880   8.030  11.278  0.00  0.00    +0.000 Cl
ATOM     14  C   UNL     1      49.308   7.367  11.797  0.00  0.00    +0.000 A 
ENDBRANCH   6   8
ENDBRANCH   1   2
BRANCH   1  15
ATOM     15  N   UNL     1      43.729   3.852  10.270  0.00  0.00    +0.000 N 
ATOM     16  H   UNL     1      42.772   3.546  10.109  0.00  0.00    +0.000 HD
BRANCH  15  20
ATOM     17  C   UNL     1      46.475   2.310   7.555  0.00  0.00    +0.000 A 
ATOM     18  C   UNL     1      46.240   3.676   7.523  0.00  0.00    +0.000 A 
ATOM     19  C   UNL     1      45.305   4.212   8.412  0.00  0.00    +0.000 A 
ATOM     20  C   UNL     1      44.615   3.385   9.300  0.00  0.00    +0.000 A 
ATOM     21  C   UNL     1      44.974   2.030   9.274  0.00  0.00    +0.000 A 
ATOM     22  N   UNL     1      45.860   1.460   8.420  0.00  0.00    +0.000 NA
BRANCH  17  24
ATOM     23  N   UNL     1      48.482   2.514   6.212  0.00  0.00    +0.000 N 
ATOM     24  C   UNL     1      47.451   1.699   6.598  0.00  0.00    +0.000 C 
ATOM     25  O   UNL     1      47.349   0.550   6.190  0.00  0.00    +0.000 OA
ATOM     26  H   UNL     1      49.184   2.167   5.577  0.00  0.00    +0.000 HD
ATOM     27  H   UNL     1      48.537   3.458   6.580  0.00  0.00    +0.000 HD
ENDBRANCH  17  24
ENDBRANCH  15  20
ENDBRANCH   1  15
TORSDOF 5
ENDMDL
MODEL 4
REMARK VINA RESULT:    -7.443      2.558      3.062
REMARK INTER + INTRA:         -10.367
REMARK INTER:                  -9.668
REMARK INTRA:                  -0.699
REMARK UNBOUND:                -0.749
REMARK  Name = 
REMARK  5 active torsions:
REMARK  status: ('A' for Active; 'I' for Inactive)
REMARK    1  A    between atoms: C_2  and  C_4
REMARK    2  A    between atoms: C_7  and  N_8
REMARK    3  A    between atoms: N_8  and  C_9
REMARK    4  A    between atoms: C_9  and  C_10
REMARK    5  A    between atoms: C_14  and  C_15
REMARK                            x       y       z     vdW  Elec       q    Type
REMARK                         _______ _______ _______ _____ _____    ______ ____
ROOT
ATOM      1  C   UNL     1      44.305   3.402  11.718  0.00  0.00    +0.000 C 
ENDROOT
BRANCH   1   2
ATOM      2  C   UNL     1      44.636   4.878  11.776  0.00  0.00    +0.000 A 
ATOM      3  C   UNL     1      43.666   5.849  11.515  0.00  0.00    +0.000 A 
ATOM      4  C   UNL     1      43.994   7.201  11.591  0.00  0.00    +0.000 A 
ATOM      5  C   UNL     1      45.291   7.594  11.942  0.00  0.00    +0.000 A 
ATOM      6  C   UNL     1      46.289   6.647  12.229  0.00  0.00    +0.000 A 
ATOM      7  C   UNL     1      45.938   5.290  12.117  0.00  0.00    +0.000 A 
BRANCH   6   8
ATOM      8  C   UNL     1      47.637   7.049  12.675  0.00  0.00    +0.000 A 
ATOM      9  C   UNL     1      48.035   6.941  14.014  0.00  0.00    +0.000 A 
ATOM     10  N   UNL     1      49.263   7.253  14.495  0.00  0.00    +0.000 NA
ATOM     11  C   UNL     1      50.168   7.694  13.591  0.00  0.00    +0.000 A 
ATOM     12  C   UNL     1      49.892   7.839  12.242  0.00  0.00    +0.000 A 
ATOM     13 CL   UNL     1      51.099   8.385  11.151  0.00  0.00    +0.000 Cl
ATOM     14  C   UNL     1      48.615   7.520  11.785  0.00  0.00    +0.000 A 
ENDBRANCH   6   8
ENDBRANCH   1   2
BRANCH   1  15
ATOM     15  N   UNL     1      43.872   3.072  10.363  0.00  0.00    +0.000 N 
ATOM     16  H   UNL     1      43.075   3.637  10.078  0.00  0.00    +0.000 HD
BRANCH  15  20
ATOM     17  C   UNL     1      46.501   2.702   7.163  0.00  0.00    +0.000 A 
ATOM     18  C   UNL     1      46.313   1.590   7.970  0.00  0.00    +0.000 A 
ATOM     19  C   UNL     1      45.450   1.699   9.064  0.00  0.00    +0.000 A 
ATOM     20  C   UNL     1      44.807   2.906   9.342  0.00  0.00    +0.000 A 
ATOM     21  C   UNL     1      45.036   3.944   8.427  0.00  0.00    +0.000 A 
ATOM     22  N   UNL     1      45.876   3.892   7.363  0.00  0.00    +0.000 NA
BRANCH  17  24
ATOM     23  N   UNL     1      48.770   2.690   6.313  0.00  0.00    +0.000 N 
ATOM     24  C   UNL     1      47.439   2.627   5.998  0.00  0.00    +0.000 C 
ATOM     25  O   UNL     1      47.053   2.508   4.843  0.00  0.00    +0.000 OA
ATOM     26  H   UNL     1      49.461   2.634   5.580  0.00  0.00    +0.000 HD
ATOM     27  H   UNL     1      49.050   2.779   7.283  0.00  0.00    +0.000 HD
ENDBRANCH  17  24
ENDBRANCH  15  20
ENDBRANCH   1  15
TORSDOF 5
ENDMDL
MODEL 5
REMARK VINA RESULT:    -7.269      3.750      7.786
REMARK INTER + INTRA:         -10.143
REMARK INTER:                  -9.642
REMARK INTRA:                  -0.501
REMARK UNBOUND:                -0.749
REMARK  Name = 
REMARK  5 active torsions:
REMARK  status: ('A' for Active; 'I' for Inactive)
REMARK    1  A    between atoms: C_2  and  C_4
REMARK    2  A    between atoms: C_7  and  N_8
REMARK    3  A    between atoms: N_8  and  C_9
REMARK    4  A    between atoms: C_9  and  C_10
REMARK    5  A    between atoms: C_14  and  C_15
REMARK                            x       y       z     vdW  Elec       q    Type
REMARK                         _______ _______ _______ _____ _____    ______ ____
ROOT
ATOM      1  C   UNL     1      45.622   6.963  12.796  0.00  0.00    +0.000 C 
ENDROOT
BRANCH   1   2
ATOM      2  C   UNL     1      44.870   5.869  12.068  0.00  0.00    +0.000 A 
ATOM      3  C   UNL     1      43.571   5.513  12.437  0.00  0.00    +0.000 A 
ATOM      4  C   UNL     1      42.896   4.513  11.739  0.00  0.00    +0.000 A 
ATOM      5  C   UNL     1      43.510   3.870  10.658  0.00  0.00    +0.000 A 
ATOM      6  C   UNL     1      44.809   4.213  10.246  0.00  0.00    +0.000 A 
ATOM      7  C   UNL     1      45.477   5.204  10.985  0.00  0.00    +0.000 A 
BRANCH   6   8
ATOM      8  C   UNL     1      45.437   3.597   9.061  0.00  0.00    +0.000 A 
ATOM      9  C   UNL     1      45.877   4.365   7.975  0.00  0.00    +0.000 A 
ATOM     10  N   UNL     1      46.494   3.879   6.870  0.00  0.00    +0.000 NA
ATOM     11  C   UNL     1      46.702   2.543   6.836  0.00  0.00    +0.000 A 
ATOM     12  C   UNL     1      46.315   1.684   7.850  0.00  0.00    +0.000 A 
ATOM     13 CL   UNL     1      46.631   0.000   7.745  0.00  0.00    +0.000 Cl
ATOM     14  C   UNL     1      45.672   2.216   8.966  0.00  0.00    +0.000 A 
ENDBRANCH   6   8
ENDBRANCH   1   2
BRANCH   1  15
ATOM     15  N   UNL     1      47.008   6.540  12.975  0.00  0.00    +0.000 N 
ATOM     16  H   UNL     1      47.659   7.274  12.704  0.00  0.00    +0.000 HD
BRANCH  15  20
ATOM     17  C   UNL     1      47.931   4.486  16.470  0.00  0.00    +0.000 A 
ATOM     18  C   UNL     1      48.555   5.706  16.260  0.00  0.00    +0.000 A 
ATOM     19  C   UNL     1      48.276   6.403  15.081  0.00  0.00    +0.000 A 
ATOM     20  C   UNL     1      47.400   5.872  14.134  0.00  0.00    +0.000 A 
ATOM     21  C   UNL     1      46.791   4.657  14.481  0.00  0.00    +0.000 A 
ATOM     22  N   UNL     1      47.042   3.936  15.601  0.00  0.00    +0.000 NA
BRANCH  17  24
ATOM     23  N   UNL     1      47.260   2.806  18.083  0.00  0.00    +0.000 N 
ATOM     24  C   UNL     1      48.228   3.701  17.710  0.00  0.00    +0.000 C 
ATOM     25  O   UNL     1      49.264   3.835  18.347  0.00  0.00    +0.000 OA
ATOM     26  H   UNL     1      47.397   2.235  18.903  0.00  0.00    +0.000 HD
ATOM     27  H   UNL     1      46.420   2.718  17.524  0.00  0.00    +0.000 HD
ENDBRANCH  17  24
ENDBRANCH  15  20
ENDBRANCH   1  15
TORSDOF 5
ENDMDL
MODEL 6
REMARK VINA RESULT:    -6.835      4.273      6.258
REMARK INTER + INTRA:          -9.582
REMARK INTER:                  -8.919
REMARK INTRA:                  -0.662
REMARK UNBOUND:                -0.749
REMARK  Name = 
REMARK  5 active torsions:
REMARK  status: ('A' for Active; 'I' for Inactive)
REMARK    1  A    between atoms: C_2  and  C_4
REMARK    2  A    between atoms: C_7  and  N_8
REMARK    3  A    between atoms: N_8  and  C_9
REMARK    4  A    between atoms: C_9  and  C_10
REMARK    5  A    between atoms: C_14  and  C_15
REMARK                            x       y       z     vdW  Elec       q    Type
REMARK                         _______ _______ _______ _____ _____    ______ ____
ROOT
ATOM      1  C   UNL     1      44.423   5.169  11.822  0.00  0.00    +0.000 C 
ENDROOT
BRANCH   1   2
ATOM      2  C   UNL     1      44.726   6.646  11.963  0.00  0.00    +0.000 A 
ATOM      3  C   UNL     1      45.773   7.096  12.771  0.00  0.00    +0.000 A 
ATOM      4  C   UNL     1      46.040   8.460  12.871  0.00  0.00    +0.000 A 
ATOM      5  C   UNL     1      45.271   9.384  12.153  0.00  0.00    +0.000 A 
ATOM      6  C   UNL     1      44.222   8.968  11.316  0.00  0.00    +0.000 A 
ATOM      7  C   UNL     1      43.956   7.589  11.256  0.00  0.00    +0.000 A 
BRANCH   6   8
ATOM      8  C   UNL     1      43.456   9.926  10.495  0.00  0.00    +0.000 A 
ATOM      9  C   UNL     1      42.072  10.086  10.647  0.00  0.00    +0.000 A 
ATOM     10  N   UNL     1      41.305  10.967   9.959  0.00  0.00    +0.000 NA
ATOM     11  C   UNL     1      41.947  11.754   9.067  0.00  0.00    +0.000 A 
ATOM     12  C   UNL     1      43.310  11.690   8.832  0.00  0.00    +0.000 A 
ATOM     13 CL   UNL     1      44.059  12.736   7.697  0.00  0.00    +0.000 Cl
ATOM     14  C   UNL     1      44.067  10.763   9.548  0.00  0.00    +0.000 A 
ENDBRANCH   6   8
ENDBRANCH   1   2
BRANCH   1  15
ATOM     15  N   UNL     1      43.999   4.907  10.450  0.00  0.00    +0.000 N 
ATOM     16  H   UNL     1      43.558   5.723  10.033  0.00  0.00    +0.000 HD
BRANCH  15  20
ATOM     17  C   UNL     1      46.462   3.093   7.634  0.00  0.00    +0.000 A 
ATOM     18  C   UNL     1      45.647   2.270   8.397  0.00  0.00    +0.000 A 
ATOM     19  C   UNL     1      44.827   2.857   9.364  0.00  0.00    +0.000 A 
ATOM     20  C   UNL     1      44.843   4.239   9.564  0.00  0.00    +0.000 A 
ATOM     21  C   UNL     1      45.669   4.970   8.698  0.00  0.00    +0.000 A 
ATOM     22  N   UNL     1      46.494   4.446   7.758  0.00  0.00    +0.000 NA
BRANCH  17  24
ATOM     23  N   UNL     1      47.259   3.017   5.346  0.00  0.00    +0.000 N 
ATOM     24  C   UNL     1      47.372   2.493   6.606  0.00  0.00    +0.000 C 
ATOM     25  O   UNL     1      48.171   1.604   6.867  0.00  0.00    +0.000 OA
ATOM     26  H   UNL     1      47.848   2.670   4.605  0.00  0.00    +0.000 HD
ATOM     27  H   UNL     1      46.591   3.760   5.172  0.00  0.00    +0.000 HD
ENDBRANCH  17  24
ENDBRANCH  15  20
ENDBRANCH   1  15
TORSDOF 5
ENDMDL
MODEL 7
REMARK VINA RESULT:    -6.773      5.331     10.547
REMARK INTER + INTRA:          -9.502
REMARK INTER:                  -8.833
REMARK INTRA:                  -0.669
REMARK UNBOUND:                -0.749
REMARK  Name = 
REMARK  5 active torsions:
REMARK  status: ('A' for Active; 'I' for Inactive)
REMARK    1  A    between atoms: C_2  and  C_4
REMARK    2  A    between atoms: C_7  and  N_8
REMARK    3  A    between atoms: N_8  and  C_9
REMARK    4  A    between atoms: C_9  and  C_10
REMARK    5  A    between atoms: C_14  and  C_15
REMARK                            x       y       z     vdW  Elec       q    Type
REMARK                         _______ _______ _______ _____ _____    ______ ____
ROOT
ATOM      1  C   UNL     1      47.257   1.970   4.593  0.00  0.00    +0.000 C 
ENDROOT
BRANCH   1   2
ATOM      2  C   UNL     1      46.636   0.859   3.775  0.00  0.00    +0.000 A 
ATOM      3  C   UNL     1      45.689   1.130   2.784  0.00  0.00    +0.000 A 
ATOM      4  C   UNL     1      45.144   0.089   2.035  0.00  0.00    +0.000 A 
ATOM      5  C   UNL     1      45.551  -1.231   2.262  0.00  0.00    +0.000 A 
ATOM      6  C   UNL     1      46.514  -1.542   3.238  0.00  0.00    +0.000 A 
ATOM      7  C   UNL     1      47.025  -0.476   3.998  0.00  0.00    +0.000 A 
BRANCH   6   8
ATOM      8  C   UNL     1      47.007  -2.920   3.433  0.00  0.00    +0.000 A 
ATOM      9  C   UNL     1      47.832  -3.548   2.491  0.00  0.00    +0.000 A 
ATOM     10  N   UNL     1      48.354  -4.793   2.614  0.00  0.00    +0.000 NA
ATOM     11  C   UNL     1      48.050  -5.463   3.749  0.00  0.00    +0.000 A 
ATOM     12  C   UNL     1      47.248  -4.944   4.751  0.00  0.00    +0.000 A 
ATOM     13 CL   UNL     1      46.922  -5.847   6.174  0.00  0.00    +0.000 Cl
ATOM     14  C   UNL     1      46.718  -3.666   4.586  0.00  0.00    +0.000 A 
ENDBRANCH   6   8
ENDBRANCH   1   2
BRANCH   1  15
ATOM     15  N   UNL     1      47.427   1.504   5.966  0.00  0.00    +0.000 N 
ATOM     16  H   UNL     1      48.411   1.410   6.209  0.00  0.00    +0.000 HD
BRANCH  15  20
ATOM     17  C   UNL     1      45.018   2.920   9.044  0.00  0.00    +0.000 A 
ATOM     18  C   UNL     1      45.346   3.805   8.028  0.00  0.00    +0.000 A 
ATOM     19  C   UNL     1      46.173   3.356   6.995  0.00  0.00    +0.000 A 
ATOM     20  C   UNL     1      46.666   2.051   6.998  0.00  0.00    +0.000 A 
ATOM     21  C   UNL     1      46.224   1.234   8.049  0.00  0.00    +0.000 A 
ATOM     22  N   UNL     1      45.438   1.628   9.082  0.00  0.00    +0.000 NA
BRANCH  17  24
ATOM     23  N   UNL     1      43.760   2.394  11.048  0.00  0.00    +0.000 N 
ATOM     24  C   UNL     1      44.155   3.377  10.180  0.00  0.00    +0.000 C 
ATOM     25  O   UNL     1      43.829   4.546  10.336  0.00  0.00    +0.000 OA
ATOM     26  H   UNL     1      43.186   2.629  11.843  0.00  0.00    +0.000 HD
ATOM     27  H   UNL     1      44.059   1.438  10.890  0.00  0.00    +0.000 HD
ENDBRANCH  17  24
ENDBRANCH  15  20
ENDBRANCH   1  15
TORSDOF 5
ENDMDL
MODEL 8
REMARK VINA RESULT:    -6.648      3.810      7.956
REMARK INTER + INTRA:          -9.341
REMARK INTER:                  -8.735
REMARK INTRA:                  -0.606
REMARK UNBOUND:                -0.749
REMARK  Name = 
REMARK  5 active torsions:
REMARK  status: ('A' for Active; 'I' for Inactive)
REMARK    1  A    between atoms: C_2  and  C_4
REMARK    2  A    between atoms: C_7  and  N_8
REMARK    3  A    between atoms: N_8  and  C_9
REMARK    4  A    between atoms: C_9  and  C_10
REMARK    5  A    between atoms: C_14  and  C_15
REMARK                            x       y       z     vdW  Elec       q    Type
REMARK                         _______ _______ _______ _____ _____    ______ ____
ROOT
ATOM      1  C   UNL     1      48.374   7.687  13.401  0.00  0.00    +0.000 C 
ENDROOT
BRANCH   1   2
ATOM      2  C   UNL     1      47.048   7.623  12.673  0.00  0.00    +0.000 A 
ATOM      3  C   UNL     1      46.178   8.716  12.655  0.00  0.00    +0.000 A 
ATOM      4  C   UNL     1      44.970   8.636  11.964  0.00  0.00    +0.000 A 
ATOM      5  C   UNL     1      44.629   7.467  11.275  0.00  0.00    +0.000 A 
ATOM      6  C   UNL     1      45.486   6.353  11.254  0.00  0.00    +0.000 A 
ATOM      7  C   UNL     1      46.684   6.451  11.983  0.00  0.00    +0.000 A 
BRANCH   6   8
ATOM      8  C   UNL     1      45.172   5.144  10.467  0.00  0.00    +0.000 A 
ATOM      9  C   UNL     1      44.266   4.180  10.927  0.00  0.00    +0.000 A 
ATOM     10  N   UNL     1      43.898   3.065  10.249  0.00  0.00    +0.000 NA
ATOM     11  C   UNL     1      44.454   2.892   9.028  0.00  0.00    +0.000 A 
ATOM     12  C   UNL     1      45.359   3.778   8.469  0.00  0.00    +0.000 A 
ATOM     13 CL   UNL     1      46.009   3.502   6.905  0.00  0.00    +0.000 Cl
ATOM     14  C   UNL     1      45.724   4.908   9.199  0.00  0.00    +0.000 A 
ENDBRANCH   6   8
ENDBRANCH   1   2
BRANCH   1  15
ATOM     15  N   UNL     1      48.123   7.624  14.838  0.00  0.00    +0.000 N 
ATOM     16  H   UNL     1      47.196   7.974  15.070  0.00  0.00    +0.000 HD
BRANCH  15  20
ATOM     17  C   UNL     1      48.908   4.194  17.051  0.00  0.00    +0.000 A 
ATOM     18  C   UNL     1      49.699   5.306  17.292  0.00  0.00    +0.000 A 
ATOM     19  C   UNL     1      49.467   6.463  16.543  0.00  0.00    +0.000 A 
ATOM     20  C   UNL     1      48.470   6.488  15.567  0.00  0.00    +0.000 A 
ATOM     21  C   UNL     1      47.702   5.320  15.451  0.00  0.00    +0.000 A 
ATOM     22  N   UNL     1      47.900   4.169  16.140  0.00  0.00    +0.000 NA
BRANCH  17  24
ATOM     23  N   UNL     1      48.448   2.812  18.989  0.00  0.00    +0.000 N 
ATOM     24  C   UNL     1      49.148   2.929  17.817  0.00  0.00    +0.000 C 
ATOM     25  O   UNL     1      49.907   2.052  17.428  0.00  0.00    +0.000 OA
ATOM     26  H   UNL     1      48.551   1.982  19.552  0.00  0.00    +0.000 HD
ATOM     27  H   UNL     1      47.821   3.556  19.272  0.00  0.00    +0.000 HD
ENDBRANCH  17  24
ENDBRANCH  15  20
ENDBRANCH   1  15
TORSDOF 5
ENDMDL
MODEL 9
REMARK VINA RESULT:    -6.620      4.390      8.088
REMARK INTER + INTRA:          -9.304
REMARK INTER:                  -8.553
REMARK INTRA:                  -0.751
REMARK UNBOUND:                -0.749
REMARK  Name = 
REMARK  5 active torsions:
REMARK  status: ('A' for Active; 'I' for Inactive)
REMARK    1  A    between atoms: C_2  and  C_4
REMARK    2  A    between atoms: C_7  and  N_8
REMARK    3  A    between atoms: N_8  and  C_9
REMARK    4  A    between atoms: C_9  and  C_10
REMARK    5  A    between atoms: C_14  and  C_15
REMARK                            x       y       z     vdW  Elec       q    Type
REMARK                         _______ _______ _______ _____ _____    ______ ____
ROOT
ATOM      1  C   UNL     1      48.877   6.947  16.244  0.00  0.00    +0.000 C 
ENDROOT
BRANCH   1   2
ATOM      2  C   UNL     1      48.543   6.935  14.767  0.00  0.00    +0.000 A 
ATOM      3  C   UNL     1      49.331   7.622  13.840  0.00  0.00    +0.000 A 
ATOM      4  C   UNL     1      49.010   7.581  12.485  0.00  0.00    +0.000 A 
ATOM      5  C   UNL     1      47.906   6.843  12.043  0.00  0.00    +0.000 A 
ATOM      6  C   UNL     1      47.100   6.124  12.943  0.00  0.00    +0.000 A 
ATOM      7  C   UNL     1      47.429   6.206  14.307  0.00  0.00    +0.000 A 
BRANCH   6   8
ATOM      8  C   UNL     1      45.980   5.281  12.481  0.00  0.00    +0.000 A 
ATOM      9  C   UNL     1      45.121   4.638  13.381  0.00  0.00    +0.000 A 
ATOM     10  N   UNL     1      44.051   3.878  13.037  0.00  0.00    +0.000 NA
ATOM     11  C   UNL     1      43.805   3.752  11.713  0.00  0.00    +0.000 A 
ATOM     12  C   UNL     1      44.581   4.343  10.731  0.00  0.00    +0.000 A 
ATOM     13 CL   UNL     1      44.194   4.154   9.070  0.00  0.00    +0.000 Cl
ATOM     14  C   UNL     1      45.680   5.107  11.121  0.00  0.00    +0.000 A 
ENDBRANCH   6   8
ENDBRANCH   1   2
BRANCH   1  15
ATOM     15  N   UNL     1      48.353   5.728  16.852  0.00  0.00    +0.000 N 
ATOM     16  H   UNL     1      47.463   5.457  16.439  0.00  0.00    +0.000 HD
BRANCH  15  20
ATOM     17  C   UNL     1      51.033   2.602  17.427  0.00  0.00    +0.000 A 
ATOM     18  C   UNL     1      49.722   2.273  17.120  0.00  0.00    +0.000 A 
ATOM     19  C   UNL     1      48.799   3.307  16.944  0.00  0.00    +0.000 A 
ATOM     20  C   UNL     1      49.191   4.639  17.090  0.00  0.00    +0.000 A 
ATOM     21  C   UNL     1      50.553   4.849  17.351  0.00  0.00    +0.000 A 
ATOM     22  N   UNL     1      51.481   3.879  17.547  0.00  0.00    +0.000 NA
BRANCH  17  24
ATOM     23  N   UNL     1      51.529   0.317  18.064  0.00  0.00    +0.000 N 
ATOM     24  C   UNL     1      52.041   1.516  17.648  0.00  0.00    +0.000 C 
ATOM     25  O   UNL     1      53.240   1.678  17.463  0.00  0.00    +0.000 OA
ATOM     26  H   UNL     1      52.147  -0.464  18.222  0.00  0.00    +0.000 HD
ATOM     27  H   UNL     1      50.528   0.220  18.197  0.00  0.00    +0.000 HD
ENDBRANCH  17  24
ENDBRANCH  15  20
ENDBRANCH   1  15
TORSDOF 5
ENDMDL
