MODEL 1
REMARK VINA RESULT:    -8.519      0.000      0.000
REMARK INTER + INTRA:         -12.615
REMARK INTER:                 -11.507
REMARK INTRA:                  -1.108
REMARK UNBOUND:                -1.108
REMARK  Name = 
REMARK  6 active torsions:
REMARK  status: ('A' for Active; 'I' for Inactive)
REMARK    1  A    between atoms: C_2  and  C_19
REMARK    2  A    between atoms: N_3  and  C_4
REMARK    3  A    between atoms: C_4  and  C_5
REMARK    4  A    between atoms: C_8  and  C_9
REMARK    5  A    between atoms: C_9  and  C_10
REMARK    6  A    between atoms: C_10  and  C_11
REMARK                            x       y       z     vdW  Elec       q    Type
REMARK                         _______ _______ _______ _____ _____    ______ ____
ROOT
ATOM      1  O   UNL     1      48.975   6.526  13.151  0.00  0.00    +0.000 OA
ATOM      2  C   UNL     1      48.239   6.644  14.129  0.00  0.00    +0.000 C 
ATOM      3  N   UNL     1      46.965   7.129  14.037  0.00  0.00    +0.000 N 
ATOM      4  H   UNL     1      46.463   7.363  14.886  0.00  0.00    +0.000 HD
ENDROOT
BRANCH   2   5
ATOM      5  C   UNL     1      48.665   6.208  15.466  0.00  0.00    +0.000 A 
ATOM      6  C   UNL     1      49.620   6.932  16.166  0.00  0.00    +0.000 A 
ATOM      7  S   UNL     1      50.006   6.254  17.686  0.00  0.00    +0.000 S 
ATOM      8  C   UNL     1      48.875   5.001  17.480  0.00  0.00    +0.000 A 
ATOM      9  N   UNL     1      48.680   4.063  18.446  0.00  0.00    +0.000 NA
ATOM     10  C   UNL     1      47.761   3.196  18.173  0.00  0.00    +0.000 A 
ATOM     11  N   UNL     1      47.025   3.178  17.018  0.00  0.00    +0.000 N 
ATOM     12  C   UNL     1      47.240   4.054  15.986  0.00  0.00    +0.000 A 
ATOM     13  O   UNL     1      46.665   3.919  14.908  0.00  0.00    +0.000 OA
ATOM     14  C   UNL     1      48.229   5.081  16.258  0.00  0.00    +0.000 A 
ATOM     15  H   UNL     1      46.342   2.454  16.851  0.00  0.00    +0.000 HD
ENDBRANCH   2   5
BRANCH   3  16
ATOM     16  C   UNL     1      46.405   7.631  12.807  0.00  0.00    +0.000 C 
BRANCH  16  17
ATOM     17  C   UNL     1      45.831   6.531  11.964  0.00  0.00    +0.000 A 
ATOM     18  C   UNL     1      44.898   5.631  12.474  0.00  0.00    +0.000 A 
ATOM     19  C   UNL     1      44.408   4.609  11.664  0.00  0.00    +0.000 A 
ATOM     20  C   UNL     1      44.822   4.525  10.335  0.00  0.00    +0.000 A 
ATOM     21  N   UNL     1      45.725   5.396   9.822  0.00  0.00    +0.000 NA
ATOM     22  C   UNL     1      46.202   6.371  10.636  0.00  0.00    +0.000 A 
BRANCH  20  23
ATOM     23  C   UNL     1      44.326   3.444   9.397  0.00  0.00    +0.000 C 
BRANCH  23  24
ATOM     24  C   UNL     1      45.266   2.241   9.283  0.00  0.00    +0.000 C 
BRANCH  24  25
ATOM     25  C   UNL     1      46.055   2.178   7.999  0.00  0.00    +0.000 A 
ATOM     26  C   UNL     1      46.729   1.001   7.644  0.00  0.00    +0.000 A 
ATOM     27  C   UNL     1      47.377   0.900   6.413  0.00  0.00    +0.000 A 
ATOM     28  C   UNL     1      47.367   1.978   5.530  0.00  0.00    +0.000 A 
ATOM     29  C   UNL     1      46.724   3.163   5.885  0.00  0.00    +0.000 A 
ATOM     30  C   UNL     1      46.075   3.266   7.118  0.00  0.00    +0.000 A 
ENDBRANCH  24  25
ENDBRANCH  23  24
ENDBRANCH  20  23
ENDBRANCH  16  17
ENDBRANCH   3  16
TORSDOF 6
ENDMDL
MODEL 2
REMARK VINA RESULT:    -7.879      1.809      2.461
REMARK INTER + INTRA:         -11.750
REMARK INTER:                 -10.751
REMARK INTRA:                  -1.000
REMARK UNBOUND:                -1.108
REMARK  Name = 
REMARK  6 active torsions:
REMARK  status: ('A' for Active; 'I' for Inactive)
REMARK    1  A    between atoms: C_2  and  C_19
REMARK    2  A    between atoms: N_3  and  C_4
REMARK    3  A    between atoms: C_4  and  C_5
REMARK    4  A    between atoms: C_8  and  C_9
REMARK    5  A    between atoms: C_9  and  C_10
REMARK    6  A    between atoms: C_10  and  C_11
REMARK                            x       y       z     vdW  Elec       q    Type
REMARK                         _______ _______ _______ _____ _____    ______ ____
ROOT
ATOM      1  O   UNL     1      50.346   6.818  15.396  0.00  0.00    +0.000 OA
ATOM      2  C   UNL     1      49.185   6.970  15.773  0.00  0.00    +0.000 C 
ATOM      3  N   UNL     1      48.133   7.046  14.904  0.00  0.00    +0.000 N 
ATOM      4  H   UNL     1      47.226   7.337  15.250  0.00  0.00    +0.000 HD
ENDROOT
BRANCH   2   5
ATOM      5  C   UNL     1      48.844   7.019  17.200  0.00  0.00    +0.000 A 
ATOM      6  C   UNL     1      48.391   8.200  17.772  0.00  0.00    +0.000 A 
ATOM      7  S   UNL     1      48.075   8.067  19.445  0.00  0.00    +0.000 S 
ATOM      8  C   UNL     1      48.483   6.415  19.451  0.00  0.00    +0.000 A 
ATOM      9  N   UNL     1      48.404   5.675  20.589  0.00  0.00    +0.000 NA
ATOM     10  C   UNL     1      48.704   4.427  20.438  0.00  0.00    +0.000 A 
ATOM     11  N   UNL     1      49.082   3.854  19.253  0.00  0.00    +0.000 N 
ATOM     12  C   UNL     1      49.250   4.575  18.099  0.00  0.00    +0.000 A 
ATOM     13  O   UNL     1      49.732   4.060  17.092  0.00  0.00    +0.000 OA
ATOM     14  C   UNL     1      48.881   5.975  18.201  0.00  0.00    +0.000 A 
ATOM     15  H   UNL     1      49.334   2.878  19.207  0.00  0.00    +0.000 HD
ENDBRANCH   2   5
BRANCH   3  16
ATOM     16  C   UNL     1      48.299   7.048  13.472  0.00  0.00    +0.000 C 
BRANCH  16  17
ATOM     17  C   UNL     1      47.250   6.225  12.786  0.00  0.00    +0.000 A 
ATOM     18  C   UNL     1      46.672   6.631  11.585  0.00  0.00    +0.000 A 
ATOM     19  C   UNL     1      45.683   5.848  10.993  0.00  0.00    +0.000 A 
ATOM     20  C   UNL     1      45.315   4.640  11.585  0.00  0.00    +0.000 A 
ATOM     21  N   UNL     1      45.871   4.228  12.750  0.00  0.00    +0.000 NA
ATOM     22  C   UNL     1      46.819   5.017  13.317  0.00  0.00    +0.000 A 
BRANCH  20  23
ATOM     23  C   UNL     1      44.252   3.736  10.994  0.00  0.00    +0.000 C 
BRANCH  23  24
ATOM     24  C   UNL     1      44.072   3.897   9.481  0.00  0.00    +0.000 C 
BRANCH  24  25
ATOM     25  C   UNL     1      45.101   3.178   8.645  0.00  0.00    +0.000 A 
ATOM     26  C   UNL     1      45.895   3.893   7.737  0.00  0.00    +0.000 A 
ATOM     27  C   UNL     1      46.915   3.255   7.033  0.00  0.00    +0.000 A 
ATOM     28  C   UNL     1      47.146   1.893   7.222  0.00  0.00    +0.000 A 
ATOM     29  C   UNL     1      46.344   1.167   8.101  0.00  0.00    +0.000 A 
ATOM     30  C   UNL     1      45.321   1.805   8.806  0.00  0.00    +0.000 A 
ENDBRANCH  24  25
ENDBRANCH  23  24
ENDBRANCH  20  23
ENDBRANCH  16  17
ENDBRANCH   3  16
TORSDOF 6
ENDMDL
MODEL 3
REMARK VINA RESULT:    -7.842      1.721      2.481
REMARK INTER + INTRA:         -11.700
REMARK INTER:                 -10.977
REMARK INTRA:                  -0.723
REMARK UNBOUND:                -1.108
REMARK  Name = 
REMARK  6 active torsions:
REMARK  status: ('A' for Active; 'I' for Inactive)
REMARK    1  A    between atoms: C_2  and  C_19
REMARK    2  A    between atoms: N_3  and  C_4
REMARK    3  A    between atoms: C_4  and  C_5
REMARK    4  A    between atoms: C_8  and  C_9
REMARK    5  A    between atoms: C_9  and  C_10
REMARK    6  A    between atoms: C_10  and  C_11
REMARK                            x       y       z     vdW  Elec       q    Type
REMARK                         _______ _______ _______ _____ _____    ______ ____
ROOT
ATOM      1  O   UNL     1      46.735   3.119  13.748  0.00  0.00    +0.000 OA
ATOM      2  C   UNL     1      46.454   4.262  14.102  0.00  0.00    +0.000 C 
ATOM      3  N   UNL     1      45.243   4.839  13.837  0.00  0.00    +0.000 N 
ATOM      4  H   UNL     1      45.123   5.831  14.001  0.00  0.00    +0.000 HD
ENDROOT
BRANCH   2   5
ATOM      5  C   UNL     1      47.389   5.069  14.897  0.00  0.00    +0.000 A 
ATOM      6  C   UNL     1      48.078   6.121  14.311  0.00  0.00    +0.000 A 
ATOM      7  S   UNL     1      49.139   6.921  15.385  0.00  0.00    +0.000 S 
ATOM      8  C   UNL     1      48.674   5.921  16.681  0.00  0.00    +0.000 A 
ATOM      9  N   UNL     1      49.198   6.091  17.924  0.00  0.00    +0.000 NA
ATOM     10  C   UNL     1      48.724   5.289  18.820  0.00  0.00    +0.000 A 
ATOM     11  N   UNL     1      47.779   4.327  18.583  0.00  0.00    +0.000 N 
ATOM     12  C   UNL     1      47.280   4.068  17.332  0.00  0.00    +0.000 A 
ATOM     13  O   UNL     1      46.544   3.104  17.129  0.00  0.00    +0.000 OA
ATOM     14  C   UNL     1      47.743   4.972  16.296  0.00  0.00    +0.000 A 
ATOM     15  H   UNL     1      47.471   3.710  19.320  0.00  0.00    +0.000 HD
ENDBRANCH   2   5
BRANCH   3  16
ATOM     16  C   UNL     1      44.228   4.196  13.040  0.00  0.00    +0.000 C 
BRANCH  16  17
ATOM     17  C   UNL     1      44.602   4.152  11.588  0.00  0.00    +0.000 A 
ATOM     18  C   UNL     1      45.219   5.231  10.959  0.00  0.00    +0.000 A 
ATOM     19  C   UNL     1      45.527   5.157   9.602  0.00  0.00    +0.000 A 
ATOM     20  C   UNL     1      45.257   3.984   8.898  0.00  0.00    +0.000 A 
ATOM     21  N   UNL     1      44.662   2.923   9.496  0.00  0.00    +0.000 NA
ATOM     22  C   UNL     1      44.355   3.026  10.814  0.00  0.00    +0.000 A 
BRANCH  20  23
ATOM     23  C   UNL     1      45.571   3.832   7.423  0.00  0.00    +0.000 C 
BRANCH  23  24
ATOM     24  C   UNL     1      46.984   3.314   7.140  0.00  0.00    +0.000 C 
BRANCH  24  25
ATOM     25  C   UNL     1      47.047   2.159   6.170  0.00  0.00    +0.000 A 
ATOM     26  C   UNL     1      47.189   0.848   6.646  0.00  0.00    +0.000 A 
ATOM     27  C   UNL     1      47.148  -0.232   5.766  0.00  0.00    +0.000 A 
ATOM     28  C   UNL     1      46.975  -0.013   4.400  0.00  0.00    +0.000 A 
ATOM     29  C   UNL     1      46.861   1.288   3.914  0.00  0.00    +0.000 A 
ATOM     30  C   UNL     1      46.903   2.372   4.794  0.00  0.00    +0.000 A 
ENDBRANCH  24  25
ENDBRANCH  23  24
ENDBRANCH  20  23
ENDBRANCH  16  17
ENDBRANCH   3  16
TORSDOF 6
ENDMDL
MODEL 4
REMARK VINA RESULT:    -7.801      2.765      3.640
REMARK INTER + INTRA:         -11.645
REMARK INTER:                 -10.493
REMARK INTRA:                  -1.152
REMARK UNBOUND:                -1.108
REMARK  Name = 
REMARK  6 active torsions:
REMARK  status: ('A' for Active; 'I' for Inactive)
REMARK    1  A    between atoms: C_2  and  C_19
REMARK    2  A    between atoms: N_3  and  C_4
REMARK    3  A    between atoms: C_4  and  C_5
REMARK    4  A    between atoms: C_8  and  C_9
REMARK    5  A    between atoms: C_9  and  C_10
REMARK    6  A    between atoms: C_10  and  C_11
REMARK                            x       y       z     vdW  Elec       q    Type
REMARK                         _______ _______ _______ _____ _____    ______ ____
ROOT
ATOM      1  O   UNL     1      49.948   5.581  16.403  0.00  0.00    +0.000 OA
ATOM      2  C   UNL     1      48.899   6.180  16.635  0.00  0.00    +0.000 C 
ATOM      3  N   UNL     1      48.063   6.612  15.644  0.00  0.00    +0.000 N 
ATOM      4  H   UNL     1      47.304   7.241  15.878  0.00  0.00    +0.000 HD
ENDROOT
BRANCH   2   5
ATOM      5  C   UNL     1      48.442   6.418  18.010  0.00  0.00    +0.000 A 
ATOM      6  C   UNL     1      48.392   5.373  18.922  0.00  0.00    +0.000 A 
ATOM      7  S   UNL     1      47.807   5.839  20.458  0.00  0.00    +0.000 S 
ATOM      8  C   UNL     1      47.648   7.461  19.971  0.00  0.00    +0.000 A 
ATOM      9  N   UNL     1      47.209   8.416  20.834  0.00  0.00    +0.000 NA
ATOM     10  C   UNL     1      47.178   9.610  20.341  0.00  0.00    +0.000 A 
ATOM     11  N   UNL     1      47.538   9.935  19.060  0.00  0.00    +0.000 N 
ATOM     12  C   UNL     1      47.912   8.996  18.133  0.00  0.00    +0.000 A 
ATOM     13  O   UNL     1      48.087   9.302  16.955  0.00  0.00    +0.000 OA
ATOM     14  C   UNL     1      48.011   7.643  18.647  0.00  0.00    +0.000 A 
ATOM     15  H   UNL     1      47.462  10.884  18.725  0.00  0.00    +0.000 HD
ENDBRANCH   2   5
BRANCH   3  16
ATOM     16  C   UNL     1      48.379   6.488  14.243  0.00  0.00    +0.000 C 
BRANCH  16  17
ATOM     17  C   UNL     1      47.328   5.720  13.498  0.00  0.00    +0.000 A 
ATOM     18  C   UNL     1      46.705   6.243  12.368  0.00  0.00    +0.000 A 
ATOM     19  C   UNL     1      45.716   5.506  11.719  0.00  0.00    +0.000 A 
ATOM     20  C   UNL     1      45.393   4.230  12.182  0.00  0.00    +0.000 A 
ATOM     21  N   UNL     1      45.994   3.704  13.276  0.00  0.00    +0.000 NA
ATOM     22  C   UNL     1      46.941   4.449  13.902  0.00  0.00    +0.000 A 
BRANCH  20  23
ATOM     23  C   UNL     1      44.334   3.372  11.522  0.00  0.00    +0.000 C 
BRANCH  23  24
ATOM     24  C   UNL     1      44.003   3.788  10.086  0.00  0.00    +0.000 C 
BRANCH  24  25
ATOM     25  C   UNL     1      44.965   3.272   9.044  0.00  0.00    +0.000 A 
ATOM     26  C   UNL     1      45.605   4.166   8.174  0.00  0.00    +0.000 A 
ATOM     27  C   UNL     1      46.570   3.712   7.276  0.00  0.00    +0.000 A 
ATOM     28  C   UNL     1      46.897   2.358   7.231  0.00  0.00    +0.000 A 
ATOM     29  C   UNL     1      46.246   1.456   8.072  0.00  0.00    +0.000 A 
ATOM     30  C   UNL     1      45.279   1.910   8.971  0.00  0.00    +0.000 A 
ENDBRANCH  24  25
ENDBRANCH  23  24
ENDBRANCH  20  23
ENDBRANCH  16  17
ENDBRANCH   3  16
TORSDOF 6
ENDMDL
MODEL 5
REMARK VINA RESULT:    -7.494      2.359      3.140
REMARK INTER + INTRA:         -11.230
REMARK INTER:                 -10.320
REMARK INTRA:                  -0.910
REMARK UNBOUND:                -1.108
REMARK  Name = 
REMARK  6 active torsions:
REMARK  status: ('A' for Active; 'I' for Inactive)
REMARK    1  A    between atoms: C_2  and  C_19
REMARK    2  A    between atoms: N_3  and  C_4
REMARK    3  A    between atoms: C_4  and  C_5
REMARK    4  A    between atoms: C_8  and  C_9
REMARK    5  A    between atoms: C_9  and  C_10
REMARK    6  A    between atoms: C_10  and  C_11
REMARK                            x       y       z     vdW  Elec       q    Type
REMARK                         _______ _______ _______ _____ _____    ______ ____
ROOT
ATOM      1  O   UNL     1      48.123   5.920  17.587  0.00  0.00    +0.000 OA
ATOM      2  C   UNL     1      49.106   5.747  16.869  0.00  0.00    +0.000 C 
ATOM      3  N   UNL     1      49.185   6.239  15.596  0.00  0.00    +0.000 N 
ATOM      4  H   UNL     1      49.937   5.929  14.993  0.00  0.00    +0.000 HD
ENDROOT
BRANCH   2   5
ATOM      5  C   UNL     1      50.299   5.044  17.360  0.00  0.00    +0.000 A 
ATOM      6  C   UNL     1      51.308   5.745  18.007  0.00  0.00    +0.000 A 
ATOM      7  S   UNL     1      52.624   4.762  18.476  0.00  0.00    +0.000 S 
ATOM      8  C   UNL     1      51.867   3.361  17.878  0.00  0.00    +0.000 A 
ATOM      9  N   UNL     1      52.459   2.141  17.985  0.00  0.00    +0.000 NA
ATOM     10  C   UNL     1      51.753   1.161  17.526  0.00  0.00    +0.000 A 
ATOM     11  N   UNL     1      50.512   1.292  16.961  0.00  0.00    +0.000 N 
ATOM     12  C   UNL     1      49.911   2.507  16.761  0.00  0.00    +0.000 A 
ATOM     13  O   UNL     1      48.866   2.601  16.121  0.00  0.00    +0.000 OA
ATOM     14  C   UNL     1      50.639   3.640  17.303  0.00  0.00    +0.000 A 
ATOM     15  H   UNL     1      50.024   0.489  16.592  0.00  0.00    +0.000 HD
ENDBRANCH   2   5
BRANCH   3  16
ATOM     16  C   UNL     1      48.091   6.921  14.952  0.00  0.00    +0.000 C 
BRANCH  16  17
ATOM     17  C   UNL     1      47.282   5.995  14.093  0.00  0.00    +0.000 A 
ATOM     18  C   UNL     1      46.939   6.327  12.784  0.00  0.00    +0.000 A 
ATOM     19  C   UNL     1      46.165   5.449  12.027  0.00  0.00    +0.000 A 
ATOM     20  C   UNL     1      45.782   4.224  12.574  0.00  0.00    +0.000 A 
ATOM     21  N   UNL     1      46.113   3.883  13.843  0.00  0.00    +0.000 NA
ATOM     22  C   UNL     1      46.850   4.764  14.566  0.00  0.00    +0.000 A 
BRANCH  20  23
ATOM     23  C   UNL     1      44.947   3.219  11.806  0.00  0.00    +0.000 C 
BRANCH  23  24
ATOM     24  C   UNL     1      44.401   3.751  10.478  0.00  0.00    +0.000 C 
BRANCH  24  25
ATOM     25  C   UNL     1      45.187   3.330   9.261  0.00  0.00    +0.000 A 
ATOM     26  C   UNL     1      45.716   4.298   8.396  0.00  0.00    +0.000 A 
ATOM     27  C   UNL     1      46.527   3.923   7.325  0.00  0.00    +0.000 A 
ATOM     28  C   UNL     1      46.810   2.576   7.103  0.00  0.00    +0.000 A 
ATOM     29  C   UNL     1      46.266   1.604   7.941  0.00  0.00    +0.000 A 
ATOM     30  C   UNL     1      45.452   1.978   9.013  0.00  0.00    +0.000 A 
ENDBRANCH  24  25
ENDBRANCH  23  24
ENDBRANCH  20  23
ENDBRANCH  16  17
ENDBRANCH   3  16
TORSDOF 6
ENDMDL
MODEL 6
REMARK VINA RESULT:    -7.460      1.469      2.095
REMARK INTER + INTRA:         -11.185
REMARK INTER:                 -10.015
REMARK INTRA:                  -1.171
REMARK UNBOUND:                -1.108
REMARK  Name = 
REMARK  6 active torsions:
REMARK  status: ('A' for Active; 'I' for Inactive)
REMARK    1  A    between atoms: C_2  and  C_19
REMARK    2  A    between atoms: N_3  and  C_4
REMARK    3  A    between atoms: C_4  and  C_5
REMARK    4  A    between atoms: C_8  and  C_9
REMARK    5  A    between atoms: C_9  and  C_10
REMARK    6  A    between atoms: C_10  and  C_11
REMARK                            x       y       z     vdW  Elec       q    Type
REMARK                         _______ _______ _______ _____ _____    ______ ____
ROOT
ATOM      1  O   UNL     1      48.792   8.277  12.872  0.00  0.00    +0.000 OA
ATOM      2  C   UNL     1      48.221   8.226  13.959  0.00  0.00    +0.000 C 
ATOM      3  N   UNL     1      46.859   8.197  14.075  0.00  0.00    +0.000 N 
ATOM      4  H   UNL     1      46.439   8.324  14.988  0.00  0.00    +0.000 HD
ENDROOT
BRANCH   2   5
ATOM      5  C   UNL     1      48.974   8.131  15.216  0.00  0.00    +0.000 A 
ATOM      6  C   UNL     1      49.671   9.230  15.700  0.00  0.00    +0.000 A 
ATOM      7  S   UNL     1      50.508   8.916  17.155  0.00  0.00    +0.000 S 
ATOM      8  C   UNL     1      49.927   7.319  17.215  0.00  0.00    +0.000 A 
ATOM      9  N   UNL     1      50.252   6.490  18.242  0.00  0.00    +0.000 NA
ATOM     10  C   UNL     1      49.707   5.320  18.179  0.00  0.00    +0.000 A 
ATOM     11  N   UNL     1      48.872   4.902  17.178  0.00  0.00    +0.000 N 
ATOM     12  C   UNL     1      48.578   5.675  16.084  0.00  0.00    +0.000 A 
ATOM     13  O   UNL     1      47.946   5.217  15.134  0.00  0.00    +0.000 OA
ATOM     14  C   UNL     1      49.127   7.018  16.126  0.00  0.00    +0.000 A 
ATOM     15  H   UNL     1      48.501   3.963  17.170  0.00  0.00    +0.000 HD
ENDBRANCH   2   5
BRANCH   3  16
ATOM     16  C   UNL     1      45.974   8.316  12.944  0.00  0.00    +0.000 C 
BRANCH  16  17
ATOM     17  C   UNL     1      45.676   6.984  12.324  0.00  0.00    +0.000 A 
ATOM     18  C   UNL     1      45.748   6.786  10.947  0.00  0.00    +0.000 A 
ATOM     19  C   UNL     1      45.439   5.538  10.409  0.00  0.00    +0.000 A 
ATOM     20  C   UNL     1      45.106   4.486  11.261  0.00  0.00    +0.000 A 
ATOM     21  N   UNL     1      45.036   4.659  12.603  0.00  0.00    +0.000 NA
ATOM     22  C   UNL     1      45.323   5.889  13.101  0.00  0.00    +0.000 A 
BRANCH  20  23
ATOM     23  C   UNL     1      44.765   3.102  10.746  0.00  0.00    +0.000 C 
BRANCH  23  24
ATOM     24  C   UNL     1      44.388   3.067   9.262  0.00  0.00    +0.000 C 
BRANCH  24  25
ATOM     25  C   UNL     1      45.492   2.603   8.344  0.00  0.00    +0.000 A 
ATOM     26  C   UNL     1      46.161   3.525   7.527  0.00  0.00    +0.000 A 
ATOM     27  C   UNL     1      47.248   3.124   6.751  0.00  0.00    +0.000 A 
ATOM     28  C   UNL     1      47.670   1.796   6.775  0.00  0.00    +0.000 A 
ATOM     29  C   UNL     1      46.993   0.865   7.562  0.00  0.00    +0.000 A 
ATOM     30  C   UNL     1      45.904   1.265   8.340  0.00  0.00    +0.000 A 
ENDBRANCH  24  25
ENDBRANCH  23  24
ENDBRANCH  20  23
ENDBRANCH  16  17
ENDBRANCH   3  16
TORSDOF 6
ENDMDL
MODEL 7
REMARK VINA RESULT:    -7.225      1.961      3.488
REMARK INTER + INTRA:         -10.868
REMARK INTER:                  -9.747
REMARK INTRA:                  -1.121
REMARK UNBOUND:                -1.108
REMARK  Name = 
REMARK  6 active torsions:
REMARK  status: ('A' for Active; 'I' for Inactive)
REMARK    1  A    between atoms: C_2  and  C_19
REMARK    2  A    between atoms: N_3  and  C_4
REMARK    3  A    between atoms: C_4  and  C_5
REMARK    4  A    between atoms: C_8  and  C_9
REMARK    5  A    between atoms: C_9  and  C_10
REMARK    6  A    between atoms: C_10  and  C_11
REMARK                            x       y       z     vdW  Elec       q    Type
REMARK                         _______ _______ _______ _____ _____    ______ ____
ROOT
ATOM      1  O   UNL     1      48.848   4.188  16.808  0.00  0.00    +0.000 OA
ATOM      2  C   UNL     1      48.534   5.263  16.298  0.00  0.00    +0.000 C 
ATOM      3  N   UNL     1      47.447   5.400  15.481  0.00  0.00    +0.000 N 
ATOM      4  H   UNL     1      47.329   6.260  14.957  0.00  0.00    +0.000 HD
ENDROOT
BRANCH   2   5
ATOM      5  C   UNL     1      49.280   6.494  16.587  0.00  0.00    +0.000 A 
ATOM      6  C   UNL     1      49.539   6.865  17.900  0.00  0.00    +0.000 A 
ATOM      7  S   UNL     1      50.390   8.339  18.034  0.00  0.00    +0.000 S 
ATOM      8  C   UNL     1      50.487   8.506  16.344  0.00  0.00    +0.000 A 
ATOM      9  N   UNL     1      51.125   9.564  15.776  0.00  0.00    +0.000 NA
ATOM     10  C   UNL     1      51.157   9.540  14.485  0.00  0.00    +0.000 A 
ATOM     11  N   UNL     1      50.601   8.558  13.710  0.00  0.00    +0.000 N 
ATOM     12  C   UNL     1      49.882   7.514  14.234  0.00  0.00    +0.000 A 
ATOM     13  O   UNL     1      49.274   6.733  13.505  0.00  0.00    +0.000 OA
ATOM     14  C   UNL     1      49.855   7.466  15.684  0.00  0.00    +0.000 A 
ATOM     15  H   UNL     1      50.633   8.613  12.702  0.00  0.00    +0.000 HD
ENDBRANCH   2   5
BRANCH   3  16
ATOM     16  C   UNL     1      46.630   4.286  15.071  0.00  0.00    +0.000 C 
BRANCH  16  17
ATOM     17  C   UNL     1      46.210   4.399  13.636  0.00  0.00    +0.000 A 
ATOM     18  C   UNL     1      45.786   3.288  12.909  0.00  0.00    +0.000 A 
ATOM     19  C   UNL     1      45.428   3.432  11.570  0.00  0.00    +0.000 A 
ATOM     20  C   UNL     1      45.453   4.696  10.984  0.00  0.00    +0.000 A 
ATOM     21  N   UNL     1      45.858   5.788  11.677  0.00  0.00    +0.000 NA
ATOM     22  C   UNL     1      46.219   5.619  12.974  0.00  0.00    +0.000 A 
BRANCH  20  23
ATOM     23  C   UNL     1      45.071   4.927   9.536  0.00  0.00    +0.000 C 
BRANCH  23  24
ATOM     24  C   UNL     1      44.552   3.675   8.823  0.00  0.00    +0.000 C 
BRANCH  24  25
ATOM     25  C   UNL     1      45.606   2.891   8.080  0.00  0.00    +0.000 A 
ATOM     26  C   UNL     1      46.439   3.535   7.154  0.00  0.00    +0.000 A 
ATOM     27  C   UNL     1      47.480   2.842   6.537  0.00  0.00    +0.000 A 
ATOM     28  C   UNL     1      47.693   1.497   6.832  0.00  0.00    +0.000 A 
ATOM     29  C   UNL     1      46.854   0.840   7.731  0.00  0.00    +0.000 A 
ATOM     30  C   UNL     1      45.809   1.532   8.349  0.00  0.00    +0.000 A 
ENDBRANCH  24  25
ENDBRANCH  23  24
ENDBRANCH  20  23
ENDBRANCH  16  17
ENDBRANCH   3  16
TORSDOF 6
ENDMDL
MODEL 8
REMARK VINA RESULT:    -7.125      3.086      4.934
REMARK INTER + INTRA:         -10.732
REMARK INTER:                  -9.748
REMARK INTRA:                  -0.984
REMARK UNBOUND:                -1.108
REMARK  Name = 
REMARK  6 active torsions:
REMARK  status: ('A' for Active; 'I' for Inactive)
REMARK    1  A    between atoms: C_2  and  C_19
REMARK    2  A    between atoms: N_3  and  C_4
REMARK    3  A    between atoms: C_4  and  C_5
REMARK    4  A    between atoms: C_8  and  C_9
REMARK    5  A    between atoms: C_9  and  C_10
REMARK    6  A    between atoms: C_10  and  C_11
REMARK                            x       y       z     vdW  Elec       q    Type
REMARK                         _______ _______ _______ _____ _____    ______ ____
ROOT
ATOM      1  O   UNL     1      49.868   7.241  15.039  0.00  0.00    +0.000 OA
ATOM      2  C   UNL     1      49.567   7.515  13.879  0.00  0.00    +0.000 C 
ATOM      3  N   UNL     1      48.454   7.008  13.268  0.00  0.00    +0.000 N 
ATOM      4  H   UNL     1      48.342   7.129  12.268  0.00  0.00    +0.000 HD
ENDROOT
BRANCH   2   5
ATOM      5  C   UNL     1      50.360   8.463  13.086  0.00  0.00    +0.000 A 
ATOM      6  C   UNL     1      51.747   8.430  13.136  0.00  0.00    +0.000 A 
ATOM      7  S   UNL     1      52.489   9.627  12.170  0.00  0.00    +0.000 S 
ATOM      8  C   UNL     1      50.986  10.196  11.614  0.00  0.00    +0.000 A 
ATOM      9  N   UNL     1      50.906  11.218  10.721  0.00  0.00    +0.000 NA
ATOM     10  C   UNL     1      49.704  11.518  10.355  0.00  0.00    +0.000 A 
ATOM     11  N   UNL     1      48.573  10.892  10.807  0.00  0.00    +0.000 N 
ATOM     12  C   UNL     1      48.599   9.910  11.764  0.00  0.00    +0.000 A 
ATOM     13  O   UNL     1      47.559   9.473  12.254  0.00  0.00    +0.000 OA
ATOM     14  C   UNL     1      49.929   9.501  12.176  0.00  0.00    +0.000 A 
ATOM     15  H   UNL     1      47.658  11.194  10.505  0.00  0.00    +0.000 HD
ENDBRANCH   2   5
BRANCH   3  16
ATOM     16  C   UNL     1      47.590   6.040  13.894  0.00  0.00    +0.000 C 
BRANCH  16  17
ATOM     17  C   UNL     1      46.664   5.395  12.906  0.00  0.00    +0.000 A 
ATOM     18  C   UNL     1      46.133   4.125  13.123  0.00  0.00    +0.000 A 
ATOM     19  C   UNL     1      45.295   3.552  12.168  0.00  0.00    +0.000 A 
ATOM     20  C   UNL     1      44.960   4.276  11.025  0.00  0.00    +0.000 A 
ATOM     21  N   UNL     1      45.463   5.514  10.800  0.00  0.00    +0.000 NA
ATOM     22  C   UNL     1      46.291   6.043  11.736  0.00  0.00    +0.000 A 
BRANCH  20  23
ATOM     23  C   UNL     1      44.050   3.718   9.949  0.00  0.00    +0.000 C 
BRANCH  23  24
ATOM     24  C   UNL     1      44.468   2.336   9.437  0.00  0.00    +0.000 C 
BRANCH  24  25
ATOM     25  C   UNL     1      45.512   2.358   8.347  0.00  0.00    +0.000 A 
ATOM     26  C   UNL     1      45.715   3.522   7.592  0.00  0.00    +0.000 A 
ATOM     27  C   UNL     1      46.743   3.584   6.652  0.00  0.00    +0.000 A 
ATOM     28  C   UNL     1      47.571   2.481   6.450  0.00  0.00    +0.000 A 
ATOM     29  C   UNL     1      47.360   1.310   7.176  0.00  0.00    +0.000 A 
ATOM     30  C   UNL     1      46.330   1.246   8.118  0.00  0.00    +0.000 A 
ENDBRANCH  24  25
ENDBRANCH  23  24
ENDBRANCH  20  23
ENDBRANCH  16  17
ENDBRANCH   3  16
TORSDOF 6
ENDMDL
MODEL 9
REMARK VINA RESULT:    -6.876      3.980     10.180
REMARK INTER + INTRA:         -10.396
REMARK INTER:                  -9.594
REMARK INTRA:                  -0.802
REMARK UNBOUND:                -1.108
REMARK  Name = 
REMARK  6 active torsions:
REMARK  status: ('A' for Active; 'I' for Inactive)
REMARK    1  A    between atoms: C_2  and  C_19
REMARK    2  A    between atoms: N_3  and  C_4
REMARK    3  A    between atoms: C_4  and  C_5
REMARK    4  A    between atoms: C_8  and  C_9
REMARK    5  A    between atoms: C_9  and  C_10
REMARK    6  A    between atoms: C_10  and  C_11
REMARK                            x       y       z     vdW  Elec       q    Type
REMARK                         _______ _______ _______ _____ _____    ______ ____
ROOT
ATOM      1  O   UNL     1      47.212   3.155  13.916  0.00  0.00    +0.000 OA
ATOM      2  C   UNL     1      46.897   4.259  14.356  0.00  0.00    +0.000 C 
ATOM      3  N   UNL     1      47.147   4.635  15.646  0.00  0.00    +0.000 N 
ATOM      4  H   UNL     1      46.721   5.482  16.005  0.00  0.00    +0.000 HD
ENDROOT
BRANCH   2   5
ATOM      5  C   UNL     1      46.278   5.278  13.499  0.00  0.00    +0.000 A 
ATOM      6  C   UNL     1      46.915   6.493  13.285  0.00  0.00    +0.000 A 
ATOM      7  S   UNL     1      46.028   7.557  12.286  0.00  0.00    +0.000 S 
ATOM      8  C   UNL     1      44.790   6.413  12.064  0.00  0.00    +0.000 A 
ATOM      9  N   UNL     1      43.714   6.683  11.278  0.00  0.00    +0.000 NA
ATOM     10  C   UNL     1      42.873   5.708  11.167  0.00  0.00    +0.000 A 
ATOM     11  N   UNL     1      43.007   4.490  11.777  0.00  0.00    +0.000 N 
ATOM     12  C   UNL     1      44.033   4.199  12.639  0.00  0.00    +0.000 A 
ATOM     13  O   UNL     1      44.045   3.152  13.283  0.00  0.00    +0.000 OA
ATOM     14  C   UNL     1      45.034   5.243  12.763  0.00  0.00    +0.000 A 
ATOM     15  H   UNL     1      42.298   3.778  11.675  0.00  0.00    +0.000 HD
ENDBRANCH   2   5
BRANCH   3  16
ATOM     16  C   UNL     1      47.715   3.744  16.626  0.00  0.00    +0.000 C 
BRANCH  16  17
ATOM     17  C   UNL     1      47.836   4.395  17.972  0.00  0.00    +0.000 A 
ATOM     18  C   UNL     1      48.838   4.035  18.870  0.00  0.00    +0.000 A 
ATOM     19  C   UNL     1      48.900   4.647  20.121  0.00  0.00    +0.000 A 
ATOM     20  C   UNL     1      47.984   5.649  20.441  0.00  0.00    +0.000 A 
ATOM     21  N   UNL     1      47.007   6.015  19.577  0.00  0.00    +0.000 NA
ATOM     22  C   UNL     1      46.957   5.391  18.373  0.00  0.00    +0.000 A 
BRANCH  20  23
ATOM     23  C   UNL     1      47.997   6.361  21.779  0.00  0.00    +0.000 C 
BRANCH  23  24
ATOM     24  C   UNL     1      48.661   7.741  21.742  0.00  0.00    +0.000 C 
BRANCH  24  25
ATOM     25  C   UNL     1      47.728   8.879  21.408  0.00  0.00    +0.000 A 
ATOM     26  C   UNL     1      47.845   9.548  20.181  0.00  0.00    +0.000 A 
ATOM     27  C   UNL     1      46.926  10.533  19.821  0.00  0.00    +0.000 A 
ATOM     28  C   UNL     1      45.887  10.866  20.689  0.00  0.00    +0.000 A 
ATOM     29  C   UNL     1      45.778  10.227  21.923  0.00  0.00    +0.000 A 
ATOM     30  C   UNL     1      46.699   9.241  22.285  0.00  0.00    +0.000 A 
ENDBRANCH  24  25
ENDBRANCH  23  24
ENDBRANCH  20  23
ENDBRANCH  16  17
ENDBRANCH   3  16
TORSDOF 6
ENDMDL
