MODEL 1
REMARK VINA RESULT:    -8.370      0.000      0.000
REMARK INTER + INTRA:         -10.437
REMARK INTER:                 -10.327
REMARK INTRA:                  -0.110
REMARK UNBOUND:                -0.110
REMARK  Name = 
REMARK  4 active torsions:
REMARK  status: ('A' for Active; 'I' for Inactive)
REMARK    1  A    between atoms: C_2  and  C_5
REMARK    2  A    between atoms: N_9  and  C_10
REMARK    3  A    between atoms: C_10  and  C_11
REMARK    4  A    between atoms: C_13  and  C_14
REMARK                            x       y       z     vdW  Elec       q    Type
REMARK                         _______ _______ _______ _____ _____    ______ ____
ROOT
ATOM      1  C   UNL     1      43.944   4.867  11.564  0.00  0.00    +0.000 C 
ATOM      2  C   UNL     1      42.640   5.076  12.322  0.00  0.00    +0.000 C 
ATOM      3  C   UNL     1      42.909   5.879  11.092  0.00  0.00    +0.000 C 
ENDROOT
BRANCH   1   8
ATOM      4  C   UNL     1      46.320   2.790   7.554  0.00  0.00    +0.000 A 
ATOM      5  C   UNL     1      46.040   4.071   7.960  0.00  0.00    +0.000 A 
ATOM      6  N   UNL     1      45.305   4.365   9.053  0.00  0.00    +0.000 NA
ATOM      7  C   UNL     1      44.838   3.337   9.778  0.00  0.00    +0.000 A 
ATOM      8  N   UNL     1      44.080   3.555  10.922  0.00  0.00    +0.000 N 
ATOM      9  N   UNL     1      45.054   2.053   9.454  0.00  0.00    +0.000 NA
ATOM     10  C   UNL     1      45.779   1.805   8.343  0.00  0.00    +0.000 A 
ATOM     11  H   UNL     1      44.071   2.718  11.490  0.00  0.00    +0.000 HD
BRANCH   4  13
ATOM     12  F   UNL     1      46.895   3.299   5.302  0.00  0.00    +0.000 F 
ATOM     13  C   UNL     1      47.143   2.479   6.360  0.00  0.00    +0.000 C 
ATOM     14  F   UNL     1      46.949   1.212   5.903  0.00  0.00    +0.000 F 
ATOM     15  F   UNL     1      48.478   2.584   6.606  0.00  0.00    +0.000 F 
ENDBRANCH   4  13
ENDBRANCH   1   8
BRANCH   1  16
ATOM     16  C   UNL     1      45.232   5.475  12.141  0.00  0.00    +0.000 A 
ATOM     17  C   UNL     1      45.711   5.032  13.380  0.00  0.00    +0.000 A 
ATOM     18  C   UNL     1      46.969   5.412  13.864  0.00  0.00    +0.000 A 
ATOM     19  C   UNL     1      47.706   6.287  13.062  0.00  0.00    +0.000 A 
ATOM     20  C   UNL     1      47.158   6.734  11.869  0.00  0.00    +0.000 A 
ATOM     21  N   UNL     1      45.951   6.353  11.400  0.00  0.00    +0.000 NA
BRANCH  18  22
ATOM     22  C   UNL     1      47.484   4.880  15.142  0.00  0.00    +0.000 A 
ATOM     23  C   UNL     1      48.336   5.591  15.975  0.00  0.00    +0.000 A 
ATOM     24  N   UNL     1      48.851   5.132  17.141  0.00  0.00    +0.000 NA
ATOM     25  C   UNL     1      48.477   3.895  17.486  0.00  0.00    +0.000 A 
ATOM     26  N   UNL     1      47.653   3.103  16.791  0.00  0.00    +0.000 NA
ATOM     27  C   UNL     1      47.180   3.620  15.631  0.00  0.00    +0.000 A 
ENDBRANCH  18  22
ENDBRANCH   1  16
TORSDOF 4
ENDMDL
MODEL 2
REMARK VINA RESULT:    -8.092      1.778      3.461
REMARK INTER + INTRA:         -10.095
REMARK INTER:                 -10.096
REMARK INTRA:                   0.002
REMARK UNBOUND:                -0.110
REMARK  Name = 
REMARK  4 active torsions:
REMARK  status: ('A' for Active; 'I' for Inactive)
REMARK    1  A    between atoms: C_2  and  C_5
REMARK    2  A    between atoms: N_9  and  C_10
REMARK    3  A    between atoms: C_10  and  C_11
REMARK    4  A    between atoms: C_13  and  C_14
REMARK                            x       y       z     vdW  Elec       q    Type
REMARK                         _______ _______ _______ _____ _____    ______ ____
ROOT
ATOM      1  C   UNL     1      44.252   4.151  11.519  0.00  0.00    +0.000 C 
ATOM      2  C   UNL     1      42.868   4.296  12.138  0.00  0.00    +0.000 C 
ATOM      3  C   UNL     1      43.277   5.215  11.035  0.00  0.00    +0.000 C 
ENDROOT
BRANCH   1   8
ATOM      4  C   UNL     1      46.424   2.627   7.160  0.00  0.00    +0.000 A 
ATOM      5  C   UNL     1      46.051   3.839   7.688  0.00  0.00    +0.000 A 
ATOM      6  N   UNL     1      45.401   3.974   8.863  0.00  0.00    +0.000 NA
ATOM      7  C   UNL     1      45.121   2.854   9.547  0.00  0.00    +0.000 A 
ATOM      8  N   UNL     1      44.462   2.908  10.769  0.00  0.00    +0.000 N 
ATOM      9  N   UNL     1      45.441   1.627   9.107  0.00  0.00    +0.000 NA
ATOM     10  C   UNL     1      46.074   1.537   7.919  0.00  0.00    +0.000 A 
ATOM     11  H   UNL     1      44.600   2.040  11.269  0.00  0.00    +0.000 HD
BRANCH   4  13
ATOM     12  F   UNL     1      46.900   3.504   5.000  0.00  0.00    +0.000 F 
ATOM     13  C   UNL     1      47.153   2.492   5.876  0.00  0.00    +0.000 C 
ATOM     14  F   UNL     1      46.846   1.342   5.216  0.00  0.00    +0.000 F 
ATOM     15  F   UNL     1      48.504   2.475   6.042  0.00  0.00    +0.000 F 
ENDBRANCH   4  13
ENDBRANCH   1   8
BRANCH   1  16
ATOM     16  C   UNL     1      45.463   4.684  12.300  0.00  0.00    +0.000 A 
ATOM     17  C   UNL     1      46.071   5.880  11.899  0.00  0.00    +0.000 A 
ATOM     18  C   UNL     1      47.052   6.507  12.678  0.00  0.00    +0.000 A 
ATOM     19  C   UNL     1      47.419   5.855  13.859  0.00  0.00    +0.000 A 
ATOM     20  C   UNL     1      46.820   4.645  14.177  0.00  0.00    +0.000 A 
ATOM     21  N   UNL     1      45.864   4.054  13.430  0.00  0.00    +0.000 NA
BRANCH  18  22
ATOM     22  C   UNL     1      47.633   7.802  12.272  0.00  0.00    +0.000 A 
ATOM     23  C   UNL     1      46.927   8.996  12.298  0.00  0.00    +0.000 A 
ATOM     24  N   UNL     1      47.413  10.199  11.910  0.00  0.00    +0.000 NA
ATOM     25  C   UNL     1      48.681  10.197  11.485  0.00  0.00    +0.000 A 
ATOM     26  N   UNL     1      49.484   9.128  11.422  0.00  0.00    +0.000 NA
ATOM     27  C   UNL     1      48.933   7.954  11.816  0.00  0.00    +0.000 A 
ENDBRANCH  18  22
ENDBRANCH   1  16
TORSDOF 4
ENDMDL
MODEL 3
REMARK VINA RESULT:    -7.395      4.165      7.690
REMARK INTER + INTRA:          -9.234
REMARK INTER:                  -8.867
REMARK INTRA:                  -0.367
REMARK UNBOUND:                -0.110
REMARK  Name = 
REMARK  4 active torsions:
REMARK  status: ('A' for Active; 'I' for Inactive)
REMARK    1  A    between atoms: C_2  and  C_5
REMARK    2  A    between atoms: N_9  and  C_10
REMARK    3  A    between atoms: C_10  and  C_11
REMARK    4  A    between atoms: C_13  and  C_14
REMARK                            x       y       z     vdW  Elec       q    Type
REMARK                         _______ _______ _______ _____ _____    ______ ____
ROOT
ATOM      1  C   UNL     1      48.415   7.840  12.720  0.00  0.00    +0.000 C 
ATOM      2  C   UNL     1      49.577   7.240  11.941  0.00  0.00    +0.000 C 
ATOM      3  C   UNL     1      49.331   8.711  11.871  0.00  0.00    +0.000 C 
ENDROOT
BRANCH   1   8
ATOM      4  C   UNL     1      48.018   4.395  16.464  0.00  0.00    +0.000 A 
ATOM      5  C   UNL     1      47.638   4.444  15.145  0.00  0.00    +0.000 A 
ATOM      6  N   UNL     1      47.791   5.534  14.363  0.00  0.00    +0.000 NA
ATOM      7  C   UNL     1      48.355   6.618  14.918  0.00  0.00    +0.000 A 
ATOM      8  N   UNL     1      48.554   7.777  14.178  0.00  0.00    +0.000 N 
ATOM      9  N   UNL     1      48.750   6.664  16.200  0.00  0.00    +0.000 NA
ATOM     10  C   UNL     1      48.562   5.558  16.949  0.00  0.00    +0.000 A 
ATOM     11  H   UNL     1      49.238   8.362  14.641  0.00  0.00    +0.000 HD
BRANCH   4  13
ATOM     12  F   UNL     1      46.563   2.830  17.510  0.00  0.00    +0.000 F 
ATOM     13  C   UNL     1      47.861   3.186  17.308  0.00  0.00    +0.000 C 
ATOM     14  F   UNL     1      48.403   3.337  18.547  0.00  0.00    +0.000 F 
ATOM     15  F   UNL     1      48.466   2.092  16.769  0.00  0.00    +0.000 F 
ENDBRANCH   4  13
ENDBRANCH   1   8
BRANCH   1  16
ATOM     16  C   UNL     1      46.993   7.659  12.167  0.00  0.00    +0.000 A 
ATOM     17  C   UNL     1      46.674   6.505  11.442  0.00  0.00    +0.000 A 
ATOM     18  C   UNL     1      45.356   6.201  11.078  0.00  0.00    +0.000 A 
ATOM     19  C   UNL     1      44.379   7.131  11.444  0.00  0.00    +0.000 A 
ATOM     20  C   UNL     1      44.762   8.284  12.116  0.00  0.00    +0.000 A 
ATOM     21  N   UNL     1      46.032   8.563  12.477  0.00  0.00    +0.000 NA
BRANCH  18  22
ATOM     22  C   UNL     1      45.032   4.945  10.372  0.00  0.00    +0.000 A 
ATOM     23  C   UNL     1      44.272   3.929  10.934  0.00  0.00    +0.000 A 
ATOM     24  N   UNL     1      43.974   2.753  10.332  0.00  0.00    +0.000 NA
ATOM     25  C   UNL     1      44.459   2.602   9.095  0.00  0.00    +0.000 A 
ATOM     26  N   UNL     1      45.189   3.500   8.425  0.00  0.00    +0.000 NA
ATOM     27  C   UNL     1      45.459   4.651   9.087  0.00  0.00    +0.000 A 
ENDBRANCH  18  22
ENDBRANCH   1  16
TORSDOF 4
ENDMDL
MODEL 4
REMARK VINA RESULT:    -6.462      3.401      5.205
REMARK INTER + INTRA:          -8.083
REMARK INTER:                  -7.967
REMARK INTRA:                  -0.116
REMARK UNBOUND:                -0.110
REMARK  Name = 
REMARK  4 active torsions:
REMARK  status: ('A' for Active; 'I' for Inactive)
REMARK    1  A    between atoms: C_2  and  C_5
REMARK    2  A    between atoms: N_9  and  C_10
REMARK    3  A    between atoms: C_10  and  C_11
REMARK    4  A    between atoms: C_13  and  C_14
REMARK                            x       y       z     vdW  Elec       q    Type
REMARK                         _______ _______ _______ _____ _____    ______ ____
ROOT
ATOM      1  C   UNL     1      48.662   8.206  12.647  0.00  0.00    +0.000 C 
ATOM      2  C   UNL     1      49.727   8.978  11.880  0.00  0.00    +0.000 C 
ATOM      3  C   UNL     1      49.676   7.490  11.765  0.00  0.00    +0.000 C 
ENDROOT
BRANCH   1   8
ATOM      4  C   UNL     1      44.462   5.507  11.588  0.00  0.00    +0.000 A 
ATOM      5  C   UNL     1      45.789   5.206  11.774  0.00  0.00    +0.000 A 
ATOM      6  N   UNL     1      46.747   6.137  11.970  0.00  0.00    +0.000 NA
ATOM      7  C   UNL     1      46.363   7.423  11.991  0.00  0.00    +0.000 A 
ATOM      8  N   UNL     1      47.287   8.441  12.195  0.00  0.00    +0.000 N 
ATOM      9  N   UNL     1      45.091   7.811  11.811  0.00  0.00    +0.000 NA
ATOM     10  C   UNL     1      44.170   6.849  11.601  0.00  0.00    +0.000 A 
ATOM     11  H   UNL     1      46.805   9.286  12.476  0.00  0.00    +0.000 HD
BRANCH   4  13
ATOM     12  F   UNL     1      43.432   3.500  12.342  0.00  0.00    +0.000 F 
ATOM     13  C   UNL     1      43.416   4.475  11.391  0.00  0.00    +0.000 C 
ATOM     14  F   UNL     1      43.531   3.833  10.197  0.00  0.00    +0.000 F 
ATOM     15  F   UNL     1      42.159   4.995  11.414  0.00  0.00    +0.000 F 
ENDBRANCH   4  13
ENDBRANCH   1   8
BRANCH   1  16
ATOM     16  C   UNL     1      48.853   7.999  14.157  0.00  0.00    +0.000 A 
ATOM     17  C   UNL     1      48.464   6.789  14.744  0.00  0.00    +0.000 A 
ATOM     18  C   UNL     1      48.782   6.475  16.071  0.00  0.00    +0.000 A 
ATOM     19  C   UNL     1      49.478   7.450  16.791  0.00  0.00    +0.000 A 
ATOM     20  C   UNL     1      49.791   8.653  16.173  0.00  0.00    +0.000 A 
ATOM     21  N   UNL     1      49.493   8.943  14.889  0.00  0.00    +0.000 NA
BRANCH  18  22
ATOM     22  C   UNL     1      48.422   5.166  16.651  0.00  0.00    +0.000 A 
ATOM     23  C   UNL     1      47.208   4.537  16.416  0.00  0.00    +0.000 A 
ATOM     24  N   UNL     1      46.827   3.351  16.948  0.00  0.00    +0.000 NA
ATOM     25  C   UNL     1      47.725   2.766  17.748  0.00  0.00    +0.000 A 
ATOM     26  N   UNL     1      48.936   3.247  18.050  0.00  0.00    +0.000 NA
ATOM     27  C   UNL     1      49.251   4.441  17.493  0.00  0.00    +0.000 A 
ENDBRANCH  18  22
ENDBRANCH   1  16
TORSDOF 4
ENDMDL
MODEL 5
REMARK VINA RESULT:    -6.417      5.514      8.525
REMARK INTER + INTRA:          -8.028
REMARK INTER:                  -7.921
REMARK INTRA:                  -0.107
REMARK UNBOUND:                -0.110
REMARK  Name = 
REMARK  4 active torsions:
REMARK  status: ('A' for Active; 'I' for Inactive)
REMARK    1  A    between atoms: C_2  and  C_5
REMARK    2  A    between atoms: N_9  and  C_10
REMARK    3  A    between atoms: C_10  and  C_11
REMARK    4  A    between atoms: C_13  and  C_14
REMARK                            x       y       z     vdW  Elec       q    Type
REMARK                         _______ _______ _______ _____ _____    ______ ____
ROOT
ATOM      1  C   UNL     1      49.140   7.732  12.504  0.00  0.00    +0.000 C 
ATOM      2  C   UNL     1      50.117   7.783  11.338  0.00  0.00    +0.000 C 
ATOM      3  C   UNL     1      49.886   9.012  12.154  0.00  0.00    +0.000 C 
ENDROOT
BRANCH   1   8
ATOM      4  C   UNL     1      48.664   7.564  17.582  0.00  0.00    +0.000 A 
ATOM      5  C   UNL     1      48.449   8.517  16.618  0.00  0.00    +0.000 A 
ATOM      6  N   UNL     1      48.735   8.336  15.311  0.00  0.00    +0.000 NA
ATOM      7  C   UNL     1      49.248   7.150  14.949  0.00  0.00    +0.000 A 
ATOM      8  N   UNL     1      49.562   6.882  13.622  0.00  0.00    +0.000 N 
ATOM      9  N   UNL     1      49.498   6.163  15.823  0.00  0.00    +0.000 NA
ATOM     10  C   UNL     1      49.213   6.393  17.121  0.00  0.00    +0.000 A 
ATOM     11  H   UNL     1      49.644   5.882  13.488  0.00  0.00    +0.000 HD
BRANCH   4  13
ATOM     12  F   UNL     1      48.612   6.690  19.794  0.00  0.00    +0.000 F 
ATOM     13  C   UNL     1      48.329   7.768  19.012  0.00  0.00    +0.000 C 
ATOM     14  F   UNL     1      47.010   8.035  19.209  0.00  0.00    +0.000 F 
ATOM     15  F   UNL     1      49.006   8.813  19.563  0.00  0.00    +0.000 F 
ENDBRANCH   4  13
ENDBRANCH   1   8
BRANCH   1  16
ATOM     16  C   UNL     1      47.634   7.752  12.199  0.00  0.00    +0.000 A 
ATOM     17  C   UNL     1      46.948   6.545  12.024  0.00  0.00    +0.000 A 
ATOM     18  C   UNL     1      45.551   6.496  11.931  0.00  0.00    +0.000 A 
ATOM     19  C   UNL     1      44.881   7.721  11.985  0.00  0.00    +0.000 A 
ATOM     20  C   UNL     1      45.618   8.890  12.107  0.00  0.00    +0.000 A 
ATOM     21  N   UNL     1      46.963   8.929  12.211  0.00  0.00    +0.000 NA
BRANCH  18  22
ATOM     22  C   UNL     1      44.841   5.206  11.813  0.00  0.00    +0.000 A 
ATOM     23  C   UNL     1      44.414   4.679  10.603  0.00  0.00    +0.000 A 
ATOM     24  N   UNL     1      43.738   3.514  10.454  0.00  0.00    +0.000 NA
ATOM     25  C   UNL     1      43.493   2.844  11.585  0.00  0.00    +0.000 A 
ATOM     26  N   UNL     1      43.858   3.223  12.815  0.00  0.00    +0.000 NA
ATOM     27  C   UNL     1      44.523   4.401  12.895  0.00  0.00    +0.000 A 
ENDBRANCH  18  22
ENDBRANCH   1  16
TORSDOF 4
ENDMDL
MODEL 6
REMARK VINA RESULT:    -6.103      5.105      7.358
REMARK INTER + INTRA:          -7.641
REMARK INTER:                  -7.505
REMARK INTRA:                  -0.136
REMARK UNBOUND:                -0.110
REMARK  Name = 
REMARK  4 active torsions:
REMARK  status: ('A' for Active; 'I' for Inactive)
REMARK    1  A    between atoms: C_2  and  C_5
REMARK    2  A    between atoms: N_9  and  C_10
REMARK    3  A    between atoms: C_10  and  C_11
REMARK    4  A    between atoms: C_13  and  C_14
REMARK                            x       y       z     vdW  Elec       q    Type
REMARK                         _______ _______ _______ _____ _____    ______ ____
ROOT
ATOM      1  C   UNL     1      45.752   4.778  12.511  0.00  0.00    +0.000 C 
ATOM      2  C   UNL     1      44.283   4.405  12.659  0.00  0.00    +0.000 C 
ATOM      3  C   UNL     1      44.905   4.403  11.302  0.00  0.00    +0.000 C 
ENDROOT
BRANCH   1   8
ATOM      4  C   UNL     1      48.009   3.940  17.010  0.00  0.00    +0.000 A 
ATOM      5  C   UNL     1      47.327   4.990  16.447  0.00  0.00    +0.000 A 
ATOM      6  N   UNL     1      46.884   4.995  15.172  0.00  0.00    +0.000 NA
ATOM      7  C   UNL     1      47.122   3.902  14.430  0.00  0.00    +0.000 A 
ATOM      8  N   UNL     1      46.692   3.825  13.111  0.00  0.00    +0.000 N 
ATOM      9  N   UNL     1      47.787   2.832  14.894  0.00  0.00    +0.000 NA
ATOM     10  C   UNL     1      48.227   2.877  16.168  0.00  0.00    +0.000 A 
ATOM     11  H   UNL     1      46.684   2.859  12.812  0.00  0.00    +0.000 HD
BRANCH   4  13
ATOM     12  F   UNL     1      48.314   2.739  19.041  0.00  0.00    +0.000 F 
ATOM     13  C   UNL     1      48.476   3.939  18.418  0.00  0.00    +0.000 C 
ATOM     14  F   UNL     1      47.822   4.850  19.188  0.00  0.00    +0.000 F 
ATOM     15  F   UNL     1      49.799   4.240  18.529  0.00  0.00    +0.000 F 
ENDBRANCH   4  13
ENDBRANCH   1   8
BRANCH   1  16
ATOM     16  C   UNL     1      46.143   6.261  12.597  0.00  0.00    +0.000 A 
ATOM     17  C   UNL     1      47.438   6.656  12.240  0.00  0.00    +0.000 A 
ATOM     18  C   UNL     1      47.792   8.006  12.120  0.00  0.00    +0.000 A 
ATOM     19  C   UNL     1      46.793   8.939  12.412  0.00  0.00    +0.000 A 
ATOM     20  C   UNL     1      45.543   8.488  12.813  0.00  0.00    +0.000 A 
ATOM     21  N   UNL     1      45.204   7.186  12.912  0.00  0.00    +0.000 NA
BRANCH  18  22
ATOM     22  C   UNL     1      49.144   8.402  11.677  0.00  0.00    +0.000 A 
ATOM     23  C   UNL     1      49.493   9.710  11.372  0.00  0.00    +0.000 A 
ATOM     24  N   UNL     1      50.712  10.111  10.938  0.00  0.00    +0.000 NA
ATOM     25  C   UNL     1      51.626   9.142  10.817  0.00  0.00    +0.000 A 
ATOM     26  N   UNL     1      51.435   7.846  11.090  0.00  0.00    +0.000 NA
ATOM     27  C   UNL     1      50.192   7.511  11.511  0.00  0.00    +0.000 A 
ENDBRANCH  18  22
ENDBRANCH   1  16
TORSDOF 4
ENDMDL
MODEL 7
REMARK VINA RESULT:    -5.894      4.727      7.661
REMARK INTER + INTRA:          -7.382
REMARK INTER:                  -7.029
REMARK INTRA:                  -0.354
REMARK UNBOUND:                -0.110
REMARK  Name = 
REMARK  4 active torsions:
REMARK  status: ('A' for Active; 'I' for Inactive)
REMARK    1  A    between atoms: C_2  and  C_5
REMARK    2  A    between atoms: N_9  and  C_10
REMARK    3  A    between atoms: C_10  and  C_11
REMARK    4  A    between atoms: C_13  and  C_14
REMARK                            x       y       z     vdW  Elec       q    Type
REMARK                         _______ _______ _______ _____ _____    ______ ____
ROOT
ATOM      1  C   UNL     1      48.525   7.185  13.447  0.00  0.00    +0.000 C 
ATOM      2  C   UNL     1      48.674   7.990  14.730  0.00  0.00    +0.000 C 
ATOM      3  C   UNL     1      48.459   6.515  14.813  0.00  0.00    +0.000 C 
ENDROOT
BRANCH   1   8
ATOM      4  C   UNL     1      51.344  10.270  10.519  0.00  0.00    +0.000 A 
ATOM      5  C   UNL     1      50.089  10.336  11.073  0.00  0.00    +0.000 A 
ATOM      6  N   UNL     1      49.522   9.324  11.762  0.00  0.00    +0.000 NA
ATOM      7  C   UNL     1      50.242   8.201  11.915  0.00  0.00    +0.000 A 
ATOM      8  N   UNL     1      49.733   7.116  12.619  0.00  0.00    +0.000 N 
ATOM      9  N   UNL     1      51.473   8.044  11.404  0.00  0.00    +0.000 NA
ATOM     10  C   UNL     1      51.993   9.075  10.706  0.00  0.00    +0.000 A 
ATOM     11  H   UNL     1      50.490   6.501  12.888  0.00  0.00    +0.000 HD
BRANCH   4  13
ATOM     12  F   UNL     1      53.231  11.135   9.356  0.00  0.00    +0.000 F 
ATOM     13  C   UNL     1      51.963  11.396   9.778  0.00  0.00    +0.000 C 
ATOM     14  F   UNL     1      52.045  12.532  10.523  0.00  0.00    +0.000 F 
ATOM     15  F   UNL     1      51.262  11.735   8.662  0.00  0.00    +0.000 F 
ENDBRANCH   4  13
ENDBRANCH   1   8
BRANCH   1  16
ATOM     16  C   UNL     1      47.189   7.254  12.690  0.00  0.00    +0.000 A 
ATOM     17  C   UNL     1      46.813   6.196  11.855  0.00  0.00    +0.000 A 
ATOM     18  C   UNL     1      45.532   6.119  11.291  0.00  0.00    +0.000 A 
ATOM     19  C   UNL     1      44.662   7.174  11.577  0.00  0.00    +0.000 A 
ATOM     20  C   UNL     1      45.109   8.223  12.369  0.00  0.00    +0.000 A 
ATOM     21  N   UNL     1      46.339   8.284  12.921  0.00  0.00    +0.000 NA
BRANCH  18  22
ATOM     22  C   UNL     1      45.132   4.961  10.467  0.00  0.00    +0.000 A 
ATOM     23  C   UNL     1      44.354   3.917  10.947  0.00  0.00    +0.000 A 
ATOM     24  N   UNL     1      43.987   2.825  10.233  0.00  0.00    +0.000 NA
ATOM     25  C   UNL     1      44.419   2.794   8.967  0.00  0.00    +0.000 A 
ATOM     26  N   UNL     1      45.159   3.735   8.369  0.00  0.00    +0.000 NA
ATOM     27  C   UNL     1      45.499   4.795   9.141  0.00  0.00    +0.000 A 
ENDBRANCH  18  22
ENDBRANCH   1  16
TORSDOF 4
ENDMDL
MODEL 8
REMARK VINA RESULT:    -5.870      4.691      8.432
REMARK INTER + INTRA:          -7.353
REMARK INTER:                  -8.636
REMARK INTRA:                   1.282
REMARK UNBOUND:                -0.110
REMARK  Name = 
REMARK  4 active torsions:
REMARK  status: ('A' for Active; 'I' for Inactive)
REMARK    1  A    between atoms: C_2  and  C_5
REMARK    2  A    between atoms: N_9  and  C_10
REMARK    3  A    between atoms: C_10  and  C_11
REMARK    4  A    between atoms: C_13  and  C_14
REMARK                            x       y       z     vdW  Elec       q    Type
REMARK                         _______ _______ _______ _____ _____    ______ ____
ROOT
ATOM      1  C   UNL     1      46.204   5.532  13.185  0.00  0.00    +0.000 C 
ATOM      2  C   UNL     1      47.601   6.083  12.935  0.00  0.00    +0.000 C 
ATOM      3  C   UNL     1      46.518   7.009  13.384  0.00  0.00    +0.000 C 
ENDROOT
BRANCH   1   8
ATOM      4  C   UNL     1      48.550   4.660  17.633  0.00  0.00    +0.000 A 
ATOM      5  C   UNL     1      48.847   5.381  16.503  0.00  0.00    +0.000 A 
ATOM      6  N   UNL     1      48.075   5.388  15.396  0.00  0.00    +0.000 NA
ATOM      7  C   UNL     1      46.953   4.652  15.420  0.00  0.00    +0.000 A 
ATOM      8  N   UNL     1      46.101   4.612  14.323  0.00  0.00    +0.000 N 
ATOM      9  N   UNL     1      46.586   3.911  16.476  0.00  0.00    +0.000 NA
ATOM     10  C   UNL     1      47.396   3.919  17.555  0.00  0.00    +0.000 A 
ATOM     11  H   UNL     1      45.192   4.273  14.611  0.00  0.00    +0.000 HD
BRANCH   4  13
ATOM     12  F   UNL     1      49.611   5.924  19.346  0.00  0.00    +0.000 F 
ATOM     13  C   UNL     1      49.396   4.674  18.850  0.00  0.00    +0.000 C 
ATOM     14  F   UNL     1      50.630   4.141  18.637  0.00  0.00    +0.000 F 
ATOM     15  F   UNL     1      48.853   3.957  19.872  0.00  0.00    +0.000 F 
ENDBRANCH   4  13
ENDBRANCH   1   8
BRANCH   1  16
ATOM     16  C   UNL     1      45.314   5.213  11.974  0.00  0.00    +0.000 A 
ATOM     17  C   UNL     1      45.866   4.561  10.865  0.00  0.00    +0.000 A 
ATOM     18  C   UNL     1      45.067   4.081   9.818  0.00  0.00    +0.000 A 
ATOM     19  C   UNL     1      43.695   4.321   9.922  0.00  0.00    +0.000 A 
ATOM     20  C   UNL     1      43.212   5.019  11.020  0.00  0.00    +0.000 A 
ATOM     21  N   UNL     1      43.984   5.466  12.032  0.00  0.00    +0.000 NA
BRANCH  18  22
ATOM     22  C   UNL     1      45.660   3.337   8.688  0.00  0.00    +0.000 A 
ATOM     23  C   UNL     1      45.857   1.963   8.701  0.00  0.00    +0.000 A 
ATOM     24  N   UNL     1      46.420   1.247   7.699  0.00  0.00    +0.000 NA
ATOM     25  C   UNL     1      46.792   1.953   6.626  0.00  0.00    +0.000 A 
ATOM     26  N   UNL     1      46.650   3.274   6.470  0.00  0.00    +0.000 NA
ATOM     27  C   UNL     1      46.088   3.932   7.513  0.00  0.00    +0.000 A 
ENDBRANCH  18  22
ENDBRANCH   1  16
TORSDOF 4
ENDMDL
MODEL 9
REMARK VINA RESULT:    -5.560      6.010      9.117
REMARK INTER + INTRA:          -6.971
REMARK INTER:                  -6.684
REMARK INTRA:                  -0.287
REMARK UNBOUND:                -0.110
REMARK  Name = 
REMARK  4 active torsions:
REMARK  status: ('A' for Active; 'I' for Inactive)
REMARK    1  A    between atoms: C_2  and  C_5
REMARK    2  A    between atoms: N_9  and  C_10
REMARK    3  A    between atoms: C_10  and  C_11
REMARK    4  A    between atoms: C_13  and  C_14
REMARK                            x       y       z     vdW  Elec       q    Type
REMARK                         _______ _______ _______ _____ _____    ______ ____
ROOT
ATOM      1  C   UNL     1      48.686   8.440  12.501  0.00  0.00    +0.000 C 
ATOM      2  C   UNL     1      49.448   7.190  12.917  0.00  0.00    +0.000 C 
ATOM      3  C   UNL     1      49.686   7.776  11.565  0.00  0.00    +0.000 C 
ENDROOT
BRANCH   1   8
ATOM      4  C   UNL     1      48.385  10.189  17.286  0.00  0.00    +0.000 A 
ATOM      5  C   UNL     1      47.825   9.142  16.598  0.00  0.00    +0.000 A 
ATOM      6  N   UNL     1      48.006   8.932  15.277  0.00  0.00    +0.000 NA
ATOM      7  C   UNL     1      48.788   9.800  14.616  0.00  0.00    +0.000 A 
ATOM      8  N   UNL     1      49.030   9.650  13.256  0.00  0.00    +0.000 N 
ATOM      9  N   UNL     1      49.371  10.856  15.203  0.00  0.00    +0.000 NA
ATOM     10  C   UNL     1      49.149  11.037  16.521  0.00  0.00    +0.000 A 
ATOM     11  H   UNL     1      49.848  10.185  12.995  0.00  0.00    +0.000 HD
BRANCH   4  13
ATOM     12  F   UNL     1      47.682   9.312  19.382  0.00  0.00    +0.000 F 
ATOM     13  C   UNL     1      48.194  10.399  18.742  0.00  0.00    +0.000 C 
ATOM     14  F   UNL     1      47.346  11.427  19.017  0.00  0.00    +0.000 F 
ATOM     15  F   UNL     1      49.357  10.694  19.384  0.00  0.00    +0.000 F 
ENDBRANCH   4  13
ENDBRANCH   1   8
BRANCH   1  16
ATOM     16  C   UNL     1      47.213   8.296  12.088  0.00  0.00    +0.000 A 
ATOM     17  C   UNL     1      46.634   7.023  12.025  0.00  0.00    +0.000 A 
ATOM     18  C   UNL     1      45.257   6.846  11.837  0.00  0.00    +0.000 A 
ATOM     19  C   UNL     1      44.496   8.008  11.681  0.00  0.00    +0.000 A 
ATOM     20  C   UNL     1      45.133   9.240  11.700  0.00  0.00    +0.000 A 
ATOM     21  N   UNL     1      46.458   9.405  11.895  0.00  0.00    +0.000 NA
BRANCH  18  22
ATOM     22  C   UNL     1      44.656   5.497  11.840  0.00  0.00    +0.000 A 
ATOM     23  C   UNL     1      44.057   4.927  10.726  0.00  0.00    +0.000 A 
ATOM     24  N   UNL     1      43.472   3.706  10.693  0.00  0.00    +0.000 NA
ATOM     25  C   UNL     1      43.505   3.022  11.842  0.00  0.00    +0.000 A 
ATOM     26  N   UNL     1      44.061   3.439  12.986  0.00  0.00    +0.000 NA
ATOM     27  C   UNL     1      44.621   4.672  12.953  0.00  0.00    +0.000 A 
ENDBRANCH  18  22
ENDBRANCH   1  16
TORSDOF 4
ENDMDL
