MODEL 1
REMARK VINA RESULT:    -8.142      0.000      0.000
REMARK INTER + INTRA:         -11.051
REMARK INTER:                 -10.521
REMARK INTRA:                  -0.529
REMARK UNBOUND:                -0.529
REMARK  Name = 
REMARK  5 active torsions:
REMARK  status: ('A' for Active; 'I' for Inactive)
REMARK    1  A    between atoms: C_2  and  C_4
REMARK    2  A    between atoms: C_8  and  C_9
REMARK    3  A    between atoms: C_9  and  O_10
REMARK    4  A    between atoms: O_10  and  C_11
REMARK    5  A    between atoms: C_16  and  C_17
REMARK                            x       y       z     vdW  Elec       q    Type
REMARK                         _______ _______ _______ _____ _____    ______ ____
ROOT
ATOM      1  O   UNL     1      45.348   6.424  10.658  0.00  0.00    +0.000 OA
ENDROOT
BRANCH   1   2
ATOM      2  C   UNL     1      44.991   5.164  10.260  0.00  0.00    +0.000 A 
ATOM      3  C   UNL     1      44.133   4.463  11.101  0.00  0.00    +0.000 A 
ATOM      4  C   UNL     1      43.798   3.150  10.788  0.00  0.00    +0.000 A 
ATOM      5  F   UNL     1      42.991   2.465  11.610  0.00  0.00    +0.000 F 
ATOM      6  C   UNL     1      44.306   2.521   9.651  0.00  0.00    +0.000 A 
ATOM      7  C   UNL     1      45.147   3.225   8.783  0.00  0.00    +0.000 A 
ATOM      8  C   UNL     1      45.448   4.561   9.087  0.00  0.00    +0.000 A 
BRANCH   7   9
ATOM      9  C   UNL     1      45.754   2.570   7.557  0.00  0.00    +0.000 C 
ATOM     10  C   UNL     1      46.535   1.296   7.936  0.00  0.00    +0.000 C 
ATOM     11  C   UNL     1      47.278   0.731   6.736  0.00  0.00    +0.000 C 
ATOM     12  O   UNL     1      48.125   1.726   6.162  0.00  0.00    +0.000 OA
ATOM     13  C   UNL     1      47.384   2.837   5.658  0.00  0.00    +0.000 C 
ATOM     14  C   UNL     1      46.657   3.547   6.789  0.00  0.00    +0.000 C 
ENDBRANCH   7   9
ENDBRANCH   1   2
BRANCH   1  15
ATOM     15  C   UNL     1      44.976   6.741  12.005  0.00  0.00    +0.000 C 
BRANCH  15  20
ATOM     16  C   UNL     1      47.227   5.103  14.589  0.00  0.00    +0.000 A 
ATOM     17  C   UNL     1      48.186   6.101  14.688  0.00  0.00    +0.000 A 
ATOM     18  N   UNL     1      48.174   7.237  13.948  0.00  0.00    +0.000 NA
ATOM     19  C   UNL     1      47.147   7.385  13.083  0.00  0.00    +0.000 A 
ATOM     20  C   UNL     1      46.124   6.455  12.924  0.00  0.00    +0.000 A 
ATOM     21  C   UNL     1      46.167   5.294  13.702  0.00  0.00    +0.000 A 
BRANCH  16  23
ATOM     22  N   UNL     1      46.890   3.997  16.725  0.00  0.00    +0.000 N 
ATOM     23  C   UNL     1      47.354   3.904  15.441  0.00  0.00    +0.000 C 
ATOM     24  O   UNL     1      47.822   2.860  15.012  0.00  0.00    +0.000 OA
ATOM     25  H   UNL     1      46.876   3.134  17.254  0.00  0.00    +0.000 HD
ATOM     26  H   UNL     1      46.267   4.734  17.024  0.00  0.00    +0.000 HD
ENDBRANCH  16  23
ENDBRANCH  15  20
ENDBRANCH   1  15
TORSDOF 5
ENDMDL
MODEL 2
REMARK VINA RESULT:    -7.813      1.697      2.728
REMARK INTER + INTRA:         -10.626
REMARK INTER:                  -9.741
REMARK INTRA:                  -0.885
REMARK UNBOUND:                -0.529
REMARK  Name = 
REMARK  5 active torsions:
REMARK  status: ('A' for Active; 'I' for Inactive)
REMARK    1  A    between atoms: C_2  and  C_4
REMARK    2  A    between atoms: C_8  and  C_9
REMARK    3  A    between atoms: C_9  and  O_10
REMARK    4  A    between atoms: O_10  and  C_11
REMARK    5  A    between atoms: C_16  and  C_17
REMARK                            x       y       z     vdW  Elec       q    Type
REMARK                         _______ _______ _______ _____ _____    ______ ____
ROOT
ATOM      1  O   UNL     1      44.654   6.353  10.804  0.00  0.00    +0.000 OA
ENDROOT
BRANCH   1   2
ATOM      2  C   UNL     1      44.511   5.044  10.430  0.00  0.00    +0.000 A 
ATOM      3  C   UNL     1      43.791   4.224  11.291  0.00  0.00    +0.000 A 
ATOM      4  C   UNL     1      43.679   2.867  11.003  0.00  0.00    +0.000 A 
ATOM      5  F   UNL     1      43.006   2.071  11.845  0.00  0.00    +0.000 F 
ATOM      6  C   UNL     1      44.275   2.313   9.870  0.00  0.00    +0.000 A 
ATOM      7  C   UNL     1      44.978   3.134   8.982  0.00  0.00    +0.000 A 
ATOM      8  C   UNL     1      45.052   4.507   9.261  0.00  0.00    +0.000 A 
BRANCH   7   9
ATOM      9  C   UNL     1      45.675   2.569   7.758  0.00  0.00    +0.000 C 
ATOM     10  C   UNL     1      46.393   1.246   8.089  0.00  0.00    +0.000 C 
ATOM     11  C   UNL     1      47.226   0.765   6.911  0.00  0.00    +0.000 C 
ATOM     12  O   UNL     1      48.140   1.781   6.500  0.00  0.00    +0.000 OA
ATOM     13  C   UNL     1      47.469   2.952   6.035  0.00  0.00    +0.000 C 
ATOM     14  C   UNL     1      46.662   3.583   7.158  0.00  0.00    +0.000 C 
ENDBRANCH   7   9
ENDBRANCH   1   2
BRANCH   1  15
ATOM     15  C   UNL     1      44.756   6.550  12.219  0.00  0.00    +0.000 C 
BRANCH  15  20
ATOM     16  C   UNL     1      48.476   7.307  12.337  0.00  0.00    +0.000 A 
ATOM     17  C   UNL     1      48.837   6.408  13.330  0.00  0.00    +0.000 A 
ATOM     18  N   UNL     1      47.957   5.612  13.985  0.00  0.00    +0.000 NA
ATOM     19  C   UNL     1      46.660   5.713  13.620  0.00  0.00    +0.000 A 
ATOM     20  C   UNL     1      46.198   6.567  12.623  0.00  0.00    +0.000 A 
ATOM     21  C   UNL     1      47.132   7.373  11.965  0.00  0.00    +0.000 A 
BRANCH  16  23
ATOM     22  N   UNL     1      50.754   7.551  11.529  0.00  0.00    +0.000 N 
ATOM     23  C   UNL     1      49.525   8.129  11.701  0.00  0.00    +0.000 C 
ATOM     24  O   UNL     1      49.301   9.266  11.313  0.00  0.00    +0.000 OA
ATOM     25  H   UNL     1      51.421   8.084  10.986  0.00  0.00    +0.000 HD
ATOM     26  H   UNL     1      50.895   6.552  11.585  0.00  0.00    +0.000 HD
ENDBRANCH  16  23
ENDBRANCH  15  20
ENDBRANCH   1  15
TORSDOF 5
ENDMDL
MODEL 3
REMARK VINA RESULT:    -7.594      3.187      7.666
REMARK INTER + INTRA:         -10.343
REMARK INTER:                  -9.625
REMARK INTRA:                  -0.718
REMARK UNBOUND:                -0.529
REMARK  Name = 
REMARK  5 active torsions:
REMARK  status: ('A' for Active; 'I' for Inactive)
REMARK    1  A    between atoms: C_2  and  C_4
REMARK    2  A    between atoms: C_8  and  C_9
REMARK    3  A    between atoms: C_9  and  O_10
REMARK    4  A    between atoms: O_10  and  C_11
REMARK    5  A    between atoms: C_16  and  C_17
REMARK                            x       y       z     vdW  Elec       q    Type
REMARK                         _______ _______ _______ _____ _____    ______ ____
ROOT
ATOM      1  O   UNL     1      44.633   4.655  11.064  0.00  0.00    +0.000 OA
ENDROOT
BRANCH   1   2
ATOM      2  C   UNL     1      45.593   5.242  11.845  0.00  0.00    +0.000 A 
ATOM      3  C   UNL     1      46.331   6.265  11.262  0.00  0.00    +0.000 A 
ATOM      4  C   UNL     1      47.372   6.845  11.981  0.00  0.00    +0.000 A 
ATOM      5  F   UNL     1      48.101   7.815  11.411  0.00  0.00    +0.000 F 
ATOM      6  C   UNL     1      47.691   6.421  13.270  0.00  0.00    +0.000 A 
ATOM      7  C   UNL     1      46.937   5.412  13.877  0.00  0.00    +0.000 A 
ATOM      8  C   UNL     1      45.865   4.859  13.160  0.00  0.00    +0.000 A 
BRANCH   7   9
ATOM      9  C   UNL     1      47.272   4.891  15.262  0.00  0.00    +0.000 C 
ATOM     10  C   UNL     1      48.459   5.660  15.873  0.00  0.00    +0.000 C 
ATOM     11  C   UNL     1      48.899   5.034  17.188  0.00  0.00    +0.000 C 
ATOM     12  O   UNL     1      49.196   3.650  17.005  0.00  0.00    +0.000 OA
ATOM     13  C   UNL     1      48.051   2.904  16.596  0.00  0.00    +0.000 C 
ATOM     14  C   UNL     1      47.561   3.382  15.239  0.00  0.00    +0.000 C 
ENDBRANCH   7   9
ENDBRANCH   1   2
BRANCH   1  15
ATOM     15  C   UNL     1      44.796   4.888   9.661  0.00  0.00    +0.000 C 
BRANCH  15  20
ATOM     16  C   UNL     1      46.572   2.553   7.249  0.00  0.00    +0.000 A 
ATOM     17  C   UNL     1      46.163   1.344   7.795  0.00  0.00    +0.000 A 
ATOM     18  N   UNL     1      45.394   1.239   8.906  0.00  0.00    +0.000 NA
ATOM     19  C   UNL     1      45.006   2.396   9.487  0.00  0.00    +0.000 A 
ATOM     20  C   UNL     1      45.344   3.657   9.006  0.00  0.00    +0.000 A 
ATOM     21  C   UNL     1      46.137   3.731   7.857  0.00  0.00    +0.000 A 
BRANCH  16  23
ATOM     22  N   UNL     1      48.768   2.666   6.218  0.00  0.00    +0.000 N 
ATOM     23  C   UNL     1      47.418   2.540   6.039  0.00  0.00    +0.000 C 
ATOM     24  O   UNL     1      46.939   2.388   4.924  0.00  0.00    +0.000 OA
ATOM     25  H   UNL     1      49.339   2.535   5.392  0.00  0.00    +0.000 HD
ATOM     26  H   UNL     1      49.212   2.522   7.114  0.00  0.00    +0.000 HD
ENDBRANCH  16  23
ENDBRANCH  15  20
ENDBRANCH   1  15
TORSDOF 5
ENDMDL
MODEL 4
REMARK VINA RESULT:    -7.153      2.138      2.872
REMARK INTER + INTRA:          -9.774
REMARK INTER:                  -9.159
REMARK INTRA:                  -0.615
REMARK UNBOUND:                -0.529
REMARK  Name = 
REMARK  5 active torsions:
REMARK  status: ('A' for Active; 'I' for Inactive)
REMARK    1  A    between atoms: C_2  and  C_4
REMARK    2  A    between atoms: C_8  and  C_9
REMARK    3  A    between atoms: C_9  and  O_10
REMARK    4  A    between atoms: O_10  and  C_11
REMARK    5  A    between atoms: C_16  and  C_17
REMARK                            x       y       z     vdW  Elec       q    Type
REMARK                         _______ _______ _______ _____ _____    ______ ____
ROOT
ATOM      1  O   UNL     1      45.290   4.267  14.053  0.00  0.00    +0.000 OA
ENDROOT
BRANCH   1   2
ATOM      2  C   UNL     1      44.658   4.514  12.863  0.00  0.00    +0.000 A 
ATOM      3  C   UNL     1      43.517   5.307  12.916  0.00  0.00    +0.000 A 
ATOM      4  C   UNL     1      42.789   5.527  11.751  0.00  0.00    +0.000 A 
ATOM      5  F   UNL     1      41.676   6.271  11.805  0.00  0.00    +0.000 F 
ATOM      6  C   UNL     1      43.177   4.968  10.534  0.00  0.00    +0.000 A 
ATOM      7  C   UNL     1      44.338   4.192  10.464  0.00  0.00    +0.000 A 
ATOM      8  C   UNL     1      45.088   4.007  11.636  0.00  0.00    +0.000 A 
BRANCH   7   9
ATOM      9  C   UNL     1      44.778   3.531   9.170  0.00  0.00    +0.000 C 
ATOM     10  C   UNL     1      45.335   2.118   9.430  0.00  0.00    +0.000 C 
ATOM     11  C   UNL     1      45.925   1.521   8.162  0.00  0.00    +0.000 C 
ATOM     12  O   UNL     1      46.913   2.392   7.614  0.00  0.00    +0.000 OA
ATOM     13  C   UNL     1      46.362   3.647   7.219  0.00  0.00    +0.000 C 
ATOM     14  C   UNL     1      45.811   4.390   8.425  0.00  0.00    +0.000 C 
ENDBRANCH   7   9
ENDBRANCH   1   2
BRANCH   1  15
ATOM     15  C   UNL     1      46.682   3.952  13.922  0.00  0.00    +0.000 C 
BRANCH  15  20
ATOM     16  C   UNL     1      48.283   4.902  17.232  0.00  0.00    +0.000 A 
ATOM     17  C   UNL     1      48.774   6.150  16.872  0.00  0.00    +0.000 A 
ATOM     18  N   UNL     1      48.658   6.677  15.629  0.00  0.00    +0.000 NA
ATOM     19  C   UNL     1      48.009   5.928  14.711  0.00  0.00    +0.000 A 
ATOM     20  C   UNL     1      47.462   4.676  14.976  0.00  0.00    +0.000 A 
ATOM     21  C   UNL     1      47.598   4.161  16.268  0.00  0.00    +0.000 A 
BRANCH  16  23
ATOM     22  N   UNL     1      48.320   3.092  18.851  0.00  0.00    +0.000 N 
ATOM     23  C   UNL     1      48.480   4.431  18.617  0.00  0.00    +0.000 C 
ATOM     24  O   UNL     1      48.804   5.195  19.514  0.00  0.00    +0.000 OA
ATOM     25  H   UNL     1      48.574   2.771  19.777  0.00  0.00    +0.000 HD
ATOM     26  H   UNL     1      48.320   2.408  18.108  0.00  0.00    +0.000 HD
ENDBRANCH  16  23
ENDBRANCH  15  20
ENDBRANCH   1  15
TORSDOF 5
ENDMDL
MODEL 5
REMARK VINA RESULT:    -7.141      3.431      5.139
REMARK INTER + INTRA:          -9.757
REMARK INTER:                  -8.878
REMARK INTRA:                  -0.879
REMARK UNBOUND:                -0.529
REMARK  Name = 
REMARK  5 active torsions:
REMARK  status: ('A' for Active; 'I' for Inactive)
REMARK    1  A    between atoms: C_2  and  C_4
REMARK    2  A    between atoms: C_8  and  C_9
REMARK    3  A    between atoms: C_9  and  O_10
REMARK    4  A    between atoms: O_10  and  C_11
REMARK    5  A    between atoms: C_16  and  C_17
REMARK                            x       y       z     vdW  Elec       q    Type
REMARK                         _______ _______ _______ _____ _____    ______ ____
ROOT
ATOM      1  O   UNL     1      49.066   7.334  14.050  0.00  0.00    +0.000 OA
ENDROOT
BRANCH   1   2
ATOM      2  C   UNL     1      47.828   7.241  13.473  0.00  0.00    +0.000 A 
ATOM      3  C   UNL     1      47.066   8.404  13.440  0.00  0.00    +0.000 A 
ATOM      4  C   UNL     1      45.769   8.352  12.937  0.00  0.00    +0.000 A 
ATOM      5  F   UNL     1      45.025   9.466  12.927  0.00  0.00    +0.000 F 
ATOM      6  C   UNL     1      45.219   7.160  12.468  0.00  0.00    +0.000 A 
ATOM      7  C   UNL     1      45.985   5.990  12.470  0.00  0.00    +0.000 A 
ATOM      8  C   UNL     1      47.305   6.061  12.943  0.00  0.00    +0.000 A 
BRANCH   7   9
ATOM      9  C   UNL     1      45.415   4.663  12.006  0.00  0.00    +0.000 C 
ATOM     10  C   UNL     1      44.984   4.730  10.528  0.00  0.00    +0.000 C 
ATOM     11  C   UNL     1      44.265   3.456  10.110  0.00  0.00    +0.000 C 
ATOM     12  O   UNL     1      43.162   3.200  10.977  0.00  0.00    +0.000 OA
ATOM     13  C   UNL     1      43.578   2.973  12.323  0.00  0.00    +0.000 C 
ATOM     14  C   UNL     1      44.242   4.217  12.892  0.00  0.00    +0.000 C 
ENDBRANCH   7   9
ENDBRANCH   1   2
BRANCH   1  15
ATOM     15  C   UNL     1      49.038   7.630  15.452  0.00  0.00    +0.000 C 
BRANCH  15  20
ATOM     16  C   UNL     1      48.808   4.415  17.461  0.00  0.00    +0.000 A 
ATOM     17  C   UNL     1      50.151   4.276  17.782  0.00  0.00    +0.000 A 
ATOM     18  N   UNL     1      51.120   5.124  17.358  0.00  0.00    +0.000 NA
ATOM     19  C   UNL     1      50.723   6.163  16.591  0.00  0.00    +0.000 A 
ATOM     20  C   UNL     1      49.400   6.403  16.231  0.00  0.00    +0.000 A 
ATOM     21  C   UNL     1      48.425   5.510  16.686  0.00  0.00    +0.000 A 
BRANCH  16  23
ATOM     22  N   UNL     1      48.109   2.867  19.198  0.00  0.00    +0.000 N 
ATOM     23  C   UNL     1      47.845   3.420  17.975  0.00  0.00    +0.000 C 
ATOM     24  O   UNL     1      46.835   3.125  17.351  0.00  0.00    +0.000 OA
ATOM     25  H   UNL     1      47.380   2.280  19.585  0.00  0.00    +0.000 HD
ATOM     26  H   UNL     1      48.768   3.275  19.846  0.00  0.00    +0.000 HD
ENDBRANCH  16  23
ENDBRANCH  15  20
ENDBRANCH   1  15
TORSDOF 5
ENDMDL
MODEL 6
REMARK VINA RESULT:    -7.132      1.523      2.093
REMARK INTER + INTRA:          -9.746
REMARK INTER:                  -8.911
REMARK INTRA:                  -0.835
REMARK UNBOUND:                -0.529
REMARK  Name = 
REMARK  5 active torsions:
REMARK  status: ('A' for Active; 'I' for Inactive)
REMARK    1  A    between atoms: C_2  and  C_4
REMARK    2  A    between atoms: C_8  and  C_9
REMARK    3  A    between atoms: C_9  and  O_10
REMARK    4  A    between atoms: O_10  and  C_11
REMARK    5  A    between atoms: C_16  and  C_17
REMARK                            x       y       z     vdW  Elec       q    Type
REMARK                         _______ _______ _______ _____ _____    ______ ____
ROOT
ATOM      1  O   UNL     1      46.361   7.484  11.880  0.00  0.00    +0.000 OA
ENDROOT
BRANCH   1   2
ATOM      2  C   UNL     1      45.441   6.550  11.482  0.00  0.00    +0.000 A 
ATOM      3  C   UNL     1      44.287   6.446  12.249  0.00  0.00    +0.000 A 
ATOM      4  C   UNL     1      43.353   5.461  11.940  0.00  0.00    +0.000 A 
ATOM      5  F   UNL     1      42.251   5.343  12.693  0.00  0.00    +0.000 F 
ATOM      6  C   UNL     1      43.552   4.577  10.880  0.00  0.00    +0.000 A 
ATOM      7  C   UNL     1      44.697   4.691  10.085  0.00  0.00    +0.000 A 
ATOM      8  C   UNL     1      45.614   5.712  10.380  0.00  0.00    +0.000 A 
BRANCH   7   9
ATOM      9  C   UNL     1      44.975   3.727   8.946  0.00  0.00    +0.000 C 
ATOM     10  C   UNL     1      45.314   2.322   9.479  0.00  0.00    +0.000 C 
ATOM     11  C   UNL     1      45.751   1.400   8.352  0.00  0.00    +0.000 C 
ATOM     12  O   UNL     1      46.841   1.975   7.632  0.00  0.00    +0.000 OA
ATOM     13  C   UNL     1      46.478   3.201   6.998  0.00  0.00    +0.000 C 
ATOM     14  C   UNL     1      46.099   4.245   8.036  0.00  0.00    +0.000 C 
ENDBRANCH   7   9
ENDBRANCH   1   2
BRANCH   1  15
ATOM     15  C   UNL     1      47.701   6.986  11.969  0.00  0.00    +0.000 C 
BRANCH  15  20
ATOM     16  C   UNL     1      48.315   6.026  15.592  0.00  0.00    +0.000 A 
ATOM     17  C   UNL     1      48.875   7.219  16.029  0.00  0.00    +0.000 A 
ATOM     18  N   UNL     1      49.103   8.285  15.224  0.00  0.00    +0.000 NA
ATOM     19  C   UNL     1      48.741   8.156  13.929  0.00  0.00    +0.000 A 
ATOM     20  C   UNL     1      48.153   7.012  13.397  0.00  0.00    +0.000 A 
ATOM     21  C   UNL     1      47.930   5.930  14.255  0.00  0.00    +0.000 A 
BRANCH  16  23
ATOM     22  N   UNL     1      47.051   5.020  17.406  0.00  0.00    +0.000 N 
ATOM     23  C   UNL     1      48.124   4.930  16.563  0.00  0.00    +0.000 C 
ATOM     24  O   UNL     1      48.873   3.964  16.593  0.00  0.00    +0.000 OA
ATOM     25  H   UNL     1      46.869   4.206  17.980  0.00  0.00    +0.000 HD
ATOM     26  H   UNL     1      46.278   5.647  17.234  0.00  0.00    +0.000 HD
ENDBRANCH  16  23
ENDBRANCH  15  20
ENDBRANCH   1  15
TORSDOF 5
ENDMDL
MODEL 7
REMARK VINA RESULT:    -6.990      1.938      3.274
REMARK INTER + INTRA:          -9.563
REMARK INTER:                  -8.661
REMARK INTRA:                  -0.901
REMARK UNBOUND:                -0.529
REMARK  Name = 
REMARK  5 active torsions:
REMARK  status: ('A' for Active; 'I' for Inactive)
REMARK    1  A    between atoms: C_2  and  C_4
REMARK    2  A    between atoms: C_8  and  C_9
REMARK    3  A    between atoms: C_9  and  O_10
REMARK    4  A    between atoms: O_10  and  C_11
REMARK    5  A    between atoms: C_16  and  C_17
REMARK                            x       y       z     vdW  Elec       q    Type
REMARK                         _______ _______ _______ _____ _____    ______ ____
ROOT
ATOM      1  O   UNL     1      45.399   4.115  13.938  0.00  0.00    +0.000 OA
ENDROOT
BRANCH   1   2
ATOM      2  C   UNL     1      44.751   4.378  12.761  0.00  0.00    +0.000 A 
ATOM      3  C   UNL     1      43.588   5.134  12.844  0.00  0.00    +0.000 A 
ATOM      4  C   UNL     1      42.845   5.366  11.691  0.00  0.00    +0.000 A 
ATOM      5  F   UNL     1      41.711   6.075  11.773  0.00  0.00    +0.000 F 
ATOM      6  C   UNL     1      43.241   4.855  10.456  0.00  0.00    +0.000 A 
ATOM      7  C   UNL     1      44.424   4.116  10.355  0.00  0.00    +0.000 A 
ATOM      8  C   UNL     1      45.187   3.920  11.516  0.00  0.00    +0.000 A 
BRANCH   7   9
ATOM      9  C   UNL     1      44.873   3.507   9.040  0.00  0.00    +0.000 C 
ATOM     10  C   UNL     1      45.456   2.096   9.252  0.00  0.00    +0.000 C 
ATOM     11  C   UNL     1      46.055   1.551   7.965  0.00  0.00    +0.000 C 
ATOM     12  O   UNL     1      47.027   2.458   7.445  0.00  0.00    +0.000 OA
ATOM     13  C   UNL     1      46.452   3.716   7.092  0.00  0.00    +0.000 C 
ATOM     14  C   UNL     1      45.890   4.408   8.323  0.00  0.00    +0.000 C 
ENDBRANCH   7   9
ENDBRANCH   1   2
BRANCH   1  15
ATOM     15  C   UNL     1      46.801   3.859  13.791  0.00  0.00    +0.000 C 
BRANCH  15  20
ATOM     16  C   UNL     1      48.652   7.160  13.473  0.00  0.00    +0.000 A 
ATOM     17  C   UNL     1      49.130   7.254  14.772  0.00  0.00    +0.000 A 
ATOM     18  N   UNL     1      48.857   6.350  15.744  0.00  0.00    +0.000 NA
ATOM     19  C   UNL     1      48.085   5.298  15.395  0.00  0.00    +0.000 A 
ATOM     20  C   UNL     1      47.575   5.100  14.115  0.00  0.00    +0.000 A 
ATOM     21  C   UNL     1      47.875   6.051  13.135  0.00  0.00    +0.000 A 
BRANCH  16  23
ATOM     22  N   UNL     1      49.340   9.442  13.007  0.00  0.00    +0.000 N 
ATOM     23  C   UNL     1      49.009   8.215  12.503  0.00  0.00    +0.000 C 
ATOM     24  O   UNL     1      49.042   7.994  11.301  0.00  0.00    +0.000 OA
ATOM     25  H   UNL     1      49.696  10.114  12.339  0.00  0.00    +0.000 HD
ATOM     26  H   UNL     1      49.583   9.582  13.978  0.00  0.00    +0.000 HD
ENDBRANCH  16  23
ENDBRANCH  15  20
ENDBRANCH   1  15
TORSDOF 5
ENDMDL
MODEL 8
REMARK VINA RESULT:    -6.943      4.293      8.585
REMARK INTER + INTRA:          -9.502
REMARK INTER:                  -8.897
REMARK INTRA:                  -0.605
REMARK UNBOUND:                -0.529
REMARK  Name = 
REMARK  5 active torsions:
REMARK  status: ('A' for Active; 'I' for Inactive)
REMARK    1  A    between atoms: C_2  and  C_4
REMARK    2  A    between atoms: C_8  and  C_9
REMARK    3  A    between atoms: C_9  and  O_10
REMARK    4  A    between atoms: O_10  and  C_11
REMARK    5  A    between atoms: C_16  and  C_17
REMARK                            x       y       z     vdW  Elec       q    Type
REMARK                         _______ _______ _______ _____ _____    ______ ____
ROOT
ATOM      1  O   UNL     1      46.644   3.822  15.746  0.00  0.00    +0.000 OA
ENDROOT
BRANCH   1   2
ATOM      2  C   UNL     1      47.571   3.952  16.746  0.00  0.00    +0.000 A 
ATOM      3  C   UNL     1      47.202   4.724  17.841  0.00  0.00    +0.000 A 
ATOM      4  C   UNL     1      48.131   4.956  18.852  0.00  0.00    +0.000 A 
ATOM      5  F   UNL     1      47.785   5.720  19.897  0.00  0.00    +0.000 F 
ATOM      6  C   UNL     1      49.421   4.432  18.787  0.00  0.00    +0.000 A 
ATOM      7  C   UNL     1      49.794   3.630  17.704  0.00  0.00    +0.000 A 
ATOM      8  C   UNL     1      48.839   3.370  16.709  0.00  0.00    +0.000 A 
BRANCH   7   9
ATOM      9  C   UNL     1      51.199   3.072  17.571  0.00  0.00    +0.000 C 
ATOM     10  C   UNL     1      51.179   1.533  17.498  0.00  0.00    +0.000 C 
ATOM     11  C   UNL     1      52.590   0.965  17.530  0.00  0.00    +0.000 C 
ATOM     12  O   UNL     1      53.290   1.436  18.681  0.00  0.00    +0.000 OA
ATOM     13  C   UNL     1      53.454   2.854  18.667  0.00  0.00    +0.000 C 
ATOM     14  C   UNL     1      52.101   3.546  18.721  0.00  0.00    +0.000 C 
ENDBRANCH   7   9
ENDBRANCH   1   2
BRANCH   1  15
ATOM     15  C   UNL     1      47.209   3.593  14.450  0.00  0.00    +0.000 C 
BRANCH  15  20
ATOM     16  C   UNL     1      44.958   4.821  11.648  0.00  0.00    +0.000 A 
ATOM     17  C   UNL     1      45.463   6.109  11.528  0.00  0.00    +0.000 A 
ATOM     18  N   UNL     1      46.444   6.611  12.316  0.00  0.00    +0.000 NA
ATOM     19  C   UNL     1      46.952   5.783  13.256  0.00  0.00    +0.000 A 
ATOM     20  C   UNL     1      46.531   4.470  13.443  0.00  0.00    +0.000 A 
ATOM     21  C   UNL     1      45.517   3.982  12.613  0.00  0.00    +0.000 A 
BRANCH  16  23
ATOM     22  N   UNL     1      44.022   4.694   9.411  0.00  0.00    +0.000 N 
ATOM     23  C   UNL     1      43.880   4.390  10.737  0.00  0.00    +0.000 C 
ATOM     24  O   UNL     1      42.914   3.758  11.141  0.00  0.00    +0.000 OA
ATOM     25  H   UNL     1      43.335   4.288   8.787  0.00  0.00    +0.000 HD
ATOM     26  H   UNL     1      44.908   4.966   9.009  0.00  0.00    +0.000 HD
ENDBRANCH  16  23
ENDBRANCH  15  20
ENDBRANCH   1  15
TORSDOF 5
ENDMDL
MODEL 9
REMARK VINA RESULT:    -6.857      3.115      6.939
REMARK INTER + INTRA:          -9.391
REMARK INTER:                  -8.458
REMARK INTRA:                  -0.933
REMARK UNBOUND:                -0.529
REMARK  Name = 
REMARK  5 active torsions:
REMARK  status: ('A' for Active; 'I' for Inactive)
REMARK    1  A    between atoms: C_2  and  C_4
REMARK    2  A    between atoms: C_8  and  C_9
REMARK    3  A    between atoms: C_9  and  O_10
REMARK    4  A    between atoms: O_10  and  C_11
REMARK    5  A    between atoms: C_16  and  C_17
REMARK                            x       y       z     vdW  Elec       q    Type
REMARK                         _______ _______ _______ _____ _____    ______ ____
ROOT
ATOM      1  O   UNL     1      44.017   5.438  12.417  0.00  0.00    +0.000 OA
ENDROOT
BRANCH   1   2
ATOM      2  C   UNL     1      45.281   5.553  12.929  0.00  0.00    +0.000 A 
ATOM      3  C   UNL     1      45.714   4.526  13.760  0.00  0.00    +0.000 A 
ATOM      4  C   UNL     1      46.959   4.627  14.372  0.00  0.00    +0.000 A 
ATOM      5  F   UNL     1      47.368   3.649  15.192  0.00  0.00    +0.000 F 
ATOM      6  C   UNL     1      47.780   5.736  14.172  0.00  0.00    +0.000 A 
ATOM      7  C   UNL     1      47.367   6.762  13.317  0.00  0.00    +0.000 A 
ATOM      8  C   UNL     1      46.127   6.634  12.673  0.00  0.00    +0.000 A 
BRANCH   7   9
ATOM      9  C   UNL     1      48.209   8.006  13.100  0.00  0.00    +0.000 C 
ATOM     10  C   UNL     1      47.698   8.819  11.894  0.00  0.00    +0.000 C 
ATOM     11  C   UNL     1      48.635   9.974  11.576  0.00  0.00    +0.000 C 
ATOM     12  O   UNL     1      49.965   9.496  11.374  0.00  0.00    +0.000 OA
ATOM     13  C   UNL     1      50.501   8.887  12.548  0.00  0.00    +0.000 C 
ATOM     14  C   UNL     1      49.694   7.654  12.924  0.00  0.00    +0.000 C 
ENDBRANCH   7   9
ENDBRANCH   1   2
BRANCH   1  15
ATOM     15  C   UNL     1      43.930   5.688  11.009  0.00  0.00    +0.000 C 
BRANCH  15  20
ATOM     16  C   UNL     1      45.451   3.353   8.428  0.00  0.00    +0.000 A 
ATOM     17  C   UNL     1      44.861   2.169   8.850  0.00  0.00    +0.000 A 
ATOM     18  N   UNL     1      44.047   2.073   9.929  0.00  0.00    +0.000 NA
ATOM     19  C   UNL     1      43.801   3.216  10.607  0.00  0.00    +0.000 A 
ATOM     20  C   UNL     1      44.325   4.456  10.254  0.00  0.00    +0.000 A 
ATOM     21  C   UNL     1      45.161   4.520   9.135  0.00  0.00    +0.000 A 
BRANCH  16  23
ATOM     22  N   UNL     1      47.313   4.278   7.173  0.00  0.00    +0.000 N 
ATOM     23  C   UNL     1      46.329   3.329   7.242  0.00  0.00    +0.000 C 
ATOM     24  O   UNL     1      46.207   2.479   6.371  0.00  0.00    +0.000 OA
ATOM     25  H   UNL     1      47.977   4.173   6.415  0.00  0.00    +0.000 HD
ATOM     26  H   UNL     1      47.610   4.810   7.978  0.00  0.00    +0.000 HD
ENDBRANCH  16  23
ENDBRANCH  15  20
ENDBRANCH   1  15
TORSDOF 5
ENDMDL
