MODEL 1
REMARK VINA RESULT:    -7.199      0.000      0.000
REMARK INTER + INTRA:          -9.434
REMARK INTER:                  -8.882
REMARK INTRA:                  -0.552
REMARK UNBOUND:                -0.552
REMARK  Name = 
REMARK  6 active torsions:
REMARK  status: ('A' for Active; 'I' for Inactive)
REMARK    1  A    between atoms: C_1  and  C_2
REMARK    2  A    between atoms: C_5  and  C_6
REMARK    3  A    between atoms: C_6  and  O_7
REMARK    4  A    between atoms: O_7  and  C_8
REMARK    5  A    between atoms: C_11  and  C_12
REMARK    6  A    between atoms: C_17  and  C_18
REMARK                            x       y       z     vdW  Elec       q    Type
REMARK                         _______ _______ _______ _____ _____    ______ ____
ROOT
ATOM      1  C   UNL     1      44.625   3.940   8.973  0.00  0.00    +0.000 A 
ATOM      2  C   UNL     1      44.705   2.561   9.150  0.00  0.00    +0.000 A 
ATOM      3  N   UNL     1      45.615   1.782   8.507  0.00  0.00    +0.000 NA
ATOM      4  C   UNL     1      46.450   2.465   7.671  0.00  0.00    +0.000 A 
ATOM      5  C   UNL     1      46.374   3.840   7.498  0.00  0.00    +0.000 A 
ATOM      6  N   UNL     1      45.463   4.606   8.146  0.00  0.00    +0.000 NA
ENDROOT
BRANCH   4   7
ATOM      7  C   UNL     1      47.469   1.693   6.911  0.00  0.00    +0.000 C 
ATOM      8  N   UNL     1      48.569   2.393   6.498  0.00  0.00    +0.000 N 
ATOM      9  O   UNL     1      47.337   0.499   6.672  0.00  0.00    +0.000 OA
ATOM     10  H   UNL     1      48.659   3.379   6.714  0.00  0.00    +0.000 HD
ATOM     11  H   UNL     1      49.297   1.913   5.987  0.00  0.00    +0.000 HD
ENDBRANCH   4   7
BRANCH   1  12
ATOM     12  O   UNL     1      43.649   4.626   9.662  0.00  0.00    +0.000 OA
BRANCH  12  13
ATOM     13  C   UNL     1      43.733   4.417  11.077  0.00  0.00    +0.000 C 
BRANCH  13  18
ATOM     14  C   UNL     1      47.501   8.070  13.664  0.00  0.00    +0.000 C 
ATOM     15  C   UNL     1      46.537   7.140  12.993  0.00  0.00    +0.000 A 
ATOM     16  C   UNL     1      45.512   7.629  12.182  0.00  0.00    +0.000 A 
ATOM     17  C   UNL     1      44.616   6.751  11.569  0.00  0.00    +0.000 A 
ATOM     18  C   UNL     1      44.718   5.361  11.749  0.00  0.00    +0.000 A 
ATOM     19  C   UNL     1      45.761   4.858  12.560  0.00  0.00    +0.000 A 
ATOM     20  C   UNL     1      45.976   3.390  12.818  0.00  0.00    +0.000 C 
ATOM     21  C   UNL     1      46.653   5.758  13.172  0.00  0.00    +0.000 A 
ENDBRANCH  13  18
ENDBRANCH  12  13
ENDBRANCH   1  12
TORSDOF 4
ENDMDL
MODEL 2
REMARK VINA RESULT:    -6.896      1.075      2.060
REMARK INTER + INTRA:          -9.061
REMARK INTER:                  -8.886
REMARK INTRA:                  -0.174
REMARK UNBOUND:                -0.552
REMARK  Name = 
REMARK  6 active torsions:
REMARK  status: ('A' for Active; 'I' for Inactive)
REMARK    1  A    between atoms: C_1  and  C_2
REMARK    2  A    between atoms: C_5  and  C_6
REMARK    3  A    between atoms: C_6  and  O_7
REMARK    4  A    between atoms: O_7  and  C_8
REMARK    5  A    between atoms: C_11  and  C_12
REMARK    6  A    between atoms: C_17  and  C_18
REMARK                            x       y       z     vdW  Elec       q    Type
REMARK                         _______ _______ _______ _____ _____    ______ ____
ROOT
ATOM      1  C   UNL     1      44.447   3.084   9.384  0.00  0.00    +0.000 A 
ATOM      2  C   UNL     1      44.824   4.130   8.544  0.00  0.00    +0.000 A 
ATOM      3  N   UNL     1      45.797   4.010   7.602  0.00  0.00    +0.000 NA
ATOM      4  C   UNL     1      46.376   2.776   7.544  0.00  0.00    +0.000 A 
ATOM      5  C   UNL     1      45.997   1.732   8.375  0.00  0.00    +0.000 A 
ATOM      6  N   UNL     1      45.024   1.863   9.311  0.00  0.00    +0.000 NA
ENDROOT
BRANCH   4   7
ATOM      7  C   UNL     1      47.464   2.556   6.553  0.00  0.00    +0.000 C 
ATOM      8  N   UNL     1      47.350   3.241   5.374  0.00  0.00    +0.000 N 
ATOM      9  O   UNL     1      48.408   1.810   6.777  0.00  0.00    +0.000 OA
ATOM     10  H   UNL     1      46.563   3.858   5.214  0.00  0.00    +0.000 HD
ATOM     11  H   UNL     1      48.068   3.135   4.671  0.00  0.00    +0.000 HD
ENDBRANCH   4   7
BRANCH   1  12
ATOM     12  O   UNL     1      43.463   3.325  10.316  0.00  0.00    +0.000 OA
BRANCH  12  13
ATOM     13  C   UNL     1      43.946   3.203  11.660  0.00  0.00    +0.000 C 
BRANCH  13  18
ATOM     14  C   UNL     1      46.972   7.898  13.402  0.00  0.00    +0.000 C 
ATOM     15  C   UNL     1      46.200   6.690  12.965  0.00  0.00    +0.000 A 
ATOM     16  C   UNL     1      46.733   5.408  13.099  0.00  0.00    +0.000 A 
ATOM     17  C   UNL     1      46.005   4.292  12.680  0.00  0.00    +0.000 A 
ATOM     18  C   UNL     1      44.726   4.426  12.114  0.00  0.00    +0.000 A 
ATOM     19  C   UNL     1      44.175   5.722  11.987  0.00  0.00    +0.000 A 
ATOM     20  C   UNL     1      42.811   5.989  11.406  0.00  0.00    +0.000 C 
ATOM     21  C   UNL     1      44.923   6.835  12.412  0.00  0.00    +0.000 A 
ENDBRANCH  13  18
ENDBRANCH  12  13
ENDBRANCH   1  12
TORSDOF 4
ENDMDL
MODEL 3
REMARK VINA RESULT:    -6.840      3.424      6.249
REMARK INTER + INTRA:          -8.991
REMARK INTER:                  -8.618
REMARK INTRA:                  -0.372
REMARK UNBOUND:                -0.552
REMARK  Name = 
REMARK  6 active torsions:
REMARK  status: ('A' for Active; 'I' for Inactive)
REMARK    1  A    between atoms: C_1  and  C_2
REMARK    2  A    between atoms: C_5  and  C_6
REMARK    3  A    between atoms: C_6  and  O_7
REMARK    4  A    between atoms: O_7  and  C_8
REMARK    5  A    between atoms: C_11  and  C_12
REMARK    6  A    between atoms: C_17  and  C_18
REMARK                            x       y       z     vdW  Elec       q    Type
REMARK                         _______ _______ _______ _____ _____    ______ ____
ROOT
ATOM      1  C   UNL     1      45.864   5.739  12.093  0.00  0.00    +0.000 A 
ATOM      2  C   UNL     1      45.167   4.780  12.824  0.00  0.00    +0.000 A 
ATOM      3  N   UNL     1      45.631   4.255  13.990  0.00  0.00    +0.000 NA
ATOM      4  C   UNL     1      46.840   4.747  14.388  0.00  0.00    +0.000 A 
ATOM      5  C   UNL     1      47.532   5.706  13.663  0.00  0.00    +0.000 A 
ATOM      6  N   UNL     1      47.059   6.224  12.503  0.00  0.00    +0.000 NA
ENDROOT
BRANCH   4   7
ATOM      7  C   UNL     1      47.435   4.218  15.644  0.00  0.00    +0.000 C 
ATOM      8  N   UNL     1      47.336   5.027  16.743  0.00  0.00    +0.000 N 
ATOM      9  O   UNL     1      47.977   3.121  15.697  0.00  0.00    +0.000 OA
ATOM     10  H   UNL     1      46.877   5.927  16.677  0.00  0.00    +0.000 HD
ATOM     11  H   UNL     1      47.714   4.710  17.625  0.00  0.00    +0.000 HD
ENDBRANCH   4   7
BRANCH   1  12
ATOM     12  O   UNL     1      45.307   6.185  10.915  0.00  0.00    +0.000 OA
BRANCH  12  13
ATOM     13  C   UNL     1      44.401   5.232  10.347  0.00  0.00    +0.000 C 
BRANCH  13  18
ATOM     14  C   UNL     1      47.082   1.498   6.727  0.00  0.00    +0.000 C 
ATOM     15  C   UNL     1      46.393   2.460   7.646  0.00  0.00    +0.000 A 
ATOM     16  C   UNL     1      46.573   3.837   7.511  0.00  0.00    +0.000 A 
ATOM     17  C   UNL     1      45.930   4.722   8.380  0.00  0.00    +0.000 A 
ATOM     18  C   UNL     1      45.092   4.257   9.407  0.00  0.00    +0.000 A 
ATOM     19  C   UNL     1      44.896   2.864   9.542  0.00  0.00    +0.000 A 
ATOM     20  C   UNL     1      44.015   2.248  10.597  0.00  0.00    +0.000 C 
ATOM     21  C   UNL     1      45.554   1.986   8.659  0.00  0.00    +0.000 A 
ENDBRANCH  13  18
ENDBRANCH  12  13
ENDBRANCH   1  12
TORSDOF 4
ENDMDL
MODEL 4
REMARK VINA RESULT:    -6.477      3.200      6.461
REMARK INTER + INTRA:          -8.543
REMARK INTER:                  -8.034
REMARK INTRA:                  -0.509
REMARK UNBOUND:                -0.552
REMARK  Name = 
REMARK  6 active torsions:
REMARK  status: ('A' for Active; 'I' for Inactive)
REMARK    1  A    between atoms: C_1  and  C_2
REMARK    2  A    between atoms: C_5  and  C_6
REMARK    3  A    between atoms: C_6  and  O_7
REMARK    4  A    between atoms: O_7  and  C_8
REMARK    5  A    between atoms: C_11  and  C_12
REMARK    6  A    between atoms: C_17  and  C_18
REMARK                            x       y       z     vdW  Elec       q    Type
REMARK                         _______ _______ _______ _____ _____    ______ ____
ROOT
ATOM      1  C   UNL     1      45.207   3.733  12.462  0.00  0.00    +0.000 A 
ATOM      2  C   UNL     1      45.113   5.122  12.447  0.00  0.00    +0.000 A 
ATOM      3  N   UNL     1      45.970   5.931  13.125  0.00  0.00    +0.000 NA
ATOM      4  C   UNL     1      46.936   5.268  13.825  0.00  0.00    +0.000 A 
ATOM      5  C   UNL     1      47.034   3.884  13.836  0.00  0.00    +0.000 A 
ATOM      6  N   UNL     1      46.174   3.087  13.154  0.00  0.00    +0.000 NA
ENDROOT
BRANCH   4   7
ATOM      7  C   UNL     1      47.910   6.071  14.612  0.00  0.00    +0.000 C 
ATOM      8  N   UNL     1      47.967   5.802  15.952  0.00  0.00    +0.000 N 
ATOM      9  O   UNL     1      48.623   6.920  14.093  0.00  0.00    +0.000 OA
ATOM     10  H   UNL     1      47.372   5.089  16.357  0.00  0.00    +0.000 HD
ATOM     11  H   UNL     1      48.621   6.311  16.530  0.00  0.00    +0.000 HD
ENDBRANCH   4   7
BRANCH   1  12
ATOM     12  O   UNL     1      44.271   3.012  11.754  0.00  0.00    +0.000 OA
BRANCH  12  13
ATOM     13  C   UNL     1      43.999   3.589  10.470  0.00  0.00    +0.000 C 
BRANCH  13  18
ATOM     14  C   UNL     1      47.617   1.622   6.314  0.00  0.00    +0.000 C 
ATOM     15  C   UNL     1      46.693   2.117   7.385  0.00  0.00    +0.000 A 
ATOM     16  C   UNL     1      45.893   1.234   8.110  0.00  0.00    +0.000 A 
ATOM     17  C   UNL     1      45.031   1.711   9.099  0.00  0.00    +0.000 A 
ATOM     18  C   UNL     1      44.944   3.083   9.391  0.00  0.00    +0.000 A 
ATOM     19  C   UNL     1      45.760   3.982   8.669  0.00  0.00    +0.000 A 
ATOM     20  C   UNL     1      45.761   5.470   8.899  0.00  0.00    +0.000 C 
ATOM     21  C   UNL     1      46.621   3.484   7.672  0.00  0.00    +0.000 A 
ENDBRANCH  13  18
ENDBRANCH  12  13
ENDBRANCH   1  12
TORSDOF 4
ENDMDL
MODEL 5
REMARK VINA RESULT:    -6.206      4.720      6.785
REMARK INTER + INTRA:          -8.209
REMARK INTER:                  -7.856
REMARK INTRA:                  -0.353
REMARK UNBOUND:                -0.552
REMARK  Name = 
REMARK  6 active torsions:
REMARK  status: ('A' for Active; 'I' for Inactive)
REMARK    1  A    between atoms: C_1  and  C_2
REMARK    2  A    between atoms: C_5  and  C_6
REMARK    3  A    between atoms: C_6  and  O_7
REMARK    4  A    between atoms: O_7  and  C_8
REMARK    5  A    between atoms: C_11  and  C_12
REMARK    6  A    between atoms: C_17  and  C_18
REMARK                            x       y       z     vdW  Elec       q    Type
REMARK                         _______ _______ _______ _____ _____    ______ ____
ROOT
ATOM      1  C   UNL     1      46.544   3.799  13.740  0.00  0.00    +0.000 A 
ATOM      2  C   UNL     1      46.493   5.188  13.812  0.00  0.00    +0.000 A 
ATOM      3  N   UNL     1      45.632   5.939  13.073  0.00  0.00    +0.000 NA
ATOM      4  C   UNL     1      44.817   5.214  12.252  0.00  0.00    +0.000 A 
ATOM      5  C   UNL     1      44.863   3.829  12.185  0.00  0.00    +0.000 A 
ATOM      6  N   UNL     1      45.725   3.092  12.928  0.00  0.00    +0.000 NA
ENDROOT
BRANCH   4   7
ATOM      7  C   UNL     1      43.852   5.951  11.393  0.00  0.00    +0.000 C 
ATOM      8  N   UNL     1      43.976   7.314  11.381  0.00  0.00    +0.000 N 
ATOM      9  O   UNL     1      42.999   5.376  10.729  0.00  0.00    +0.000 OA
ATOM     10  H   UNL     1      44.694   7.767  11.933  0.00  0.00    +0.000 HD
ATOM     11  H   UNL     1      43.352   7.861  10.805  0.00  0.00    +0.000 HD
ENDBRANCH   4   7
BRANCH   1  12
ATOM     12  O   UNL     1      47.471   3.144  14.520  0.00  0.00    +0.000 OA
BRANCH  12  13
ATOM     13  C   UNL     1      47.446   3.588  15.883  0.00  0.00    +0.000 C 
BRANCH  13  18
ATOM     14  C   UNL     1      52.658   3.065  18.491  0.00  0.00    +0.000 C 
ATOM     15  C   UNL     1      51.319   3.190  17.827  0.00  0.00    +0.000 A 
ATOM     16  C   UNL     1      50.674   2.074  17.294  0.00  0.00    +0.000 A 
ATOM     17  C   UNL     1      49.431   2.207  16.671  0.00  0.00    +0.000 A 
ATOM     18  C   UNL     1      48.799   3.458  16.565  0.00  0.00    +0.000 A 
ATOM     19  C   UNL     1      49.441   4.590  17.114  0.00  0.00    +0.000 A 
ATOM     20  C   UNL     1      48.858   5.978  17.070  0.00  0.00    +0.000 C 
ATOM     21  C   UNL     1      50.696   4.438  17.735  0.00  0.00    +0.000 A 
ENDBRANCH  13  18
ENDBRANCH  12  13
ENDBRANCH   1  12
TORSDOF 4
ENDMDL
MODEL 6
REMARK VINA RESULT:    -6.093      5.767      8.257
REMARK INTER + INTRA:          -8.069
REMARK INTER:                  -7.774
REMARK INTRA:                  -0.295
REMARK UNBOUND:                -0.552
REMARK  Name = 
REMARK  6 active torsions:
REMARK  status: ('A' for Active; 'I' for Inactive)
REMARK    1  A    between atoms: C_1  and  C_2
REMARK    2  A    between atoms: C_5  and  C_6
REMARK    3  A    between atoms: C_6  and  O_7
REMARK    4  A    between atoms: O_7  and  C_8
REMARK    5  A    between atoms: C_11  and  C_12
REMARK    6  A    between atoms: C_17  and  C_18
REMARK                            x       y       z     vdW  Elec       q    Type
REMARK                         _______ _______ _______ _____ _____    ______ ____
ROOT
ATOM      1  C   UNL     1      47.504   4.075  15.709  0.00  0.00    +0.000 A 
ATOM      2  C   UNL     1      48.091   5.298  16.021  0.00  0.00    +0.000 A 
ATOM      3  N   UNL     1      48.501   5.626  17.276  0.00  0.00    +0.000 NA
ATOM      4  C   UNL     1      48.291   4.653  18.209  0.00  0.00    +0.000 A 
ATOM      5  C   UNL     1      47.711   3.431  17.898  0.00  0.00    +0.000 A 
ATOM      6  N   UNL     1      47.307   3.115  16.643  0.00  0.00    +0.000 NA
ENDROOT
BRANCH   4   7
ATOM      7  C   UNL     1      48.693   4.929  19.614  0.00  0.00    +0.000 C 
ATOM      8  N   UNL     1      48.538   3.896  20.498  0.00  0.00    +0.000 N 
ATOM      9  O   UNL     1      49.142   6.014  19.962  0.00  0.00    +0.000 OA
ATOM     10  H   UNL     1      48.172   3.005  20.185  0.00  0.00    +0.000 HD
ATOM     11  H   UNL     1      48.807   4.028  21.463  0.00  0.00    +0.000 HD
ENDBRANCH   4   7
BRANCH   1  12
ATOM     12  O   UNL     1      47.108   3.859  14.408  0.00  0.00    +0.000 OA
BRANCH  12  13
ATOM     13  C   UNL     1      46.186   4.856  13.948  0.00  0.00    +0.000 C 
BRANCH  13  18
ATOM     14  C   UNL     1      44.495   3.970   8.417  0.00  0.00    +0.000 C 
ATOM     15  C   UNL     1      44.932   4.187   9.834  0.00  0.00    +0.000 A 
ATOM     16  C   UNL     1      44.778   3.187  10.796  0.00  0.00    +0.000 A 
ATOM     17  C   UNL     1      45.183   3.407  12.114  0.00  0.00    +0.000 A 
ATOM     18  C   UNL     1      45.752   4.630  12.509  0.00  0.00    +0.000 A 
ATOM     19  C   UNL     1      45.922   5.642  11.537  0.00  0.00    +0.000 A 
ATOM     20  C   UNL     1      46.527   6.988  11.838  0.00  0.00    +0.000 C 
ATOM     21  C   UNL     1      45.506   5.405  10.213  0.00  0.00    +0.000 A 
ENDBRANCH  13  18
ENDBRANCH  12  13
ENDBRANCH   1  12
TORSDOF 4
ENDMDL
MODEL 7
REMARK VINA RESULT:    -5.965      3.290      5.967
REMARK INTER + INTRA:          -7.912
REMARK INTER:                  -7.704
REMARK INTRA:                  -0.208
REMARK UNBOUND:                -0.552
REMARK  Name = 
REMARK  6 active torsions:
REMARK  status: ('A' for Active; 'I' for Inactive)
REMARK    1  A    between atoms: C_1  and  C_2
REMARK    2  A    between atoms: C_5  and  C_6
REMARK    3  A    between atoms: C_6  and  O_7
REMARK    4  A    between atoms: O_7  and  C_8
REMARK    5  A    between atoms: C_11  and  C_12
REMARK    6  A    between atoms: C_17  and  C_18
REMARK                            x       y       z     vdW  Elec       q    Type
REMARK                         _______ _______ _______ _____ _____    ______ ____
ROOT
ATOM      1  C   UNL     1      45.313   5.695  12.413  0.00  0.00    +0.000 A 
ATOM      2  C   UNL     1      45.805   6.910  11.943  0.00  0.00    +0.000 A 
ATOM      3  N   UNL     1      47.061   7.356  12.214  0.00  0.00    +0.000 NA
ATOM      4  C   UNL     1      47.804   6.511  12.987  0.00  0.00    +0.000 A 
ATOM      5  C   UNL     1      47.316   5.298  13.451  0.00  0.00    +0.000 A 
ATOM      6  N   UNL     1      46.062   4.863  13.172  0.00  0.00    +0.000 NA
ENDROOT
BRANCH   4   7
ATOM      7  C   UNL     1      49.186   6.924  13.349  0.00  0.00    +0.000 C 
ATOM      8  N   UNL     1      49.981   7.335  12.315  0.00  0.00    +0.000 N 
ATOM      9  O   UNL     1      49.591   6.903  14.505  0.00  0.00    +0.000 OA
ATOM     10  H   UNL     1      49.622   7.351  11.368  0.00  0.00    +0.000 HD
ATOM     11  H   UNL     1      50.926   7.637  12.508  0.00  0.00    +0.000 HD
ENDBRANCH   4   7
BRANCH   1  12
ATOM     12  O   UNL     1      44.017   5.353  12.093  0.00  0.00    +0.000 OA
BRANCH  12  13
ATOM     13  C   UNL     1      43.765   5.441  10.684  0.00  0.00    +0.000 C 
BRANCH  13  18
ATOM     14  C   UNL     1      46.531   1.282   7.637  0.00  0.00    +0.000 C 
ATOM     15  C   UNL     1      45.820   2.353   8.409  0.00  0.00    +0.000 A 
ATOM     16  C   UNL     1      45.997   3.701   8.097  0.00  0.00    +0.000 A 
ATOM     17  C   UNL     1      45.334   4.688   8.830  0.00  0.00    +0.000 A 
ATOM     18  C   UNL     1      44.478   4.356   9.894  0.00  0.00    +0.000 A 
ATOM     19  C   UNL     1      44.285   2.991  10.207  0.00  0.00    +0.000 A 
ATOM     20  C   UNL     1      43.386   2.514  11.317  0.00  0.00    +0.000 C 
ATOM     21  C   UNL     1      44.964   2.010   9.460  0.00  0.00    +0.000 A 
ENDBRANCH  13  18
ENDBRANCH  12  13
ENDBRANCH   1  12
TORSDOF 4
ENDMDL
MODEL 8
REMARK VINA RESULT:    -5.905      4.731      6.959
REMARK INTER + INTRA:          -7.838
REMARK INTER:                  -7.490
REMARK INTRA:                  -0.348
REMARK UNBOUND:                -0.552
REMARK  Name = 
REMARK  6 active torsions:
REMARK  status: ('A' for Active; 'I' for Inactive)
REMARK    1  A    between atoms: C_1  and  C_2
REMARK    2  A    between atoms: C_5  and  C_6
REMARK    3  A    between atoms: C_6  and  O_7
REMARK    4  A    between atoms: O_7  and  C_8
REMARK    5  A    between atoms: C_11  and  C_12
REMARK    6  A    between atoms: C_17  and  C_18
REMARK                            x       y       z     vdW  Elec       q    Type
REMARK                         _______ _______ _______ _____ _____    ______ ____
ROOT
ATOM      1  C   UNL     1      47.215   5.616  14.293  0.00  0.00    +0.000 A 
ATOM      2  C   UNL     1      46.859   4.279  14.455  0.00  0.00    +0.000 A 
ATOM      3  N   UNL     1      47.296   3.516  15.492  0.00  0.00    +0.000 NA
ATOM      4  C   UNL     1      48.115   4.170  16.367  0.00  0.00    +0.000 A 
ATOM      5  C   UNL     1      48.465   5.503  16.209  0.00  0.00    +0.000 A 
ATOM      6  N   UNL     1      48.021   6.255  15.172  0.00  0.00    +0.000 NA
ENDROOT
BRANCH   4   7
ATOM      7  C   UNL     1      48.656   3.409  17.525  0.00  0.00    +0.000 C 
ATOM      8  N   UNL     1      47.777   3.159  18.543  0.00  0.00    +0.000 N 
ATOM      9  O   UNL     1      49.817   3.024  17.566  0.00  0.00    +0.000 OA
ATOM     10  H   UNL     1      46.818   3.481  18.483  0.00  0.00    +0.000 HD
ATOM     11  H   UNL     1      48.091   2.636  19.349  0.00  0.00    +0.000 HD
ENDBRANCH   4   7
BRANCH   1  12
ATOM     12  O   UNL     1      46.729   6.287  13.192  0.00  0.00    +0.000 OA
BRANCH  12  13
ATOM     13  C   UNL     1      45.378   5.918  12.884  0.00  0.00    +0.000 C 
BRANCH  13  18
ATOM     14  C   UNL     1      44.907   3.397   7.625  0.00  0.00    +0.000 C 
ATOM     15  C   UNL     1      45.027   4.053   8.968  0.00  0.00    +0.000 A 
ATOM     16  C   UNL     1      45.805   5.197   9.142  0.00  0.00    +0.000 A 
ATOM     17  C   UNL     1      45.914   5.792  10.401  0.00  0.00    +0.000 A 
ATOM     18  C   UNL     1      45.249   5.261  11.519  0.00  0.00    +0.000 A 
ATOM     19  C   UNL     1      44.449   4.108  11.347  0.00  0.00    +0.000 A 
ATOM     20  C   UNL     1      43.683   3.455  12.467  0.00  0.00    +0.000 C 
ATOM     21  C   UNL     1      44.353   3.519  10.072  0.00  0.00    +0.000 A 
ENDBRANCH  13  18
ENDBRANCH  12  13
ENDBRANCH   1  12
TORSDOF 4
ENDMDL
MODEL 9
REMARK VINA RESULT:    -5.778      4.372      6.264
REMARK INTER + INTRA:          -7.681
REMARK INTER:                  -7.294
REMARK INTRA:                  -0.386
REMARK UNBOUND:                -0.552
REMARK  Name = 
REMARK  6 active torsions:
REMARK  status: ('A' for Active; 'I' for Inactive)
REMARK    1  A    between atoms: C_1  and  C_2
REMARK    2  A    between atoms: C_5  and  C_6
REMARK    3  A    between atoms: C_6  and  O_7
REMARK    4  A    between atoms: O_7  and  C_8
REMARK    5  A    between atoms: C_11  and  C_12
REMARK    6  A    between atoms: C_17  and  C_18
REMARK                            x       y       z     vdW  Elec       q    Type
REMARK                         _______ _______ _______ _____ _____    ______ ____
ROOT
ATOM      1  C   UNL     1      46.653   3.993  13.675  0.00  0.00    +0.000 A 
ATOM      2  C   UNL     1      46.453   5.368  13.577  0.00  0.00    +0.000 A 
ATOM      3  N   UNL     1      45.513   5.925  12.768  0.00  0.00    +0.000 NA
ATOM      4  C   UNL     1      44.777   5.023  12.055  0.00  0.00    +0.000 A 
ATOM      5  C   UNL     1      44.972   3.653  12.156  0.00  0.00    +0.000 A 
ATOM      6  N   UNL     1      45.912   3.109  12.968  0.00  0.00    +0.000 NA
ENDROOT
BRANCH   4   7
ATOM      7  C   UNL     1      43.735   5.541  11.129  0.00  0.00    +0.000 C 
ATOM      8  N   UNL     1      43.329   6.830  11.343  0.00  0.00    +0.000 N 
ATOM      9  O   UNL     1      43.269   4.860  10.225  0.00  0.00    +0.000 OA
ATOM     10  H   UNL     1      43.734   7.378  12.093  0.00  0.00    +0.000 HD
ATOM     11  H   UNL     1      42.630   7.235  10.734  0.00  0.00    +0.000 HD
ENDBRANCH   4   7
BRANCH   1  12
ATOM     12  O   UNL     1      47.649   3.542  14.512  0.00  0.00    +0.000 OA
BRANCH  12  13
ATOM     13  C   UNL     1      47.326   3.739  15.895  0.00  0.00    +0.000 C 
BRANCH  13  18
ATOM     14  C   UNL     1      51.675   6.253  18.896  0.00  0.00    +0.000 C 
ATOM     15  C   UNL     1      50.561   5.617  18.120  0.00  0.00    +0.000 A 
ATOM     16  C   UNL     1      49.518   6.384  17.601  0.00  0.00    +0.000 A 
ATOM     17  C   UNL     1      48.482   5.776  16.887  0.00  0.00    +0.000 A 
ATOM     18  C   UNL     1      48.461   4.387  16.673  0.00  0.00    +0.000 A 
ATOM     19  C   UNL     1      49.521   3.607  17.186  0.00  0.00    +0.000 A 
ATOM     20  C   UNL     1      49.612   2.113  17.012  0.00  0.00    +0.000 C 
ATOM     21  C   UNL     1      50.555   4.235  17.906  0.00  0.00    +0.000 A 
ENDBRANCH  13  18
ENDBRANCH  12  13
ENDBRANCH   1  12
TORSDOF 4
ENDMDL
