MODEL 1
REMARK VINA RESULT:    -8.263      0.000      0.000
REMARK INTER + INTRA:         -12.445
REMARK INTER:                 -11.645
REMARK INTRA:                  -0.800
REMARK UNBOUND:                -0.800
REMARK  Name = 
REMARK  7 active torsions:
REMARK  status: ('A' for Active; 'I' for Inactive)
REMARK    1  A    between atoms: C_2  and  C_20
REMARK    2  A    between atoms: N_3  and  C_4
REMARK    3  A    between atoms: C_4  and  C_5
REMARK    4  A    between atoms: C_8  and  C_9
REMARK    5  A    between atoms: C_9  and  N_10
REMARK    6  A    between atoms: N_10  and  C_11
REMARK    7  A    between atoms: C_11  and  C_12
REMARK                            x       y       z     vdW  Elec       q    Type
REMARK                         _______ _______ _______ _____ _____    ______ ____
ROOT
ATOM      1  C   UNL     1      46.803   6.055  13.107  0.00  0.00    +0.000 A 
ATOM      2  C   UNL     1      46.569   6.615  11.850  0.00  0.00    +0.000 A 
ATOM      3  C   UNL     1      45.500   6.182  11.061  0.00  0.00    +0.000 A 
ATOM      4  C   UNL     1      44.637   5.175  11.515  0.00  0.00    +0.000 A 
ATOM      5  C   UNL     1      44.855   4.632  12.789  0.00  0.00    +0.000 A 
ATOM      6  C   UNL     1      45.925   5.072  13.579  0.00  0.00    +0.000 A 
ENDROOT
BRANCH   1   7
ATOM      7  C   UNL     1      47.951   6.543  13.945  0.00  0.00    +0.000 C 
BRANCH   7  10
ATOM      8  O   UNL     1      50.115   6.523  15.760  0.00  0.00    +0.000 OA
ATOM      9  C   UNL     1      49.092   5.898  16.029  0.00  0.00    +0.000 C 
ATOM     10  N   UNL     1      47.982   5.881  15.220  0.00  0.00    +0.000 N 
ATOM     11  H   UNL     1      47.186   5.342  15.548  0.00  0.00    +0.000 HD
BRANCH   9  12
ATOM     12  C   UNL     1      48.957   5.049  17.222  0.00  0.00    +0.000 A 
ATOM     13  N   UNL     1      49.411   3.773  17.246  0.00  0.00    +0.000 NA
ATOM     14  N   UNL     1      49.255   3.408  18.538  0.00  0.00    +0.000 N 
ATOM     15  C   UNL     1      48.736   4.386  19.333  0.00  0.00    +0.000 A 
ATOM     16  N   UNL     1      48.566   4.323  20.667  0.00  0.00    +0.000 NA
ATOM     17  C   UNL     1      48.043   5.466  21.175  0.00  0.00    +0.000 A 
ATOM     18  C   UNL     1      47.650   6.578  20.439  0.00  0.00    +0.000 A 
ATOM     19  C   UNL     1      47.841   6.579  19.056  0.00  0.00    +0.000 A 
ATOM     20  C   UNL     1      48.446   5.446  18.491  0.00  0.00    +0.000 A 
ATOM     21  H   UNL     1      49.551   2.486  18.833  0.00  0.00    +0.000 HD
ENDBRANCH   9  12
ENDBRANCH   7  10
ENDBRANCH   1   7
BRANCH   4  22
ATOM     22  C   UNL     1      43.496   4.693  10.644  0.00  0.00    +0.000 C 
BRANCH  22  23
ATOM     23  N   UNL     1      43.999   4.184   9.369  0.00  0.00    +0.000 NA
ATOM     24  H   UNL     1      44.785   4.765   9.075  0.00  0.00    +0.000 HD
BRANCH  23  25
ATOM     25  C   UNL     1      44.478   2.799   9.481  0.00  0.00    +0.000 C 
BRANCH  25  26
ATOM     26  C   UNL     1      45.545   2.486   8.446  0.00  0.00    +0.000 A 
ATOM     27  C   UNL     1      46.004   3.482   7.586  0.00  0.00    +0.000 A 
ATOM     28  C   UNL     1      47.002   3.177   6.663  0.00  0.00    +0.000 A 
ATOM     29  C   UNL     1      47.508   1.884   6.616  0.00  0.00    +0.000 A 
ATOM     30  C   UNL     1      46.997   0.951   7.499  0.00  0.00    +0.000 A 
ATOM     31  N   UNL     1      46.033   1.219   8.410  0.00  0.00    +0.000 NA
ENDBRANCH  25  26
ENDBRANCH  23  25
ENDBRANCH  22  23
ENDBRANCH   4  22
TORSDOF 7
ENDMDL
MODEL 2
REMARK VINA RESULT:    -7.974      1.374      2.108
REMARK INTER + INTRA:         -12.038
REMARK INTER:                 -10.877
REMARK INTRA:                  -1.160
REMARK UNBOUND:                -0.800
REMARK  Name = 
REMARK  7 active torsions:
REMARK  status: ('A' for Active; 'I' for Inactive)
REMARK    1  A    between atoms: C_2  and  C_20
REMARK    2  A    between atoms: N_3  and  C_4
REMARK    3  A    between atoms: C_4  and  C_5
REMARK    4  A    between atoms: C_8  and  C_9
REMARK    5  A    between atoms: C_9  and  N_10
REMARK    6  A    between atoms: N_10  and  C_11
REMARK    7  A    between atoms: C_11  and  C_12
REMARK                            x       y       z     vdW  Elec       q    Type
REMARK                         _______ _______ _______ _____ _____    ______ ____
ROOT
ATOM      1  C   UNL     1      46.148   6.610  12.522  0.00  0.00    +0.000 A 
ATOM      2  C   UNL     1      45.572   5.671  13.380  0.00  0.00    +0.000 A 
ATOM      3  C   UNL     1      44.733   4.670  12.886  0.00  0.00    +0.000 A 
ATOM      4  C   UNL     1      44.449   4.585  11.515  0.00  0.00    +0.000 A 
ATOM      5  C   UNL     1      45.050   5.511  10.650  0.00  0.00    +0.000 A 
ATOM      6  C   UNL     1      45.894   6.510  11.149  0.00  0.00    +0.000 A 
ENDROOT
BRANCH   1   7
ATOM      7  C   UNL     1      47.057   7.672  13.073  0.00  0.00    +0.000 C 
BRANCH   7  10
ATOM      8  O   UNL     1      49.714   6.999  13.754  0.00  0.00    +0.000 OA
ATOM      9  C   UNL     1      48.843   6.975  14.619  0.00  0.00    +0.000 C 
ATOM     10  N   UNL     1      47.534   7.319  14.382  0.00  0.00    +0.000 N 
ATOM     11  H   UNL     1      46.900   7.276  15.175  0.00  0.00    +0.000 HD
BRANCH   9  12
ATOM     12  C   UNL     1      49.086   6.520  15.996  0.00  0.00    +0.000 A 
ATOM     13  N   UNL     1      49.791   7.265  16.880  0.00  0.00    +0.000 NA
ATOM     14  N   UNL     1      49.643   6.595  18.045  0.00  0.00    +0.000 N 
ATOM     15  C   UNL     1      48.877   5.473  17.946  0.00  0.00    +0.000 A 
ATOM     16  N   UNL     1      48.493   4.677  18.962  0.00  0.00    +0.000 NA
ATOM     17  C   UNL     1      47.717   3.647  18.546  0.00  0.00    +0.000 A 
ATOM     18  C   UNL     1      47.379   3.363  17.227  0.00  0.00    +0.000 A 
ATOM     19  C   UNL     1      47.817   4.219  16.216  0.00  0.00    +0.000 A 
ATOM     20  C   UNL     1      48.565   5.342  16.604  0.00  0.00    +0.000 A 
ATOM     21  H   UNL     1      50.061   6.967  18.889  0.00  0.00    +0.000 HD
ENDBRANCH   9  12
ENDBRANCH   7  10
ENDBRANCH   1   7
BRANCH   4  22
ATOM     22  C   UNL     1      43.518   3.512  10.989  0.00  0.00    +0.000 C 
BRANCH  22  23
ATOM     23  N   UNL     1      43.846   3.178   9.604  0.00  0.00    +0.000 NA
ATOM     24  H   UNL     1      44.335   3.971   9.186  0.00  0.00    +0.000 HD
BRANCH  23  25
ATOM     25  C   UNL     1      44.728   2.006   9.516  0.00  0.00    +0.000 C 
BRANCH  25  26
ATOM     26  C   UNL     1      45.725   2.135   8.376  0.00  0.00    +0.000 A 
ATOM     27  C   UNL     1      45.838   3.334   7.674  0.00  0.00    +0.000 A 
ATOM     28  C   UNL     1      46.778   3.436   6.651  0.00  0.00    +0.000 A 
ATOM     29  C   UNL     1      47.572   2.338   6.349  0.00  0.00    +0.000 A 
ATOM     30  C   UNL     1      47.396   1.183   7.088  0.00  0.00    +0.000 A 
ATOM     31  N   UNL     1      46.496   1.056   8.091  0.00  0.00    +0.000 NA
ENDBRANCH  25  26
ENDBRANCH  23  25
ENDBRANCH  22  23
ENDBRANCH   4  22
TORSDOF 7
ENDMDL
MODEL 3
REMARK VINA RESULT:    -7.919      2.920      5.492
REMARK INTER + INTRA:         -11.960
REMARK INTER:                 -11.992
REMARK INTRA:                   0.032
REMARK UNBOUND:                -0.800
REMARK  Name = 
REMARK  7 active torsions:
REMARK  status: ('A' for Active; 'I' for Inactive)
REMARK    1  A    between atoms: C_2  and  C_20
REMARK    2  A    between atoms: N_3  and  C_4
REMARK    3  A    between atoms: C_4  and  C_5
REMARK    4  A    between atoms: C_8  and  C_9
REMARK    5  A    between atoms: C_9  and  N_10
REMARK    6  A    between atoms: N_10  and  C_11
REMARK    7  A    between atoms: C_11  and  C_12
REMARK                            x       y       z     vdW  Elec       q    Type
REMARK                         _______ _______ _______ _____ _____    ______ ____
ROOT
ATOM      1  C   UNL     1      45.094   3.529   9.040  0.00  0.00    +0.000 A 
ATOM      2  C   UNL     1      45.908   4.058   8.037  0.00  0.00    +0.000 A 
ATOM      3  C   UNL     1      46.683   3.223   7.229  0.00  0.00    +0.000 A 
ATOM      4  C   UNL     1      46.660   1.832   7.406  0.00  0.00    +0.000 A 
ATOM      5  C   UNL     1      45.820   1.298   8.394  0.00  0.00    +0.000 A 
ATOM      6  C   UNL     1      45.042   2.138   9.200  0.00  0.00    +0.000 A 
ENDROOT
BRANCH   1   7
ATOM      7  C   UNL     1      44.259   4.444   9.891  0.00  0.00    +0.000 C 
BRANCH   7  10
ATOM      8  O   UNL     1      46.084   6.320  10.950  0.00  0.00    +0.000 OA
ATOM      9  C   UNL     1      45.660   5.418  11.666  0.00  0.00    +0.000 C 
ATOM     10  N   UNL     1      44.746   4.484  11.242  0.00  0.00    +0.000 N 
ATOM     11  H   UNL     1      44.453   3.789  11.924  0.00  0.00    +0.000 HD
BRANCH   9  12
ATOM     12  C   UNL     1      46.123   5.196  13.045  0.00  0.00    +0.000 A 
ATOM     13  N   UNL     1      45.683   4.152  13.786  0.00  0.00    +0.000 NA
ATOM     14  N   UNL     1      46.455   4.205  14.894  0.00  0.00    +0.000 N 
ATOM     15  C   UNL     1      47.364   5.221  14.889  0.00  0.00    +0.000 A 
ATOM     16  N   UNL     1      48.313   5.447  15.817  0.00  0.00    +0.000 NA
ATOM     17  C   UNL     1      49.077   6.527  15.521  0.00  0.00    +0.000 A 
ATOM     18  C   UNL     1      48.902   7.374  14.432  0.00  0.00    +0.000 A 
ATOM     19  C   UNL     1      47.893   7.094  13.510  0.00  0.00    +0.000 A 
ATOM     20  C   UNL     1      47.119   5.945  13.735  0.00  0.00    +0.000 A 
ATOM     21  H   UNL     1      46.342   3.502  15.614  0.00  0.00    +0.000 HD
ENDBRANCH   9  12
ENDBRANCH   7  10
ENDBRANCH   1   7
BRANCH   4  22
ATOM     22  C   UNL     1      47.521   0.935   6.542  0.00  0.00    +0.000 C 
BRANCH  22  23
ATOM     23  N   UNL     1      48.084   1.684   5.420  0.00  0.00    +0.000 NA
ATOM     24  H   UNL     1      48.802   1.110   4.975  0.00  0.00    +0.000 HD
BRANCH  23  25
ATOM     25  C   UNL     1      47.068   2.003   4.408  0.00  0.00    +0.000 C 
BRANCH  25  26
ATOM     26  C   UNL     1      46.654   0.773   3.617  0.00  0.00    +0.000 A 
ATOM     27  C   UNL     1      45.548   0.821   2.770  0.00  0.00    +0.000 A 
ATOM     28  C   UNL     1      45.205  -0.311   2.035  0.00  0.00    +0.000 A 
ATOM     29  C   UNL     1      45.967  -1.464   2.172  0.00  0.00    +0.000 A 
ATOM     30  C   UNL     1      47.045  -1.434   3.037  0.00  0.00    +0.000 A 
ATOM     31  N   UNL     1      47.407  -0.348   3.758  0.00  0.00    +0.000 NA
ENDBRANCH  25  26
ENDBRANCH  23  25
ENDBRANCH  22  23
ENDBRANCH   4  22
TORSDOF 7
ENDMDL
MODEL 4
REMARK VINA RESULT:    -7.458      1.949      3.004
REMARK INTER + INTRA:         -11.311
REMARK INTER:                 -10.532
REMARK INTRA:                  -0.779
REMARK UNBOUND:                -0.800
REMARK  Name = 
REMARK  7 active torsions:
REMARK  status: ('A' for Active; 'I' for Inactive)
REMARK    1  A    between atoms: C_2  and  C_20
REMARK    2  A    between atoms: N_3  and  C_4
REMARK    3  A    between atoms: C_4  and  C_5
REMARK    4  A    between atoms: C_8  and  C_9
REMARK    5  A    between atoms: C_9  and  N_10
REMARK    6  A    between atoms: N_10  and  C_11
REMARK    7  A    between atoms: C_11  and  C_12
REMARK                            x       y       z     vdW  Elec       q    Type
REMARK                         _______ _______ _______ _____ _____    ______ ____
ROOT
ATOM      1  C   UNL     1      45.013   5.216  11.657  0.00  0.00    +0.000 A 
ATOM      2  C   UNL     1      44.478   3.946  11.431  0.00  0.00    +0.000 A 
ATOM      3  C   UNL     1      44.555   3.350  10.170  0.00  0.00    +0.000 A 
ATOM      4  C   UNL     1      45.173   4.014   9.101  0.00  0.00    +0.000 A 
ATOM      5  C   UNL     1      45.736   5.277   9.335  0.00  0.00    +0.000 A 
ATOM      6  C   UNL     1      45.660   5.869  10.601  0.00  0.00    +0.000 A 
ENDROOT
BRANCH   1   7
ATOM      7  C   UNL     1      44.929   5.834  13.024  0.00  0.00    +0.000 C 
BRANCH   7  10
ATOM      8  O   UNL     1      47.567   6.156  13.977  0.00  0.00    +0.000 OA
ATOM      9  C   UNL     1      46.884   5.223  14.391  0.00  0.00    +0.000 C 
ATOM     10  N   UNL     1      45.582   5.012  14.006  0.00  0.00    +0.000 N 
ATOM     11  H   UNL     1      45.106   4.217  14.422  0.00  0.00    +0.000 HD
BRANCH   9  12
ATOM     12  C   UNL     1      47.397   4.190  15.303  0.00  0.00    +0.000 A 
ATOM     13  N   UNL     1      47.714   2.947  14.867  0.00  0.00    +0.000 NA
ATOM     14  N   UNL     1      48.294   2.374  15.946  0.00  0.00    +0.000 N 
ATOM     15  C   UNL     1      48.367   3.190  17.035  0.00  0.00    +0.000 A 
ATOM     16  N   UNL     1      48.975   2.908  18.203  0.00  0.00    +0.000 NA
ATOM     17  C   UNL     1      48.893   3.932  19.088  0.00  0.00    +0.000 A 
ATOM     18  C   UNL     1      48.217   5.130  18.885  0.00  0.00    +0.000 A 
ATOM     19  C   UNL     1      47.596   5.359  17.657  0.00  0.00    +0.000 A 
ATOM     20  C   UNL     1      47.713   4.357  16.682  0.00  0.00    +0.000 A 
ATOM     21  H   UNL     1      48.653   1.430  15.875  0.00  0.00    +0.000 HD
ENDBRANCH   9  12
ENDBRANCH   7  10
ENDBRANCH   1   7
BRANCH   4  22
ATOM     22  C   UNL     1      45.231   3.373   7.730  0.00  0.00    +0.000 C 
BRANCH  22  23
ATOM     23  N   UNL     1      46.300   3.966   6.928  0.00  0.00    +0.000 NA
ATOM     24  H   UNL     1      46.601   4.832   7.378  0.00  0.00    +0.000 HD
BRANCH  23  25
ATOM     25  C   UNL     1      47.467   3.080   6.826  0.00  0.00    +0.000 C 
BRANCH  25  26
ATOM     26  C   UNL     1      47.216   1.924   5.872  0.00  0.00    +0.000 A 
ATOM     27  C   UNL     1      46.949   2.169   4.526  0.00  0.00    +0.000 A 
ATOM     28  C   UNL     1      46.749   1.091   3.666  0.00  0.00    +0.000 A 
ATOM     29  C   UNL     1      46.810  -0.200   4.173  0.00  0.00    +0.000 A 
ATOM     30  C   UNL     1      47.074  -0.360   5.520  0.00  0.00    +0.000 A 
ATOM     31  N   UNL     1      47.279   0.666   6.378  0.00  0.00    +0.000 NA
ENDBRANCH  25  26
ENDBRANCH  23  25
ENDBRANCH  22  23
ENDBRANCH   4  22
TORSDOF 7
ENDMDL
MODEL 5
REMARK VINA RESULT:    -7.201      2.562      9.540
REMARK INTER + INTRA:         -10.948
REMARK INTER:                 -10.289
REMARK INTRA:                  -0.659
REMARK UNBOUND:                -0.800
REMARK  Name = 
REMARK  7 active torsions:
REMARK  status: ('A' for Active; 'I' for Inactive)
REMARK    1  A    between atoms: C_2  and  C_20
REMARK    2  A    between atoms: N_3  and  C_4
REMARK    3  A    between atoms: C_4  and  C_5
REMARK    4  A    between atoms: C_8  and  C_9
REMARK    5  A    between atoms: C_9  and  N_10
REMARK    6  A    between atoms: N_10  and  C_11
REMARK    7  A    between atoms: C_11  and  C_12
REMARK                            x       y       z     vdW  Elec       q    Type
REMARK                         _______ _______ _______ _____ _____    ______ ____
ROOT
ATOM      1  C   UNL     1      45.357   6.429  12.104  0.00  0.00    +0.000 A 
ATOM      2  C   UNL     1      46.172   5.562  12.834  0.00  0.00    +0.000 A 
ATOM      3  C   UNL     1      47.158   6.057  13.691  0.00  0.00    +0.000 A 
ATOM      4  C   UNL     1      47.350   7.438  13.839  0.00  0.00    +0.000 A 
ATOM      5  C   UNL     1      46.512   8.309  13.128  0.00  0.00    +0.000 A 
ATOM      6  C   UNL     1      45.523   7.809  12.273  0.00  0.00    +0.000 A 
ENDROOT
BRANCH   1   7
ATOM      7  C   UNL     1      44.295   5.874  11.196  0.00  0.00    +0.000 C 
BRANCH   7  10
ATOM      8  O   UNL     1      44.635   3.162  10.489  0.00  0.00    +0.000 OA
ATOM      9  C   UNL     1      45.020   4.040   9.722  0.00  0.00    +0.000 C 
ATOM     10  N   UNL     1      44.865   5.382   9.972  0.00  0.00    +0.000 N 
ATOM     11  H   UNL     1      45.208   6.022   9.261  0.00  0.00    +0.000 HD
BRANCH   9  12
ATOM     12  C   UNL     1      45.744   3.760   8.473  0.00  0.00    +0.000 A 
ATOM     13  N   UNL     1      46.251   4.753   7.703  0.00  0.00    +0.000 NA
ATOM     14  N   UNL     1      46.968   4.091   6.768  0.00  0.00    +0.000 N 
ATOM     15  C   UNL     1      46.949   2.736   6.910  0.00  0.00    +0.000 A 
ATOM     16  N   UNL     1      47.648   1.847   6.179  0.00  0.00    +0.000 NA
ATOM     17  C   UNL     1      47.431   0.569   6.574  0.00  0.00    +0.000 A 
ATOM     18  C   UNL     1      46.550   0.164   7.571  0.00  0.00    +0.000 A 
ATOM     19  C   UNL     1      45.844   1.132   8.287  0.00  0.00    +0.000 A 
ATOM     20  C   UNL     1      46.088   2.475   7.962  0.00  0.00    +0.000 A 
ATOM     21  H   UNL     1      47.481   4.616   6.071  0.00  0.00    +0.000 HD
ENDBRANCH   9  12
ENDBRANCH   7  10
ENDBRANCH   1   7
BRANCH   4  22
ATOM     22  C   UNL     1      48.437   7.968  14.751  0.00  0.00    +0.000 C 
BRANCH  22  23
ATOM     23  N   UNL     1      49.379   6.907  15.101  0.00  0.00    +0.000 NA
ATOM     24  H   UNL     1      50.313   7.192  14.803  0.00  0.00    +0.000 HD
BRANCH  23  25
ATOM     25  C   UNL     1      49.422   6.666  16.550  0.00  0.00    +0.000 C 
BRANCH  25  26
ATOM     26  C   UNL     1      49.615   5.193  16.872  0.00  0.00    +0.000 A 
ATOM     27  C   UNL     1      50.781   4.759  17.501  0.00  0.00    +0.000 A 
ATOM     28  C   UNL     1      50.924   3.408  17.809  0.00  0.00    +0.000 A 
ATOM     29  C   UNL     1      49.905   2.525  17.473  0.00  0.00    +0.000 A 
ATOM     30  C   UNL     1      48.784   3.033  16.844  0.00  0.00    +0.000 A 
ATOM     31  N   UNL     1      48.614   4.340  16.538  0.00  0.00    +0.000 NA
ENDBRANCH  25  26
ENDBRANCH  23  25
ENDBRANCH  22  23
ENDBRANCH   4  22
TORSDOF 7
ENDMDL
MODEL 6
REMARK VINA RESULT:    -7.130      2.526      9.980
REMARK INTER + INTRA:         -10.849
REMARK INTER:                 -10.406
REMARK INTRA:                  -0.443
REMARK UNBOUND:                -0.800
REMARK  Name = 
REMARK  7 active torsions:
REMARK  status: ('A' for Active; 'I' for Inactive)
REMARK    1  A    between atoms: C_2  and  C_20
REMARK    2  A    between atoms: N_3  and  C_4
REMARK    3  A    between atoms: C_4  and  C_5
REMARK    4  A    between atoms: C_8  and  C_9
REMARK    5  A    between atoms: C_9  and  N_10
REMARK    6  A    between atoms: N_10  and  C_11
REMARK    7  A    between atoms: C_11  and  C_12
REMARK                            x       y       z     vdW  Elec       q    Type
REMARK                         _______ _______ _______ _____ _____    ______ ____
ROOT
ATOM      1  C   UNL     1      45.363   5.037  11.339  0.00  0.00    +0.000 A 
ATOM      2  C   UNL     1      45.228   4.265  12.494  0.00  0.00    +0.000 A 
ATOM      3  C   UNL     1      45.975   4.551  13.638  0.00  0.00    +0.000 A 
ATOM      4  C   UNL     1      46.879   5.623  13.654  0.00  0.00    +0.000 A 
ATOM      5  C   UNL     1      46.994   6.416  12.503  0.00  0.00    +0.000 A 
ATOM      6  C   UNL     1      46.240   6.128  11.359  0.00  0.00    +0.000 A 
ENDROOT
BRANCH   1   7
ATOM      7  C   UNL     1      44.540   4.719  10.122  0.00  0.00    +0.000 C 
BRANCH   7  10
ATOM      8  O   UNL     1      43.993   1.972   9.765  0.00  0.00    +0.000 OA
ATOM      9  C   UNL     1      44.924   2.488   9.154  0.00  0.00    +0.000 C 
ATOM     10  N   UNL     1      45.239   3.822   9.243  0.00  0.00    +0.000 N 
ATOM     11  H   UNL     1      46.022   4.145   8.681  0.00  0.00    +0.000 HD
BRANCH   9  12
ATOM     12  C   UNL     1      45.848   1.727   8.298  0.00  0.00    +0.000 A 
ATOM     13  N   UNL     1      46.071   0.404   8.488  0.00  0.00    +0.000 NA
ATOM     14  N   UNL     1      46.824   0.057   7.420  0.00  0.00    +0.000 N 
ATOM     15  C   UNL     1      47.080   1.085   6.563  0.00  0.00    +0.000 A 
ATOM     16  N   UNL     1      47.721   0.998   5.382  0.00  0.00    +0.000 NA
ATOM     17  C   UNL     1      47.804   2.194   4.751  0.00  0.00    +0.000 A 
ATOM     18  C   UNL     1      47.353   3.411   5.250  0.00  0.00    +0.000 A 
ATOM     19  C   UNL     1      46.706   3.439   6.487  0.00  0.00    +0.000 A 
ATOM     20  C   UNL     1      46.532   2.214   7.148  0.00  0.00    +0.000 A 
ATOM     21  H   UNL     1      47.110  -0.908   7.306  0.00  0.00    +0.000 HD
ENDBRANCH   9  12
ENDBRANCH   7  10
ENDBRANCH   1   7
BRANCH   4  22
ATOM     22  C   UNL     1      47.705   5.912  14.890  0.00  0.00    +0.000 C 
BRANCH  22  23
ATOM     23  N   UNL     1      47.717   4.756  15.785  0.00  0.00    +0.000 NA
ATOM     24  H   UNL     1      48.226   3.998  15.328  0.00  0.00    +0.000 HD
BRANCH  23  25
ATOM     25  C   UNL     1      48.392   5.052  17.056  0.00  0.00    +0.000 C 
BRANCH  25  26
ATOM     26  C   UNL     1      49.582   4.136  17.289  0.00  0.00    +0.000 A 
ATOM     27  C   UNL     1      49.438   2.754  17.175  0.00  0.00    +0.000 A 
ATOM     28  C   UNL     1      50.550   1.937  17.368  0.00  0.00    +0.000 A 
ATOM     29  C   UNL     1      51.772   2.519  17.679  0.00  0.00    +0.000 A 
ATOM     30  C   UNL     1      51.832   3.897  17.781  0.00  0.00    +0.000 A 
ATOM     31  N   UNL     1      50.771   4.716  17.593  0.00  0.00    +0.000 NA
ENDBRANCH  25  26
ENDBRANCH  23  25
ENDBRANCH  22  23
ENDBRANCH   4  22
TORSDOF 7
ENDMDL
MODEL 7
REMARK VINA RESULT:    -6.772      2.260      2.621
REMARK INTER + INTRA:         -10.344
REMARK INTER:                  -9.538
REMARK INTRA:                  -0.806
REMARK UNBOUND:                -0.800
REMARK  Name = 
REMARK  7 active torsions:
REMARK  status: ('A' for Active; 'I' for Inactive)
REMARK    1  A    between atoms: C_2  and  C_20
REMARK    2  A    between atoms: N_3  and  C_4
REMARK    3  A    between atoms: C_4  and  C_5
REMARK    4  A    between atoms: C_8  and  C_9
REMARK    5  A    between atoms: C_9  and  N_10
REMARK    6  A    between atoms: N_10  and  C_11
REMARK    7  A    between atoms: C_11  and  C_12
REMARK                            x       y       z     vdW  Elec       q    Type
REMARK                         _______ _______ _______ _____ _____    ______ ____
ROOT
ATOM      1  C   UNL     1      47.131   6.777  13.132  0.00  0.00    +0.000 A 
ATOM      2  C   UNL     1      46.494   6.809  11.890  0.00  0.00    +0.000 A 
ATOM      3  C   UNL     1      45.790   5.699  11.417  0.00  0.00    +0.000 A 
ATOM      4  C   UNL     1      45.704   4.527  12.182  0.00  0.00    +0.000 A 
ATOM      5  C   UNL     1      46.319   4.505  13.442  0.00  0.00    +0.000 A 
ATOM      6  C   UNL     1      47.021   5.620  13.913  0.00  0.00    +0.000 A 
ENDROOT
BRANCH   1   7
ATOM      7  C   UNL     1      47.874   7.987  13.626  0.00  0.00    +0.000 C 
BRANCH   7  10
ATOM      8  O   UNL     1      50.055   7.907  15.418  0.00  0.00    +0.000 OA
ATOM      9  C   UNL     1      48.914   8.012  15.858  0.00  0.00    +0.000 C 
ATOM     10  N   UNL     1      47.800   8.092  15.058  0.00  0.00    +0.000 N 
ATOM     11  H   UNL     1      46.905   8.191  15.529  0.00  0.00    +0.000 HD
BRANCH   9  12
ATOM     12  C   UNL     1      48.600   8.009  17.295  0.00  0.00    +0.000 A 
ATOM     13  N   UNL     1      48.809   6.917  18.069  0.00  0.00    +0.000 NA
ATOM     14  N   UNL     1      48.564   7.366  19.320  0.00  0.00    +0.000 N 
ATOM     15  C   UNL     1      48.220   8.684  19.379  0.00  0.00    +0.000 A 
ATOM     16  N   UNL     1      48.015   9.406  20.497  0.00  0.00    +0.000 NA
ATOM     17  C   UNL     1      47.704  10.696  20.228  0.00  0.00    +0.000 A 
ATOM     18  C   UNL     1      47.538  11.247  18.962  0.00  0.00    +0.000 A 
ATOM     19  C   UNL     1      47.753  10.445  17.840  0.00  0.00    +0.000 A 
ATOM     20  C   UNL     1      48.148   9.118  18.066  0.00  0.00    +0.000 A 
ATOM     21  H   UNL     1      48.678   6.738  20.105  0.00  0.00    +0.000 HD
ENDBRANCH   9  12
ENDBRANCH   7  10
ENDBRANCH   1   7
BRANCH   4  22
ATOM     22  C   UNL     1      44.960   3.319  11.652  0.00  0.00    +0.000 C 
BRANCH  22  23
ATOM     23  N   UNL     1      44.346   3.616  10.359  0.00  0.00    +0.000 NA
ATOM     24  H   UNL     1      44.910   4.326   9.888  0.00  0.00    +0.000 HD
BRANCH  23  25
ATOM     25  C   UNL     1      44.293   2.433   9.491  0.00  0.00    +0.000 C 
BRANCH  25  26
ATOM     26  C   UNL     1      45.432   2.420   8.484  0.00  0.00    +0.000 A 
ATOM     27  C   UNL     1      45.767   3.581   7.788  0.00  0.00    +0.000 A 
ATOM     28  C   UNL     1      46.831   3.551   6.890  0.00  0.00    +0.000 A 
ATOM     29  C   UNL     1      47.526   2.363   6.702  0.00  0.00    +0.000 A 
ATOM     30  C   UNL     1      47.128   1.254   7.425  0.00  0.00    +0.000 A 
ATOM     31  N   UNL     1      46.103   1.254   8.309  0.00  0.00    +0.000 NA
ENDBRANCH  25  26
ENDBRANCH  23  25
ENDBRANCH  22  23
ENDBRANCH   4  22
TORSDOF 7
ENDMDL
MODEL 8
REMARK VINA RESULT:    -6.624      5.040      8.284
REMARK INTER + INTRA:         -10.135
REMARK INTER:                  -9.048
REMARK INTRA:                  -1.087
REMARK UNBOUND:                -0.800
REMARK  Name = 
REMARK  7 active torsions:
REMARK  status: ('A' for Active; 'I' for Inactive)
REMARK    1  A    between atoms: C_2  and  C_20
REMARK    2  A    between atoms: N_3  and  C_4
REMARK    3  A    between atoms: C_4  and  C_5
REMARK    4  A    between atoms: C_8  and  C_9
REMARK    5  A    between atoms: C_9  and  N_10
REMARK    6  A    between atoms: N_10  and  C_11
REMARK    7  A    between atoms: C_11  and  C_12
REMARK                            x       y       z     vdW  Elec       q    Type
REMARK                         _______ _______ _______ _____ _____    ______ ____
ROOT
ATOM      1  C   UNL     1      45.867   9.795  12.163  0.00  0.00    +0.000 A 
ATOM      2  C   UNL     1      44.716   9.182  11.665  0.00  0.00    +0.000 A 
ATOM      3  C   UNL     1      43.959   9.789  10.660  0.00  0.00    +0.000 A 
ATOM      4  C   UNL     1      44.340  11.029  10.127  0.00  0.00    +0.000 A 
ATOM      5  C   UNL     1      45.512  11.630  10.606  0.00  0.00    +0.000 A 
ATOM      6  C   UNL     1      46.270  11.017  11.611  0.00  0.00    +0.000 A 
ENDROOT
BRANCH   1   7
ATOM      7  C   UNL     1      46.673   9.119  13.237  0.00  0.00    +0.000 C 
BRANCH   7  10
ATOM      8  O   UNL     1      48.316   7.029  12.283  0.00  0.00    +0.000 OA
ATOM      9  C   UNL     1      47.225   6.763  12.781  0.00  0.00    +0.000 C 
ATOM     10  N   UNL     1      46.379   7.714  13.299  0.00  0.00    +0.000 N 
ATOM     11  H   UNL     1      45.507   7.380  13.700  0.00  0.00    +0.000 HD
BRANCH   9  12
ATOM     12  C   UNL     1      46.672   5.401  12.830  0.00  0.00    +0.000 A 
ATOM     13  N   UNL     1      47.216   4.437  13.611  0.00  0.00    +0.000 NA
ATOM     14  N   UNL     1      46.338   3.415  13.507  0.00  0.00    +0.000 N 
ATOM     15  C   UNL     1      45.265   3.684  12.710  0.00  0.00    +0.000 A 
ATOM     16  N   UNL     1      44.201   2.884  12.508  0.00  0.00    +0.000 NA
ATOM     17  C   UNL     1      43.288   3.441  11.676  0.00  0.00    +0.000 A 
ATOM     18  C   UNL     1      43.416   4.664  11.028  0.00  0.00    +0.000 A 
ATOM     19  C   UNL     1      44.549   5.444  11.268  0.00  0.00    +0.000 A 
ATOM     20  C   UNL     1      45.491   4.943  12.180  0.00  0.00    +0.000 A 
ATOM     21  H   UNL     1      46.502   2.563  14.028  0.00  0.00    +0.000 HD
ENDBRANCH   9  12
ENDBRANCH   7  10
ENDBRANCH   1   7
BRANCH   4  22
ATOM     22  C   UNL     1      43.501  11.693   9.055  0.00  0.00    +0.000 C 
BRANCH  22  23
ATOM     23  N   UNL     1      42.095  11.318   9.194  0.00  0.00    +0.000 NA
ATOM     24  H   UNL     1      42.042  10.450   9.729  0.00  0.00    +0.000 HD
BRANCH  23  25
ATOM     25  C   UNL     1      41.323  12.340   9.915  0.00  0.00    +0.000 C 
BRANCH  25  26
ATOM     26  C   UNL     1      40.224  11.722  10.764  0.00  0.00    +0.000 A 
ATOM     27  C   UNL     1      39.923  12.253  12.017  0.00  0.00    +0.000 A 
ATOM     28  C   UNL     1      38.893  11.686  12.766  0.00  0.00    +0.000 A 
ATOM     29  C   UNL     1      38.199  10.600  12.248  0.00  0.00    +0.000 A 
ATOM     30  C   UNL     1      38.562  10.128  11.001  0.00  0.00    +0.000 A 
ATOM     31  N   UNL     1      39.552  10.662  10.248  0.00  0.00    +0.000 NA
ENDBRANCH  25  26
ENDBRANCH  23  25
ENDBRANCH  22  23
ENDBRANCH   4  22
TORSDOF 7
ENDMDL
MODEL 9
REMARK VINA RESULT:    -6.496      4.932      6.870
REMARK INTER + INTRA:          -9.955
REMARK INTER:                  -8.959
REMARK INTRA:                  -0.996
REMARK UNBOUND:                -0.800
REMARK  Name = 
REMARK  7 active torsions:
REMARK  status: ('A' for Active; 'I' for Inactive)
REMARK    1  A    between atoms: C_2  and  C_20
REMARK    2  A    between atoms: N_3  and  C_4
REMARK    3  A    between atoms: C_4  and  C_5
REMARK    4  A    between atoms: C_8  and  C_9
REMARK    5  A    between atoms: C_9  and  N_10
REMARK    6  A    between atoms: N_10  and  C_11
REMARK    7  A    between atoms: C_11  and  C_12
REMARK                            x       y       z     vdW  Elec       q    Type
REMARK                         _______ _______ _______ _____ _____    ______ ____
ROOT
ATOM      1  C   UNL     1      47.882   8.447  11.988  0.00  0.00    +0.000 A 
ATOM      2  C   UNL     1      46.618   8.969  12.268  0.00  0.00    +0.000 A 
ATOM      3  C   UNL     1      45.548   8.126  12.577  0.00  0.00    +0.000 A 
ATOM      4  C   UNL     1      45.719   6.735  12.614  0.00  0.00    +0.000 A 
ATOM      5  C   UNL     1      46.995   6.212  12.361  0.00  0.00    +0.000 A 
ATOM      6  C   UNL     1      48.066   7.060  12.056  0.00  0.00    +0.000 A 
ENDROOT
BRANCH   1   7
ATOM      7  C   UNL     1      49.023   9.372  11.670  0.00  0.00    +0.000 C 
BRANCH   7  10
ATOM      8  O   UNL     1      51.419  10.305  10.503  0.00  0.00    +0.000 OA
ATOM      9  C   UNL     1      51.380   9.177  10.985  0.00  0.00    +0.000 C 
ATOM     10  N   UNL     1      50.267   8.656  11.601  0.00  0.00    +0.000 N 
ATOM     11  H   UNL     1      50.351   7.717  11.977  0.00  0.00    +0.000 HD
BRANCH   9  12
ATOM     12  C   UNL     1      52.502   8.228  10.910  0.00  0.00    +0.000 A 
ATOM     13  N   UNL     1      53.291   7.971  11.980  0.00  0.00    +0.000 NA
ATOM     14  N   UNL     1      54.068   6.948  11.558  0.00  0.00    +0.000 N 
ATOM     15  C   UNL     1      53.807   6.541  10.284  0.00  0.00    +0.000 A 
ATOM     16  N   UNL     1      54.363   5.491   9.652  0.00  0.00    +0.000 NA
ATOM     17  C   UNL     1      53.882   5.330   8.395  0.00  0.00    +0.000 A 
ATOM     18  C   UNL     1      52.967   6.164   7.762  0.00  0.00    +0.000 A 
ATOM     19  C   UNL     1      52.434   7.244   8.465  0.00  0.00    +0.000 A 
ATOM     20  C   UNL     1      52.847   7.411   9.796  0.00  0.00    +0.000 A 
ATOM     21  H   UNL     1      54.743   6.541  12.193  0.00  0.00    +0.000 HD
ENDBRANCH   9  12
ENDBRANCH   7  10
ENDBRANCH   1   7
BRANCH   4  22
ATOM     22  C   UNL     1      44.548   5.826  12.925  0.00  0.00    +0.000 C 
BRANCH  22  23
ATOM     23  N   UNL     1      43.744   5.593  11.727  0.00  0.00    +0.000 NA
ATOM     24  H   UNL     1      44.224   6.008  10.928  0.00  0.00    +0.000 HD
BRANCH  23  25
ATOM     25  C   UNL     1      43.569   4.160  11.453  0.00  0.00    +0.000 C 
BRANCH  25  26
ATOM     26  C   UNL     1      44.350   3.720  10.226  0.00  0.00    +0.000 A 
ATOM     27  C   UNL     1      45.019   4.661   9.445  0.00  0.00    +0.000 A 
ATOM     28  C   UNL     1      45.751   4.231   8.340  0.00  0.00    +0.000 A 
ATOM     29  C   UNL     1      45.788   2.876   8.039  0.00  0.00    +0.000 A 
ATOM     30  C   UNL     1      45.093   2.006   8.859  0.00  0.00    +0.000 A 
ATOM     31  N   UNL     1      44.380   2.393   9.942  0.00  0.00    +0.000 NA
ENDBRANCH  25  26
ENDBRANCH  23  25
ENDBRANCH  22  23
ENDBRANCH   4  22
TORSDOF 7
ENDMDL
