MODEL 1
REMARK VINA RESULT:    -8.456      0.000      0.000
REMARK INTER + INTRA:         -11.621
REMARK INTER:                 -10.927
REMARK INTRA:                  -0.694
REMARK UNBOUND:                -0.694
REMARK  Name = 
REMARK  5 active torsions:
REMARK  status: ('A' for Active; 'I' for Inactive)
REMARK    1  A    between atoms: C_2  and  C_18
REMARK    2  A    between atoms: N_3  and  C_4
REMARK    3  A    between atoms: C_4  and  C_5
REMARK    4  A    between atoms: C_8  and  C_9
REMARK    5  A    between atoms: C_9  and  C_10
REMARK                            x       y       z     vdW  Elec       q    Type
REMARK                         _______ _______ _______ _____ _____    ______ ____
ROOT
ATOM      1  O   UNL     1      43.867   3.171  12.628  0.00  0.00    +0.000 OA
ATOM      2  C   UNL     1      44.571   3.928  11.972  0.00  0.00    +0.000 C 
ATOM      3  N   UNL     1      45.051   3.655  10.707  0.00  0.00    +0.000 N 
ATOM      4  H   UNL     1      45.451   4.413  10.170  0.00  0.00    +0.000 HD
ENDROOT
BRANCH   2   5
ATOM      5  C   UNL     1      44.827   5.318  12.343  0.00  0.00    +0.000 A 
ATOM      6  C   UNL     1      44.174   6.382  11.745  0.00  0.00    +0.000 A 
ATOM      7  S   UNL     1      45.023   7.856  11.973  0.00  0.00    +0.000 S 
ATOM      8  C   UNL     1      46.191   7.099  12.961  0.00  0.00    +0.000 A 
ATOM      9  N   UNL     1      47.312   7.737  13.391  0.00  0.00    +0.000 NA
ATOM     10  C   UNL     1      48.063   7.022  14.164  0.00  0.00    +0.000 A 
ATOM     11  N   UNL     1      47.772   5.748  14.590  0.00  0.00    +0.000 N 
ATOM     12  C   UNL     1      46.636   5.075  14.205  0.00  0.00    +0.000 A 
ATOM     13  O   UNL     1      46.335   3.986  14.676  0.00  0.00    +0.000 OA
ATOM     14  C   UNL     1      45.847   5.792  13.229  0.00  0.00    +0.000 A 
ATOM     15  H   UNL     1      48.354   5.279  15.266  0.00  0.00    +0.000 HD
ENDBRANCH   2   5
BRANCH   3  16
ATOM     16  C   UNL     1      44.609   2.521   9.949  0.00  0.00    +0.000 C 
BRANCH  16  17
ATOM     17  C   UNL     1      45.410   2.391   8.679  0.00  0.00    +0.000 A 
ATOM     18  C   UNL     1      46.089   1.202   8.385  0.00  0.00    +0.000 A 
ATOM     19  C   UNL     1      46.803   1.065   7.190  0.00  0.00    +0.000 A 
ATOM     20  C   UNL     1      46.874   2.124   6.274  0.00  0.00    +0.000 A 
ATOM     21  C   UNL     1      46.234   3.329   6.589  0.00  0.00    +0.000 A 
ATOM     22  C   UNL     1      45.517   3.465   7.782  0.00  0.00    +0.000 A 
BRANCH  20  23
ATOM     23  C   UNL     1      47.619   1.965   4.967  0.00  0.00    +0.000 C 
BRANCH  23  24
ATOM     24  C   UNL     1      47.005   0.980   3.999  0.00  0.00    +0.000 A 
ATOM     25  N   UNL     1      47.486  -0.283   3.991  0.00  0.00    +0.000 NA
ATOM     26  C   UNL     1      46.869  -1.154   3.168  0.00  0.00    +0.000 A 
ATOM     27  C   UNL     1      45.800  -0.826   2.366  0.00  0.00    +0.000 A 
ATOM     28  C   UNL     1      45.388   0.484   2.446  0.00  0.00    +0.000 A 
ATOM     29  N   UNL     1      45.964   1.399   3.250  0.00  0.00    +0.000 NA
ENDBRANCH  23  24
ENDBRANCH  20  23
ENDBRANCH  16  17
ENDBRANCH   3  16
TORSDOF 5
ENDMDL
MODEL 2
REMARK VINA RESULT:    -8.067      2.655      4.299
REMARK INTER + INTRA:         -11.119
REMARK INTER:                 -10.610
REMARK INTRA:                  -0.509
REMARK UNBOUND:                -0.694
REMARK  Name = 
REMARK  5 active torsions:
REMARK  status: ('A' for Active; 'I' for Inactive)
REMARK    1  A    between atoms: C_2  and  C_18
REMARK    2  A    between atoms: N_3  and  C_4
REMARK    3  A    between atoms: C_4  and  C_5
REMARK    4  A    between atoms: C_8  and  C_9
REMARK    5  A    between atoms: C_9  and  C_10
REMARK                            x       y       z     vdW  Elec       q    Type
REMARK                         _______ _______ _______ _____ _____    ______ ____
ROOT
ATOM      1  O   UNL     1      46.999   3.326  14.162  0.00  0.00    +0.000 OA
ATOM      2  C   UNL     1      46.854   4.532  14.318  0.00  0.00    +0.000 C 
ATOM      3  N   UNL     1      45.747   5.249  13.909  0.00  0.00    +0.000 N 
ATOM      4  H   UNL     1      45.629   6.191  14.256  0.00  0.00    +0.000 HD
ENDROOT
BRANCH   2   5
ATOM      5  C   UNL     1      47.732   5.350  15.152  0.00  0.00    +0.000 A 
ATOM      6  C   UNL     1      48.332   6.509  14.690  0.00  0.00    +0.000 A 
ATOM      7  S   UNL     1      49.680   6.952  15.655  0.00  0.00    +0.000 S 
ATOM      8  C   UNL     1      49.394   5.674  16.748  0.00  0.00    +0.000 A 
ATOM      9  N   UNL     1      50.258   5.356  17.748  0.00  0.00    +0.000 NA
ATOM     10  C   UNL     1      49.860   4.385  18.503  0.00  0.00    +0.000 A 
ATOM     11  N   UNL     1      48.653   3.737  18.385  0.00  0.00    +0.000 N 
ATOM     12  C   UNL     1      47.735   4.045  17.409  0.00  0.00    +0.000 A 
ATOM     13  O   UNL     1      46.621   3.536  17.381  0.00  0.00    +0.000 OA
ATOM     14  C   UNL     1      48.211   5.028  16.462  0.00  0.00    +0.000 A 
ATOM     15  H   UNL     1      48.362   3.051  19.064  0.00  0.00    +0.000 HD
ENDBRANCH   2   5
BRANCH   3  16
ATOM     16  C   UNL     1      44.559   4.610  13.424  0.00  0.00    +0.000 C 
BRANCH  16  17
ATOM     17  C   UNL     1      44.654   4.379  11.938  0.00  0.00    +0.000 A 
ATOM     18  C   UNL     1      44.098   3.231  11.360  0.00  0.00    +0.000 A 
ATOM     19  C   UNL     1      44.153   3.031   9.976  0.00  0.00    +0.000 A 
ATOM     20  C   UNL     1      44.787   3.963   9.143  0.00  0.00    +0.000 A 
ATOM     21  C   UNL     1      45.384   5.088   9.726  0.00  0.00    +0.000 A 
ATOM     22  C   UNL     1      45.326   5.290  11.109  0.00  0.00    +0.000 A 
BRANCH  20  23
ATOM     23  C   UNL     1      44.819   3.763   7.644  0.00  0.00    +0.000 C 
BRANCH  23  24
ATOM     24  C   UNL     1      45.959   2.908   7.139  0.00  0.00    +0.000 A 
ATOM     25  N   UNL     1      46.299   1.817   7.860  0.00  0.00    +0.000 NA
ATOM     26  C   UNL     1      47.271   1.038   7.346  0.00  0.00    +0.000 A 
ATOM     27  C   UNL     1      47.907   1.292   6.153  0.00  0.00    +0.000 A 
ATOM     28  C   UNL     1      47.490   2.428   5.497  0.00  0.00    +0.000 A 
ATOM     29  N   UNL     1      46.523   3.244   5.960  0.00  0.00    +0.000 NA
ENDBRANCH  23  24
ENDBRANCH  20  23
ENDBRANCH  16  17
ENDBRANCH   3  16
TORSDOF 5
ENDMDL
MODEL 3
REMARK VINA RESULT:    -7.763      3.400      6.072
REMARK INTER + INTRA:         -10.726
REMARK INTER:                  -9.819
REMARK INTRA:                  -0.906
REMARK UNBOUND:                -0.694
REMARK  Name = 
REMARK  5 active torsions:
REMARK  status: ('A' for Active; 'I' for Inactive)
REMARK    1  A    between atoms: C_2  and  C_18
REMARK    2  A    between atoms: N_3  and  C_4
REMARK    3  A    between atoms: C_4  and  C_5
REMARK    4  A    between atoms: C_8  and  C_9
REMARK    5  A    between atoms: C_9  and  C_10
REMARK                            x       y       z     vdW  Elec       q    Type
REMARK                         _______ _______ _______ _____ _____    ______ ____
ROOT
ATOM      1  O   UNL     1      49.595   7.091  13.881  0.00  0.00    +0.000 OA
ATOM      2  C   UNL     1      48.726   7.332  14.709  0.00  0.00    +0.000 C 
ATOM      3  N   UNL     1      47.617   8.120  14.477  0.00  0.00    +0.000 N 
ATOM      4  H   UNL     1      46.861   8.097  15.148  0.00  0.00    +0.000 HD
ENDROOT
BRANCH   2   5
ATOM      5  C   UNL     1      48.623   6.645  15.995  0.00  0.00    +0.000 A 
ATOM      6  C   UNL     1      49.128   7.179  17.169  0.00  0.00    +0.000 A 
ATOM      7  S   UNL     1      49.346   5.974  18.371  0.00  0.00    +0.000 S 
ATOM      8  C   UNL     1      48.662   4.771  17.373  0.00  0.00    +0.000 A 
ATOM      9  N   UNL     1      48.666   3.453  17.706  0.00  0.00    +0.000 NA
ATOM     10  C   UNL     1      48.068   2.689  16.850  0.00  0.00    +0.000 A 
ATOM     11  N   UNL     1      47.421   3.126  15.719  0.00  0.00    +0.000 N 
ATOM     12  C   UNL     1      47.365   4.452  15.358  0.00  0.00    +0.000 A 
ATOM     13  O   UNL     1      46.695   4.840  14.409  0.00  0.00    +0.000 OA
ATOM     14  C   UNL     1      48.145   5.314  16.217  0.00  0.00    +0.000 A 
ATOM     15  H   UNL     1      46.895   2.489  15.141  0.00  0.00    +0.000 HD
ENDBRANCH   2   5
BRANCH   3  16
ATOM     16  C   UNL     1      47.271   8.587  13.166  0.00  0.00    +0.000 C 
BRANCH  16  17
ATOM     17  C   UNL     1      46.443   7.558  12.441  0.00  0.00    +0.000 A 
ATOM     18  C   UNL     1      45.096   7.365  12.776  0.00  0.00    +0.000 A 
ATOM     19  C   UNL     1      44.314   6.436  12.081  0.00  0.00    +0.000 A 
ATOM     20  C   UNL     1      44.868   5.662  11.053  0.00  0.00    +0.000 A 
ATOM     21  C   UNL     1      46.227   5.821  10.750  0.00  0.00    +0.000 A 
ATOM     22  C   UNL     1      47.008   6.752  11.442  0.00  0.00    +0.000 A 
BRANCH  20  23
ATOM     23  C   UNL     1      44.016   4.681  10.280  0.00  0.00    +0.000 C 
BRANCH  23  24
ATOM     24  C   UNL     1      44.772   3.815   9.297  0.00  0.00    +0.000 A 
ATOM     25  N   UNL     1      45.337   4.418   8.227  0.00  0.00    +0.000 NA
ATOM     26  C   UNL     1      46.063   3.630   7.410  0.00  0.00    +0.000 A 
ATOM     27  C   UNL     1      46.256   2.284   7.615  0.00  0.00    +0.000 A 
ATOM     28  C   UNL     1      45.638   1.766   8.730  0.00  0.00    +0.000 A 
ATOM     29  N   UNL     1      44.900   2.503   9.584  0.00  0.00    +0.000 NA
ENDBRANCH  23  24
ENDBRANCH  20  23
ENDBRANCH  16  17
ENDBRANCH   3  16
TORSDOF 5
ENDMDL
MODEL 4
REMARK VINA RESULT:    -7.684      1.576      2.137
REMARK INTER + INTRA:         -10.624
REMARK INTER:                  -9.824
REMARK INTRA:                  -0.800
REMARK UNBOUND:                -0.694
REMARK  Name = 
REMARK  5 active torsions:
REMARK  status: ('A' for Active; 'I' for Inactive)
REMARK    1  A    between atoms: C_2  and  C_18
REMARK    2  A    between atoms: N_3  and  C_4
REMARK    3  A    between atoms: C_4  and  C_5
REMARK    4  A    between atoms: C_8  and  C_9
REMARK    5  A    between atoms: C_9  and  C_10
REMARK                            x       y       z     vdW  Elec       q    Type
REMARK                         _______ _______ _______ _____ _____    ______ ____
ROOT
ATOM      1  O   UNL     1      43.821   4.834  12.221  0.00  0.00    +0.000 OA
ATOM      2  C   UNL     1      44.866   4.197  12.205  0.00  0.00    +0.000 C 
ATOM      3  N   UNL     1      45.172   3.212  11.287  0.00  0.00    +0.000 N 
ATOM      4  H   UNL     1      46.127   2.887  11.231  0.00  0.00    +0.000 HD
ENDROOT
BRANCH   2   5
ATOM      5  C   UNL     1      46.031   4.535  13.021  0.00  0.00    +0.000 A 
ATOM      6  C   UNL     1      46.390   3.811  14.144  0.00  0.00    +0.000 A 
ATOM      7  S   UNL     1      47.426   4.712  15.174  0.00  0.00    +0.000 S 
ATOM      8  C   UNL     1      47.488   6.013  14.072  0.00  0.00    +0.000 A 
ATOM      9  N   UNL     1      48.077   7.201  14.372  0.00  0.00    +0.000 NA
ATOM     10  C   UNL     1      48.065   8.057  13.402  0.00  0.00    +0.000 A 
ATOM     11  N   UNL     1      47.567   7.818  12.144  0.00  0.00    +0.000 N 
ATOM     12  C   UNL     1      46.989   6.622  11.786  0.00  0.00    +0.000 A 
ATOM     13  O   UNL     1      46.648   6.384  10.635  0.00  0.00    +0.000 OA
ATOM     14  C   UNL     1      46.858   5.696  12.888  0.00  0.00    +0.000 A 
ATOM     15  H   UNL     1      47.671   8.496  11.405  0.00  0.00    +0.000 HD
ENDBRANCH   2   5
BRANCH   3  16
ATOM     16  C   UNL     1      44.362   2.967  10.130  0.00  0.00    +0.000 C 
BRANCH  16  17
ATOM     17  C   UNL     1      45.227   2.731   8.920  0.00  0.00    +0.000 A 
ATOM     18  C   UNL     1      45.815   1.478   8.700  0.00  0.00    +0.000 A 
ATOM     19  C   UNL     1      46.590   1.245   7.558  0.00  0.00    +0.000 A 
ATOM     20  C   UNL     1      46.815   2.267   6.625  0.00  0.00    +0.000 A 
ATOM     21  C   UNL     1      46.266   3.532   6.869  0.00  0.00    +0.000 A 
ATOM     22  C   UNL     1      45.489   3.765   8.009  0.00  0.00    +0.000 A 
BRANCH  20  23
ATOM     23  C   UNL     1      47.626   2.006   5.375  0.00  0.00    +0.000 C 
BRANCH  23  24
ATOM     24  C   UNL     1      46.978   1.072   4.378  0.00  0.00    +0.000 A 
ATOM     25  N   UNL     1      46.079   1.594   3.514  0.00  0.00    +0.000 NA
ATOM     26  C   UNL     1      45.574   0.750   2.593  0.00  0.00    +0.000 A 
ATOM     27  C   UNL     1      45.927  -0.575   2.492  0.00  0.00    +0.000 A 
ATOM     28  C   UNL     1      46.846  -1.009   3.419  0.00  0.00    +0.000 A 
ATOM     29  N   UNL     1      47.387  -0.214   4.362  0.00  0.00    +0.000 NA
ENDBRANCH  23  24
ENDBRANCH  20  23
ENDBRANCH  16  17
ENDBRANCH   3  16
TORSDOF 5
ENDMDL
MODEL 5
REMARK VINA RESULT:    -7.545      2.709      4.185
REMARK INTER + INTRA:         -10.445
REMARK INTER:                  -9.633
REMARK INTRA:                  -0.812
REMARK UNBOUND:                -0.694
REMARK  Name = 
REMARK  5 active torsions:
REMARK  status: ('A' for Active; 'I' for Inactive)
REMARK    1  A    between atoms: C_2  and  C_18
REMARK    2  A    between atoms: N_3  and  C_4
REMARK    3  A    between atoms: C_4  and  C_5
REMARK    4  A    between atoms: C_8  and  C_9
REMARK    5  A    between atoms: C_9  and  C_10
REMARK                            x       y       z     vdW  Elec       q    Type
REMARK                         _______ _______ _______ _____ _____    ______ ____
ROOT
ATOM      1  O   UNL     1      46.981   3.353  14.380  0.00  0.00    +0.000 OA
ATOM      2  C   UNL     1      46.953   4.575  14.431  0.00  0.00    +0.000 C 
ATOM      3  N   UNL     1      45.924   5.358  13.946  0.00  0.00    +0.000 N 
ATOM      4  H   UNL     1      45.895   6.333  14.210  0.00  0.00    +0.000 HD
ENDROOT
BRANCH   2   5
ATOM      5  C   UNL     1      47.900   5.374  15.206  0.00  0.00    +0.000 A 
ATOM      6  C   UNL     1      48.216   5.087  16.523  0.00  0.00    +0.000 A 
ATOM      7  S   UNL     1      48.901   6.443  17.320  0.00  0.00    +0.000 S 
ATOM      8  C   UNL     1      48.883   7.370  15.888  0.00  0.00    +0.000 A 
ATOM      9  N   UNL     1      49.190   8.694  15.866  0.00  0.00    +0.000 NA
ATOM     10  C   UNL     1      49.163   9.225  14.687  0.00  0.00    +0.000 A 
ATOM     11  N   UNL     1      48.910   8.543  13.521  0.00  0.00    +0.000 N 
ATOM     12  C   UNL     1      48.626   7.198  13.490  0.00  0.00    +0.000 A 
ATOM     13  O   UNL     1      48.510   6.582  12.438  0.00  0.00    +0.000 OA
ATOM     14  C   UNL     1      48.507   6.606  14.804  0.00  0.00    +0.000 A 
ATOM     15  H   UNL     1      48.996   8.997  12.624  0.00  0.00    +0.000 HD
ENDBRANCH   2   5
BRANCH   3  16
ATOM     16  C   UNL     1      44.683   4.797  13.497  0.00  0.00    +0.000 C 
BRANCH  16  17
ATOM     17  C   UNL     1      44.737   4.511  12.019  0.00  0.00    +0.000 A 
ATOM     18  C   UNL     1      44.134   3.360  11.495  0.00  0.00    +0.000 A 
ATOM     19  C   UNL     1      44.151   3.110  10.119  0.00  0.00    +0.000 A 
ATOM     20  C   UNL     1      44.793   3.992   9.239  0.00  0.00    +0.000 A 
ATOM     21  C   UNL     1      45.437   5.118   9.768  0.00  0.00    +0.000 A 
ATOM     22  C   UNL     1      45.417   5.371  11.144  0.00  0.00    +0.000 A 
BRANCH  20  23
ATOM     23  C   UNL     1      44.784   3.739   7.748  0.00  0.00    +0.000 C 
BRANCH  23  24
ATOM     24  C   UNL     1      45.952   2.928   7.232  0.00  0.00    +0.000 A 
ATOM     25  N   UNL     1      46.298   1.813   7.913  0.00  0.00    +0.000 NA
ATOM     26  C   UNL     1      47.296   1.076   7.387  0.00  0.00    +0.000 A 
ATOM     27  C   UNL     1      47.952   1.394   6.221  0.00  0.00    +0.000 A 
ATOM     28  C   UNL     1      47.527   2.549   5.606  0.00  0.00    +0.000 A 
ATOM     29  N   UNL     1      46.535   3.327   6.082  0.00  0.00    +0.000 NA
ENDBRANCH  23  24
ENDBRANCH  20  23
ENDBRANCH  16  17
ENDBRANCH   3  16
TORSDOF 5
ENDMDL
MODEL 6
REMARK VINA RESULT:    -7.435      2.997      4.986
REMARK INTER + INTRA:         -10.302
REMARK INTER:                  -9.956
REMARK INTRA:                  -0.346
REMARK UNBOUND:                -0.694
REMARK  Name = 
REMARK  5 active torsions:
REMARK  status: ('A' for Active; 'I' for Inactive)
REMARK    1  A    between atoms: C_2  and  C_18
REMARK    2  A    between atoms: N_3  and  C_4
REMARK    3  A    between atoms: C_4  and  C_5
REMARK    4  A    between atoms: C_8  and  C_9
REMARK    5  A    between atoms: C_9  and  C_10
REMARK                            x       y       z     vdW  Elec       q    Type
REMARK                         _______ _______ _______ _____ _____    ______ ____
ROOT
ATOM      1  O   UNL     1      48.756   6.253  13.336  0.00  0.00    +0.000 OA
ATOM      2  C   UNL     1      47.865   6.077  14.157  0.00  0.00    +0.000 C 
ATOM      3  N   UNL     1      46.549   6.458  13.982  0.00  0.00    +0.000 N 
ATOM      4  H   UNL     1      45.854   6.095  14.619  0.00  0.00    +0.000 HD
ENDROOT
BRANCH   2   5
ATOM      5  C   UNL     1      48.016   5.245  15.349  0.00  0.00    +0.000 A 
ATOM      6  C   UNL     1      47.300   4.076  15.539  0.00  0.00    +0.000 A 
ATOM      7  S   UNL     1      47.271   3.612  17.191  0.00  0.00    +0.000 S 
ATOM      8  C   UNL     1      48.304   4.896  17.631  0.00  0.00    +0.000 A 
ATOM      9  N   UNL     1      48.585   5.200  18.926  0.00  0.00    +0.000 NA
ATOM     10  C   UNL     1      49.419   6.179  19.070  0.00  0.00    +0.000 A 
ATOM     11  N   UNL     1      50.039   6.846  18.041  0.00  0.00    +0.000 N 
ATOM     12  C   UNL     1      49.810   6.552  16.717  0.00  0.00    +0.000 A 
ATOM     13  O   UNL     1      50.448   7.079  15.815  0.00  0.00    +0.000 OA
ATOM     14  C   UNL     1      48.776   5.561  16.520  0.00  0.00    +0.000 A 
ATOM     15  H   UNL     1      50.750   7.538  18.223  0.00  0.00    +0.000 HD
ENDBRANCH   2   5
BRANCH   3  16
ATOM     16  C   UNL     1      46.053   6.934  12.724  0.00  0.00    +0.000 C 
BRANCH  16  17
ATOM     17  C   UNL     1      45.686   5.778  11.830  0.00  0.00    +0.000 A 
ATOM     18  C   UNL     1      45.754   5.908  10.436  0.00  0.00    +0.000 A 
ATOM     19  C   UNL     1      45.448   4.825   9.604  0.00  0.00    +0.000 A 
ATOM     20  C   UNL     1      45.044   3.598  10.146  0.00  0.00    +0.000 A 
ATOM     21  C   UNL     1      44.930   3.483  11.537  0.00  0.00    +0.000 A 
ATOM     22  C   UNL     1      45.238   4.563  12.370  0.00  0.00    +0.000 A 
BRANCH  20  23
ATOM     23  C   UNL     1      44.744   2.418   9.248  0.00  0.00    +0.000 C 
BRANCH  23  24
ATOM     24  C   UNL     1      45.743   2.195   8.134  0.00  0.00    +0.000 A 
ATOM     25  N   UNL     1      46.461   1.051   8.148  0.00  0.00    +0.000 NA
ATOM     26  C   UNL     1      47.290   0.851   7.104  0.00  0.00    +0.000 A 
ATOM     27  C   UNL     1      47.426   1.729   6.054  0.00  0.00    +0.000 A 
ATOM     28  C   UNL     1      46.652   2.864   6.136  0.00  0.00    +0.000 A 
ATOM     29  N   UNL     1      45.806   3.119   7.152  0.00  0.00    +0.000 NA
ENDBRANCH  23  24
ENDBRANCH  20  23
ENDBRANCH  16  17
ENDBRANCH   3  16
TORSDOF 5
ENDMDL
MODEL 7
REMARK VINA RESULT:    -7.180      3.719      6.782
REMARK INTER + INTRA:          -9.972
REMARK INTER:                  -9.063
REMARK INTRA:                  -0.909
REMARK UNBOUND:                -0.694
REMARK  Name = 
REMARK  5 active torsions:
REMARK  status: ('A' for Active; 'I' for Inactive)
REMARK    1  A    between atoms: C_2  and  C_18
REMARK    2  A    between atoms: N_3  and  C_4
REMARK    3  A    between atoms: C_4  and  C_5
REMARK    4  A    between atoms: C_8  and  C_9
REMARK    5  A    between atoms: C_9  and  C_10
REMARK                            x       y       z     vdW  Elec       q    Type
REMARK                         _______ _______ _______ _____ _____    ______ ____
ROOT
ATOM      1  O   UNL     1      50.349   7.700  16.433  0.00  0.00    +0.000 OA
ATOM      2  C   UNL     1      49.155   7.450  16.538  0.00  0.00    +0.000 C 
ATOM      3  N   UNL     1      48.313   7.184  15.477  0.00  0.00    +0.000 N 
ATOM      4  H   UNL     1      47.400   6.796  15.673  0.00  0.00    +0.000 HD
ENDROOT
BRANCH   2   5
ATOM      5  C   UNL     1      48.494   7.184  17.814  0.00  0.00    +0.000 A 
ATOM      6  C   UNL     1      47.941   8.187  18.591  0.00  0.00    +0.000 A 
ATOM      7  S   UNL     1      47.727   7.683  20.217  0.00  0.00    +0.000 S 
ATOM      8  C   UNL     1      48.258   6.101  19.859  0.00  0.00    +0.000 A 
ATOM      9  N   UNL     1      48.474   5.165  20.821  0.00  0.00    +0.000 NA
ATOM     10  C   UNL     1      48.835   4.010  20.363  0.00  0.00    +0.000 A 
ATOM     11  N   UNL     1      48.948   3.689  19.031  0.00  0.00    +0.000 N 
ATOM     12  C   UNL     1      48.709   4.594  18.024  0.00  0.00    +0.000 A 
ATOM     13  O   UNL     1      48.707   4.268  16.844  0.00  0.00    +0.000 OA
ATOM     14  C   UNL     1      48.443   5.931  18.505  0.00  0.00    +0.000 A 
ATOM     15  H   UNL     1      49.143   2.744  18.738  0.00  0.00    +0.000 HD
ENDBRANCH   2   5
BRANCH   3  16
ATOM     16  C   UNL     1      48.801   6.984  14.144  0.00  0.00    +0.000 C 
BRANCH  16  17
ATOM     17  C   UNL     1      47.700   6.477  13.249  0.00  0.00    +0.000 A 
ATOM     18  C   UNL     1      47.384   7.148  12.061  0.00  0.00    +0.000 A 
ATOM     19  C   UNL     1      46.387   6.659  11.210  0.00  0.00    +0.000 A 
ATOM     20  C   UNL     1      45.668   5.503  11.540  0.00  0.00    +0.000 A 
ATOM     21  C   UNL     1      45.951   4.859  12.751  0.00  0.00    +0.000 A 
ATOM     22  C   UNL     1      46.950   5.345  13.601  0.00  0.00    +0.000 A 
BRANCH  20  23
ATOM     23  C   UNL     1      44.612   4.956  10.605  0.00  0.00    +0.000 C 
BRANCH  23  24
ATOM     24  C   UNL     1      45.134   4.046   9.517  0.00  0.00    +0.000 A 
ATOM     25  N   UNL     1      45.748   4.614   8.456  0.00  0.00    +0.000 NA
ATOM     26  C   UNL     1      46.264   3.772   7.540  0.00  0.00    +0.000 A 
ATOM     27  C   UNL     1      46.203   2.401   7.638  0.00  0.00    +0.000 A 
ATOM     28  C   UNL     1      45.556   1.922   8.754  0.00  0.00    +0.000 A 
ATOM     29  N   UNL     1      45.021   2.714   9.704  0.00  0.00    +0.000 NA
ENDBRANCH  23  24
ENDBRANCH  20  23
ENDBRANCH  16  17
ENDBRANCH   3  16
TORSDOF 5
ENDMDL
MODEL 8
REMARK VINA RESULT:    -6.906      5.899     10.751
REMARK INTER + INTRA:          -9.618
REMARK INTER:                  -8.817
REMARK INTRA:                  -0.802
REMARK UNBOUND:                -0.694
REMARK  Name = 
REMARK  5 active torsions:
REMARK  status: ('A' for Active; 'I' for Inactive)
REMARK    1  A    between atoms: C_2  and  C_18
REMARK    2  A    between atoms: N_3  and  C_4
REMARK    3  A    between atoms: C_4  and  C_5
REMARK    4  A    between atoms: C_8  and  C_9
REMARK    5  A    between atoms: C_9  and  C_10
REMARK                            x       y       z     vdW  Elec       q    Type
REMARK                         _______ _______ _______ _____ _____    ______ ____
ROOT
ATOM      1  O   UNL     1      47.487   2.945  14.378  0.00  0.00    +0.000 OA
ATOM      2  C   UNL     1      46.969   4.038  14.564  0.00  0.00    +0.000 C 
ATOM      3  N   UNL     1      46.697   4.578  15.806  0.00  0.00    +0.000 N 
ATOM      4  H   UNL     1      46.457   5.558  15.863  0.00  0.00    +0.000 HD
ENDROOT
BRANCH   2   5
ATOM      5  C   UNL     1      46.759   5.025  13.506  0.00  0.00    +0.000 A 
ATOM      6  C   UNL     1      47.613   6.095  13.305  0.00  0.00    +0.000 A 
ATOM      7  S   UNL     1      46.864   7.340  12.392  0.00  0.00    +0.000 S 
ATOM      8  C   UNL     1      45.453   6.408  12.168  0.00  0.00    +0.000 A 
ATOM      9  N   UNL     1      44.324   6.910  11.600  0.00  0.00    +0.000 NA
ATOM     10  C   UNL     1      43.367   6.050  11.474  0.00  0.00    +0.000 A 
ATOM     11  N   UNL     1      43.451   4.721  11.813  0.00  0.00    +0.000 N 
ATOM     12  C   UNL     1      44.582   4.162  12.362  0.00  0.00    +0.000 A 
ATOM     13  O   UNL     1      44.681   2.957  12.559  0.00  0.00    +0.000 OA
ATOM     14  C   UNL     1      45.619   5.127  12.648  0.00  0.00    +0.000 A 
ATOM     15  H   UNL     1      42.700   4.082  11.604  0.00  0.00    +0.000 HD
ENDBRANCH   2   5
BRANCH   3  16
ATOM     16  C   UNL     1      47.177   3.983  17.019  0.00  0.00    +0.000 C 
BRANCH  16  17
ATOM     17  C   UNL     1      48.655   4.228  17.179  0.00  0.00    +0.000 A 
ATOM     18  C   UNL     1      49.526   3.165  17.451  0.00  0.00    +0.000 A 
ATOM     19  C   UNL     1      50.903   3.384  17.564  0.00  0.00    +0.000 A 
ATOM     20  C   UNL     1      51.436   4.674  17.433  0.00  0.00    +0.000 A 
ATOM     21  C   UNL     1      50.560   5.743  17.209  0.00  0.00    +0.000 A 
ATOM     22  C   UNL     1      49.183   5.525  17.092  0.00  0.00    +0.000 A 
BRANCH  20  23
ATOM     23  C   UNL     1      52.928   4.906  17.523  0.00  0.00    +0.000 C 
BRANCH  23  24
ATOM     24  C   UNL     1      53.668   3.952  18.434  0.00  0.00    +0.000 A 
ATOM     25  N   UNL     1      53.499   4.091  19.767  0.00  0.00    +0.000 NA
ATOM     26  C   UNL     1      54.115   3.181  20.547  0.00  0.00    +0.000 A 
ATOM     27  C   UNL     1      54.877   2.144  20.060  0.00  0.00    +0.000 A 
ATOM     28  C   UNL     1      54.988   2.092  18.690  0.00  0.00    +0.000 A 
ATOM     29  N   UNL     1      54.396   2.971  17.859  0.00  0.00    +0.000 NA
ENDBRANCH  23  24
ENDBRANCH  20  23
ENDBRANCH  16  17
ENDBRANCH   3  16
TORSDOF 5
ENDMDL
MODEL 9
REMARK VINA RESULT:    -6.904      5.937     12.017
REMARK INTER + INTRA:          -9.615
REMARK INTER:                  -8.837
REMARK INTRA:                  -0.778
REMARK UNBOUND:                -0.694
REMARK  Name = 
REMARK  5 active torsions:
REMARK  status: ('A' for Active; 'I' for Inactive)
REMARK    1  A    between atoms: C_2  and  C_18
REMARK    2  A    between atoms: N_3  and  C_4
REMARK    3  A    between atoms: C_4  and  C_5
REMARK    4  A    between atoms: C_8  and  C_9
REMARK    5  A    between atoms: C_9  and  C_10
REMARK                            x       y       z     vdW  Elec       q    Type
REMARK                         _______ _______ _______ _____ _____    ______ ____
ROOT
ATOM      1  O   UNL     1      47.536   3.134  13.854  0.00  0.00    +0.000 OA
ATOM      2  C   UNL     1      46.847   4.108  14.126  0.00  0.00    +0.000 C 
ATOM      3  N   UNL     1      46.635   4.589  15.403  0.00  0.00    +0.000 N 
ATOM      4  H   UNL     1      46.222   5.505  15.510  0.00  0.00    +0.000 HD
ENDROOT
BRANCH   2   5
ATOM      5  C   UNL     1      46.323   5.033  13.123  0.00  0.00    +0.000 A 
ATOM      6  C   UNL     1      46.971   6.207  12.781  0.00  0.00    +0.000 A 
ATOM      7  S   UNL     1      45.909   7.317  12.015  0.00  0.00    +0.000 S 
ATOM      8  C   UNL     1      44.625   6.193  12.035  0.00  0.00    +0.000 A 
ATOM      9  N   UNL     1      43.357   6.522  11.671  0.00  0.00    +0.000 NA
ATOM     10  C   UNL     1      42.523   5.534  11.710  0.00  0.00    +0.000 A 
ATOM     11  N   UNL     1      42.850   4.237  12.025  0.00  0.00    +0.000 N 
ATOM     12  C   UNL     1      44.124   3.852  12.369  0.00  0.00    +0.000 A 
ATOM     13  O   UNL     1      44.424   2.677  12.542  0.00  0.00    +0.000 OA
ATOM     14  C   UNL     1      45.049   4.958  12.475  0.00  0.00    +0.000 A 
ATOM     15  H   UNL     1      42.171   3.495  11.946  0.00  0.00    +0.000 HD
ENDBRANCH   2   5
BRANCH   3  16
ATOM     16  C   UNL     1      47.367   4.100  16.535  0.00  0.00    +0.000 C 
BRANCH  16  17
ATOM     17  C   UNL     1      47.679   5.225  17.487  0.00  0.00    +0.000 A 
ATOM     18  C   UNL     1      46.976   5.353  18.692  0.00  0.00    +0.000 A 
ATOM     19  C   UNL     1      47.288   6.375  19.595  0.00  0.00    +0.000 A 
ATOM     20  C   UNL     1      48.293   7.307  19.301  0.00  0.00    +0.000 A 
ATOM     21  C   UNL     1      48.964   7.207  18.076  0.00  0.00    +0.000 A 
ATOM     22  C   UNL     1      48.655   6.183  17.174  0.00  0.00    +0.000 A 
BRANCH  20  23
ATOM     23  C   UNL     1      48.653   8.392  20.291  0.00  0.00    +0.000 C 
BRANCH  23  24
ATOM     24  C   UNL     1      47.503   9.282  20.706  0.00  0.00    +0.000 A 
ATOM     25  N   UNL     1      46.977  10.111  19.778  0.00  0.00    +0.000 NA
ATOM     26  C   UNL     1      45.909  10.838  20.160  0.00  0.00    +0.000 A 
ATOM     27  C   UNL     1      45.343  10.770  21.412  0.00  0.00    +0.000 A 
ATOM     28  C   UNL     1      45.953   9.898  22.284  0.00  0.00    +0.000 A 
ATOM     29  N   UNL     1      47.022   9.145  21.960  0.00  0.00    +0.000 NA
ENDBRANCH  23  24
ENDBRANCH  20  23
ENDBRANCH  16  17
ENDBRANCH   3  16
TORSDOF 5
ENDMDL
