MODEL 1
REMARK VINA RESULT:    -7.997      0.000      0.000
REMARK INTER + INTRA:         -11.791
REMARK INTER:                 -10.803
REMARK INTRA:                  -0.989
REMARK UNBOUND:                -0.989
REMARK  Name = 
REMARK  7 active torsions:
REMARK  status: ('A' for Active; 'I' for Inactive)
REMARK    1  A    between atoms: C_1  and  C_2
REMARK    2  A    between atoms: N_6  and  C_7
REMARK    3  A    between atoms: C_11  and  C_12
REMARK    4  A    between atoms: C_12  and  C_13
REMARK    5  A    between atoms: C_13  and  O_14
REMARK    6  A    between atoms: O_14  and  C_15
REMARK    7  A    between atoms: C_18  and  C_19
REMARK                            x       y       z     vdW  Elec       q    Type
REMARK                         _______ _______ _______ _____ _____    ______ ____
ROOT
ATOM      1  C   UNL     1      44.866   4.217  12.290  0.00  0.00    +0.000 C 
ENDROOT
BRANCH   1   6
ATOM      2  C   UNL     1      47.492   5.133  14.931  0.00  0.00    +0.000 A 
ATOM      3  C   UNL     1      48.071   6.253  14.328  0.00  0.00    +0.000 A 
ATOM      4  C   UNL     1      47.629   6.725  13.086  0.00  0.00    +0.000 A 
ATOM      5  C   UNL     1      46.592   6.078  12.418  0.00  0.00    +0.000 A 
ATOM      6  C   UNL     1      45.983   4.957  12.987  0.00  0.00    +0.000 A 
ATOM      7  C   UNL     1      46.441   4.509  14.235  0.00  0.00    +0.000 A 
BRANCH   2  13
ATOM      8  C   UNL     1      50.664   5.606  17.011  0.00  0.00    +0.000 C 
ATOM      9  C   UNL     1      49.488   5.249  17.926  0.00  0.00    +0.000 C 
ATOM     10  C   UNL     1      49.513   3.767  18.339  0.00  0.00    +0.000 C 
ATOM     11  C   UNL     1      49.121   2.828  17.195  0.00  0.00    +0.000 C 
ATOM     12  C   UNL     1      47.804   3.247  16.532  0.00  0.00    +0.000 C 
ATOM     13  N   UNL     1      47.895   4.656  16.164  0.00  0.00    +0.000 N 
ATOM     14  C   UNL     1      48.144   5.587  17.267  0.00  0.00    +0.000 C 
ENDBRANCH   2  13
ENDBRANCH   1   6
BRANCH   1  15
ATOM     15  C   UNL     1      44.274   5.008  11.126  0.00  0.00    +0.000 C 
BRANCH  15  16
ATOM     16  O   UNL     1      43.800   4.108  10.115  0.00  0.00    +0.000 OA
BRANCH  16  17
ATOM     17  C   UNL     1      44.756   3.635   9.253  0.00  0.00    +0.000 A 
ATOM     18  C   UNL     1      45.551   4.428   8.423  0.00  0.00    +0.000 A 
ATOM     19  C   UNL     1      46.495   3.842   7.580  0.00  0.00    +0.000 A 
ATOM     20  C   UNL     1      46.666   2.453   7.556  0.00  0.00    +0.000 A 
ATOM     21  C   UNL     1      45.867   1.651   8.381  0.00  0.00    +0.000 A 
ATOM     22  C   UNL     1      44.916   2.246   9.223  0.00  0.00    +0.000 A 
BRANCH  20  23
ATOM     23  C   UNL     1      47.684   1.904   6.626  0.00  0.00    +0.000 C 
ATOM     24  N   UNL     1      48.673   2.746   6.200  0.00  0.00    +0.000 N 
ATOM     25  O   UNL     1      47.625   0.752   6.214  0.00  0.00    +0.000 OA
ATOM     26  H   UNL     1      48.639   3.746   6.334  0.00  0.00    +0.000 HD
ATOM     27  H   UNL     1      49.283   2.385   5.478  0.00  0.00    +0.000 HD
ENDBRANCH  20  23
ENDBRANCH  16  17
ENDBRANCH  15  16
ENDBRANCH   1  15
TORSDOF 6
ENDMDL
MODEL 2
REMARK VINA RESULT:    -7.884      2.503      4.069
REMARK INTER + INTRA:         -11.638
REMARK INTER:                 -10.405
REMARK INTRA:                  -1.233
REMARK UNBOUND:                -0.989
REMARK  Name = 
REMARK  7 active torsions:
REMARK  status: ('A' for Active; 'I' for Inactive)
REMARK    1  A    between atoms: C_1  and  C_2
REMARK    2  A    between atoms: N_6  and  C_7
REMARK    3  A    between atoms: C_11  and  C_12
REMARK    4  A    between atoms: C_12  and  C_13
REMARK    5  A    between atoms: C_13  and  O_14
REMARK    6  A    between atoms: O_14  and  C_15
REMARK    7  A    between atoms: C_18  and  C_19
REMARK                            x       y       z     vdW  Elec       q    Type
REMARK                         _______ _______ _______ _____ _____    ______ ____
ROOT
ATOM      1  C   UNL     1      43.541   5.302  12.289  0.00  0.00    +0.000 C 
ENDROOT
BRANCH   1   6
ATOM      2  C   UNL     1      47.046   6.826  12.608  0.00  0.00    +0.000 A 
ATOM      3  C   UNL     1      47.667   5.859  13.405  0.00  0.00    +0.000 A 
ATOM      4  C   UNL     1      46.979   4.720  13.839  0.00  0.00    +0.000 A 
ATOM      5  C   UNL     1      45.646   4.526  13.483  0.00  0.00    +0.000 A 
ATOM      6  C   UNL     1      44.989   5.466  12.685  0.00  0.00    +0.000 A 
ATOM      7  C   UNL     1      45.703   6.595  12.259  0.00  0.00    +0.000 A 
BRANCH   2  13
ATOM      8  C   UNL     1      50.475   8.339  13.361  0.00  0.00    +0.000 C 
ATOM      9  C   UNL     1      50.000   8.786  11.974  0.00  0.00    +0.000 C 
ATOM     10  C   UNL     1      49.433  10.215  11.994  0.00  0.00    +0.000 C 
ATOM     11  C   UNL     1      48.062  10.299  12.670  0.00  0.00    +0.000 C 
ATOM     12  C   UNL     1      47.079   9.269  12.105  0.00  0.00    +0.000 C 
ATOM     13  N   UNL     1      47.706   7.951  12.150  0.00  0.00    +0.000 N 
ATOM     14  C   UNL     1      48.957   7.816  11.401  0.00  0.00    +0.000 C 
ENDBRANCH   2  13
ENDBRANCH   1   6
BRANCH   1  15
ATOM     15  C   UNL     1      43.365   5.057  10.792  0.00  0.00    +0.000 C 
BRANCH  15  16
ATOM     16  O   UNL     1      43.467   3.654  10.513  0.00  0.00    +0.000 OA
BRANCH  16  17
ATOM     17  C   UNL     1      44.423   3.306   9.592  0.00  0.00    +0.000 A 
ATOM     18  C   UNL     1      44.833   2.001   9.315  0.00  0.00    +0.000 A 
ATOM     19  C   UNL     1      45.818   1.758   8.358  0.00  0.00    +0.000 A 
ATOM     20  C   UNL     1      46.408   2.815   7.657  0.00  0.00    +0.000 A 
ATOM     21  C   UNL     1      46.007   4.128   7.935  0.00  0.00    +0.000 A 
ATOM     22  C   UNL     1      45.019   4.367   8.902  0.00  0.00    +0.000 A 
BRANCH  20  23
ATOM     23  C   UNL     1      47.455   2.478   6.661  0.00  0.00    +0.000 C 
ATOM     24  N   UNL     1      47.384   3.084   5.438  0.00  0.00    +0.000 N 
ATOM     25  O   UNL     1      48.330   1.655   6.900  0.00  0.00    +0.000 OA
ATOM     26  H   UNL     1      46.571   3.592   5.122  0.00  0.00    +0.000 HD
ATOM     27  H   UNL     1      48.036   2.751   4.740  0.00  0.00    +0.000 HD
ENDBRANCH  20  23
ENDBRANCH  16  17
ENDBRANCH  15  16
ENDBRANCH   1  15
TORSDOF 6
ENDMDL
MODEL 3
REMARK VINA RESULT:    -7.657      3.509      5.712
REMARK INTER + INTRA:         -11.331
REMARK INTER:                 -10.112
REMARK INTRA:                  -1.219
REMARK UNBOUND:                -0.989
REMARK  Name = 
REMARK  7 active torsions:
REMARK  status: ('A' for Active; 'I' for Inactive)
REMARK    1  A    between atoms: C_1  and  C_2
REMARK    2  A    between atoms: N_6  and  C_7
REMARK    3  A    between atoms: C_11  and  C_12
REMARK    4  A    between atoms: C_12  and  C_13
REMARK    5  A    between atoms: C_13  and  O_14
REMARK    6  A    between atoms: O_14  and  C_15
REMARK    7  A    between atoms: C_18  and  C_19
REMARK                            x       y       z     vdW  Elec       q    Type
REMARK                         _______ _______ _______ _____ _____    ______ ____
ROOT
ATOM      1  C   UNL     1      43.504   5.420  12.086  0.00  0.00    +0.000 C 
ENDROOT
BRANCH   1   6
ATOM      2  C   UNL     1      45.786   8.498  11.910  0.00  0.00    +0.000 A 
ATOM      3  C   UNL     1      47.039   7.885  12.015  0.00  0.00    +0.000 A 
ATOM      4  C   UNL     1      47.164   6.496  12.137  0.00  0.00    +0.000 A 
ATOM      5  C   UNL     1      46.030   5.687  12.158  0.00  0.00    +0.000 A 
ATOM      6  C   UNL     1      44.760   6.259  12.052  0.00  0.00    +0.000 A 
ATOM      7  C   UNL     1      44.663   7.652  11.925  0.00  0.00    +0.000 A 
BRANCH   2  13
ATOM      8  C   UNL     1      43.911  10.676   9.391  0.00  0.00    +0.000 C 
ATOM      9  C   UNL     1      44.083  11.435  10.711  0.00  0.00    +0.000 C 
ATOM     10  C   UNL     1      45.233  12.454  10.643  0.00  0.00    +0.000 C 
ATOM     11  C   UNL     1      46.613  11.790  10.656  0.00  0.00    +0.000 C 
ATOM     12  C   UNL     1      46.760  10.792  11.809  0.00  0.00    +0.000 C 
ATOM     13  N   UNL     1      45.633   9.864  11.770  0.00  0.00    +0.000 N 
ATOM     14  C   UNL     1      44.305  10.471  11.884  0.00  0.00    +0.000 C 
ENDBRANCH   2  13
ENDBRANCH   1   6
BRANCH   1  15
ATOM     15  C   UNL     1      43.669   4.085  11.362  0.00  0.00    +0.000 C 
BRANCH  15  16
ATOM     16  O   UNL     1      43.613   4.289   9.944  0.00  0.00    +0.000 OA
BRANCH  16  17
ATOM     17  C   UNL     1      44.578   3.639   9.218  0.00  0.00    +0.000 A 
ATOM     18  C   UNL     1      44.793   2.259   9.221  0.00  0.00    +0.000 A 
ATOM     19  C   UNL     1      45.807   1.701   8.445  0.00  0.00    +0.000 A 
ATOM     20  C   UNL     1      46.621   2.509   7.645  0.00  0.00    +0.000 A 
ATOM     21  C   UNL     1      46.416   3.895   7.641  0.00  0.00    +0.000 A 
ATOM     22  C   UNL     1      45.397   4.453   8.428  0.00  0.00    +0.000 A 
BRANCH  20  23
ATOM     23  C   UNL     1      47.685   1.843   6.854  0.00  0.00    +0.000 C 
ATOM     24  N   UNL     1      48.657   2.633   6.308  0.00  0.00    +0.000 N 
ATOM     25  O   UNL     1      47.677   0.634   6.653  0.00  0.00    +0.000 OA
ATOM     26  H   UNL     1      48.586   3.639   6.260  0.00  0.00    +0.000 HD
ATOM     27  H   UNL     1      49.301   2.172   5.677  0.00  0.00    +0.000 HD
ENDBRANCH  20  23
ENDBRANCH  16  17
ENDBRANCH  15  16
ENDBRANCH   1  15
TORSDOF 6
ENDMDL
MODEL 4
REMARK VINA RESULT:    -7.433      2.149      2.882
REMARK INTER + INTRA:         -11.030
REMARK INTER:                  -9.985
REMARK INTRA:                  -1.044
REMARK UNBOUND:                -0.989
REMARK  Name = 
REMARK  7 active torsions:
REMARK  status: ('A' for Active; 'I' for Inactive)
REMARK    1  A    between atoms: C_1  and  C_2
REMARK    2  A    between atoms: N_6  and  C_7
REMARK    3  A    between atoms: C_11  and  C_12
REMARK    4  A    between atoms: C_12  and  C_13
REMARK    5  A    between atoms: C_13  and  O_14
REMARK    6  A    between atoms: O_14  and  C_15
REMARK    7  A    between atoms: C_18  and  C_19
REMARK                            x       y       z     vdW  Elec       q    Type
REMARK                         _______ _______ _______ _____ _____    ______ ____
ROOT
ATOM      1  C   UNL     1      44.505   4.603  12.188  0.00  0.00    +0.000 C 
ENDROOT
BRANCH   1   6
ATOM      2  C   UNL     1      47.190   7.222  12.991  0.00  0.00    +0.000 A 
ATOM      3  C   UNL     1      46.587   8.367  12.461  0.00  0.00    +0.000 A 
ATOM      4  C   UNL     1      45.327   8.313  11.853  0.00  0.00    +0.000 A 
ATOM      5  C   UNL     1      44.642   7.104  11.760  0.00  0.00    +0.000 A 
ATOM      6  C   UNL     1      45.207   5.937  12.280  0.00  0.00    +0.000 A 
ATOM      7  C   UNL     1      46.467   6.019  12.890  0.00  0.00    +0.000 A 
BRANCH   2  13
ATOM      8  C   UNL     1      48.526   9.036  16.078  0.00  0.00    +0.000 C 
ATOM      9  C   UNL     1      49.354   7.774  15.816  0.00  0.00    +0.000 C 
ATOM     10  C   UNL     1      50.689   8.097  15.124  0.00  0.00    +0.000 C 
ATOM     11  C   UNL     1      50.515   8.486  13.653  0.00  0.00    +0.000 C 
ATOM     12  C   UNL     1      49.669   7.465  12.885  0.00  0.00    +0.000 C 
ATOM     13  N   UNL     1      48.423   7.248  13.614  0.00  0.00    +0.000 N 
ATOM     14  C   UNL     1      48.567   6.752  14.984  0.00  0.00    +0.000 C 
ENDBRANCH   2  13
ENDBRANCH   1   6
BRANCH   1  15
ATOM     15  C   UNL     1      43.366   4.607  11.170  0.00  0.00    +0.000 C 
BRANCH  15  16
ATOM     16  O   UNL     1      43.356   3.370  10.445  0.00  0.00    +0.000 OA
BRANCH  16  17
ATOM     17  C   UNL     1      44.354   3.226   9.514  0.00  0.00    +0.000 A 
ATOM     18  C   UNL     1      44.899   4.262   8.755  0.00  0.00    +0.000 A 
ATOM     19  C   UNL     1      45.911   4.004   7.831  0.00  0.00    +0.000 A 
ATOM     20  C   UNL     1      46.401   2.705   7.654  0.00  0.00    +0.000 A 
ATOM     21  C   UNL     1      45.854   1.659   8.407  0.00  0.00    +0.000 A 
ATOM     22  C   UNL     1      44.832   1.924   9.331  0.00  0.00    +0.000 A 
BRANCH  20  23
ATOM     23  C   UNL     1      47.472   2.508   6.646  0.00  0.00    +0.000 C 
ATOM     24  N   UNL     1      47.348   3.164   5.453  0.00  0.00    +0.000 N 
ATOM     25  O   UNL     1      48.416   1.753   6.848  0.00  0.00    +0.000 OA
ATOM     26  H   UNL     1      46.494   3.615   5.160  0.00  0.00    +0.000 HD
ATOM     27  H   UNL     1      48.026   2.922   4.742  0.00  0.00    +0.000 HD
ENDBRANCH  20  23
ENDBRANCH  16  17
ENDBRANCH  15  16
ENDBRANCH   1  15
TORSDOF 6
ENDMDL
MODEL 5
REMARK VINA RESULT:    -7.103      1.644      2.851
REMARK INTER + INTRA:         -10.583
REMARK INTER:                  -9.605
REMARK INTRA:                  -0.977
REMARK UNBOUND:                -0.989
REMARK  Name = 
REMARK  7 active torsions:
REMARK  status: ('A' for Active; 'I' for Inactive)
REMARK    1  A    between atoms: C_1  and  C_2
REMARK    2  A    between atoms: N_6  and  C_7
REMARK    3  A    between atoms: C_11  and  C_12
REMARK    4  A    between atoms: C_12  and  C_13
REMARK    5  A    between atoms: C_13  and  O_14
REMARK    6  A    between atoms: O_14  and  C_15
REMARK    7  A    between atoms: C_18  and  C_19
REMARK                            x       y       z     vdW  Elec       q    Type
REMARK                         _______ _______ _______ _____ _____    ______ ____
ROOT
ATOM      1  C   UNL     1      45.349   5.967  11.195  0.00  0.00    +0.000 C 
ENDROOT
BRANCH   1   6
ATOM      2  C   UNL     1      47.696   6.221  14.219  0.00  0.00    +0.000 A 
ATOM      3  C   UNL     1      47.548   4.938  14.756  0.00  0.00    +0.000 A 
ATOM      4  C   UNL     1      46.710   3.989  14.161  0.00  0.00    +0.000 A 
ATOM      5  C   UNL     1      45.995   4.307  13.008  0.00  0.00    +0.000 A 
ATOM      6  C   UNL     1      46.117   5.576  12.436  0.00  0.00    +0.000 A 
ATOM      7  C   UNL     1      46.968   6.506  13.049  0.00  0.00    +0.000 A 
BRANCH   2  13
ATOM      8  C   UNL     1      48.540   7.179  17.821  0.00  0.00    +0.000 C 
ATOM      9  C   UNL     1      49.690   7.581  16.891  0.00  0.00    +0.000 C 
ATOM     10  C   UNL     1      49.663   9.083  16.563  0.00  0.00    +0.000 C 
ATOM     11  C   UNL     1      48.535   9.459  15.599  0.00  0.00    +0.000 C 
ATOM     12  C   UNL     1      48.524   8.569  14.351  0.00  0.00    +0.000 C 
ATOM     13  N   UNL     1      48.530   7.172  14.774  0.00  0.00    +0.000 N 
ATOM     14  C   UNL     1      49.672   6.761  15.594  0.00  0.00    +0.000 C 
ENDBRANCH   2  13
ENDBRANCH   1   6
BRANCH   1  15
ATOM     15  C   UNL     1      43.999   5.261  11.092  0.00  0.00    +0.000 C 
BRANCH  15  16
ATOM     16  O   UNL     1      43.725   4.931   9.724  0.00  0.00    +0.000 OA
BRANCH  16  17
ATOM     17  C   UNL     1      44.486   3.918   9.199  0.00  0.00    +0.000 A 
ATOM     18  C   UNL     1      44.371   2.568   9.538  0.00  0.00    +0.000 A 
ATOM     19  C   UNL     1      45.201   1.618   8.944  0.00  0.00    +0.000 A 
ATOM     20  C   UNL     1      46.156   1.998   7.995  0.00  0.00    +0.000 A 
ATOM     21  C   UNL     1      46.282   3.351   7.656  0.00  0.00    +0.000 A 
ATOM     22  C   UNL     1      45.449   4.303   8.260  0.00  0.00    +0.000 A 
BRANCH  20  23
ATOM     23  C   UNL     1      47.007   0.930   7.414  0.00  0.00    +0.000 C 
ATOM     24  N   UNL     1      47.997   1.310   6.550  0.00  0.00    +0.000 N 
ATOM     25  O   UNL     1      46.812  -0.254   7.658  0.00  0.00    +0.000 OA
ATOM     26  H   UNL     1      48.055   2.236   6.153  0.00  0.00    +0.000 HD
ATOM     27  H   UNL     1      48.484   0.559   6.078  0.00  0.00    +0.000 HD
ENDBRANCH  20  23
ENDBRANCH  16  17
ENDBRANCH  15  16
ENDBRANCH   1  15
TORSDOF 6
ENDMDL
MODEL 6
REMARK VINA RESULT:    -7.074      3.165      4.066
REMARK INTER + INTRA:         -10.544
REMARK INTER:                  -9.731
REMARK INTRA:                  -0.812
REMARK UNBOUND:                -0.989
REMARK  Name = 
REMARK  7 active torsions:
REMARK  status: ('A' for Active; 'I' for Inactive)
REMARK    1  A    between atoms: C_1  and  C_2
REMARK    2  A    between atoms: N_6  and  C_7
REMARK    3  A    between atoms: C_11  and  C_12
REMARK    4  A    between atoms: C_12  and  C_13
REMARK    5  A    between atoms: C_13  and  O_14
REMARK    6  A    between atoms: O_14  and  C_15
REMARK    7  A    between atoms: C_18  and  C_19
REMARK                            x       y       z     vdW  Elec       q    Type
REMARK                         _______ _______ _______ _____ _____    ______ ____
ROOT
ATOM      1  C   UNL     1      45.436   3.584  12.160  0.00  0.00    +0.000 C 
ENDROOT
BRANCH   1   6
ATOM      2  C   UNL     1      46.773   7.164  12.487  0.00  0.00    +0.000 A 
ATOM      3  C   UNL     1      45.571   7.880  12.485  0.00  0.00    +0.000 A 
ATOM      4  C   UNL     1      44.335   7.230  12.384  0.00  0.00    +0.000 A 
ATOM      5  C   UNL     1      44.277   5.842  12.282  0.00  0.00    +0.000 A 
ATOM      6  C   UNL     1      45.453   5.089  12.284  0.00  0.00    +0.000 A 
ATOM      7  C   UNL     1      46.678   5.764  12.391  0.00  0.00    +0.000 A 
BRANCH   2  13
ATOM      8  C   UNL     1      48.162  10.506  11.257  0.00  0.00    +0.000 C 
ATOM      9  C   UNL     1      48.951  10.032  12.482  0.00  0.00    +0.000 C 
ATOM     10  C   UNL     1      50.296   9.398  12.089  0.00  0.00    +0.000 C 
ATOM     11  C   UNL     1      50.134   8.014  11.453  0.00  0.00    +0.000 C 
ATOM     12  C   UNL     1      49.259   7.089  12.304  0.00  0.00    +0.000 C 
ATOM     13  N   UNL     1      48.006   7.777  12.603  0.00  0.00    +0.000 N 
ATOM     14  C   UNL     1      48.133   9.044  13.326  0.00  0.00    +0.000 C 
ENDBRANCH   2  13
ENDBRANCH   1   6
BRANCH   1  15
ATOM     15  C   UNL     1      44.057   3.040  11.793  0.00  0.00    +0.000 C 
BRANCH  15  16
ATOM     16  O   UNL     1      43.679   3.507  10.491  0.00  0.00    +0.000 OA
BRANCH  16  17
ATOM     17  C   UNL     1      44.555   3.203   9.480  0.00  0.00    +0.000 A 
ATOM     18  C   UNL     1      45.071   1.932   9.220  0.00  0.00    +0.000 A 
ATOM     19  C   UNL     1      45.960   1.733   8.165  0.00  0.00    +0.000 A 
ATOM     20  C   UNL     1      46.346   2.800   7.346  0.00  0.00    +0.000 A 
ATOM     21  C   UNL     1      45.838   4.080   7.605  0.00  0.00    +0.000 A 
ATOM     22  C   UNL     1      44.947   4.275   8.671  0.00  0.00    +0.000 A 
BRANCH  20  23
ATOM     23  C   UNL     1      47.302   2.512   6.249  0.00  0.00    +0.000 C 
ATOM     24  N   UNL     1      48.630   2.452   6.566  0.00  0.00    +0.000 N 
ATOM     25  O   UNL     1      46.931   2.375   5.089  0.00  0.00    +0.000 OA
ATOM     26  H   UNL     1      48.999   2.771   7.450  0.00  0.00    +0.000 HD
ATOM     27  H   UNL     1      49.270   2.372   5.785  0.00  0.00    +0.000 HD
ENDBRANCH  20  23
ENDBRANCH  16  17
ENDBRANCH  15  16
ENDBRANCH   1  15
TORSDOF 6
ENDMDL
MODEL 7
REMARK VINA RESULT:    -6.816      1.538      2.310
REMARK INTER + INTRA:         -10.195
REMARK INTER:                  -9.107
REMARK INTRA:                  -1.088
REMARK UNBOUND:                -0.989
REMARK  Name = 
REMARK  7 active torsions:
REMARK  status: ('A' for Active; 'I' for Inactive)
REMARK    1  A    between atoms: C_1  and  C_2
REMARK    2  A    between atoms: N_6  and  C_7
REMARK    3  A    between atoms: C_11  and  C_12
REMARK    4  A    between atoms: C_12  and  C_13
REMARK    5  A    between atoms: C_13  and  O_14
REMARK    6  A    between atoms: O_14  and  C_15
REMARK    7  A    between atoms: C_18  and  C_19
REMARK                            x       y       z     vdW  Elec       q    Type
REMARK                         _______ _______ _______ _____ _____    ______ ____
ROOT
ATOM      1  C   UNL     1      45.803   4.913  12.552  0.00  0.00    +0.000 C 
ENDROOT
BRANCH   1   6
ATOM      2  C   UNL     1      48.450   7.260  14.035  0.00  0.00    +0.000 A 
ATOM      3  C   UNL     1      48.832   7.961  12.887  0.00  0.00    +0.000 A 
ATOM      4  C   UNL     1      48.250   7.696  11.642  0.00  0.00    +0.000 A 
ATOM      5  C   UNL     1      47.268   6.716  11.520  0.00  0.00    +0.000 A 
ATOM      6  C   UNL     1      46.854   5.994  12.643  0.00  0.00    +0.000 A 
ATOM      7  C   UNL     1      47.449   6.284  13.879  0.00  0.00    +0.000 A 
BRANCH   2  13
ATOM      8  C   UNL     1      49.039   5.088  17.124  0.00  0.00    +0.000 C 
ATOM      9  C   UNL     1      50.020   6.265  17.120  0.00  0.00    +0.000 C 
ATOM     10  C   UNL     1      49.572   7.389  18.070  0.00  0.00    +0.000 C 
ATOM     11  C   UNL     1      48.372   8.174  17.535  0.00  0.00    +0.000 C 
ATOM     12  C   UNL     1      48.594   8.655  16.097  0.00  0.00    +0.000 C 
ATOM     13  N   UNL     1      48.994   7.513  15.280  0.00  0.00    +0.000 N 
ATOM     14  C   UNL     1      50.215   6.824  15.704  0.00  0.00    +0.000 C 
ENDBRANCH   2  13
ENDBRANCH   1   6
BRANCH   1  15
ATOM     15  C   UNL     1      44.577   5.351  11.754  0.00  0.00    +0.000 C 
BRANCH  15  16
ATOM     16  O   UNL     1      44.053   4.239  11.016  0.00  0.00    +0.000 OA
BRANCH  16  17
ATOM     17  C   UNL     1      44.784   3.867   9.915  0.00  0.00    +0.000 A 
ATOM     18  C   UNL     1      45.391   4.749   9.019  0.00  0.00    +0.000 A 
ATOM     19  C   UNL     1      46.110   4.263   7.928  0.00  0.00    +0.000 A 
ATOM     20  C   UNL     1      46.241   2.887   7.716  0.00  0.00    +0.000 A 
ATOM     21  C   UNL     1      45.629   1.996   8.606  0.00  0.00    +0.000 A 
ATOM     22  C   UNL     1      44.902   2.490   9.700  0.00  0.00    +0.000 A 
BRANCH  20  23
ATOM     23  C   UNL     1      47.014   2.447   6.528  0.00  0.00    +0.000 C 
ATOM     24  N   UNL     1      47.971   1.489   6.715  0.00  0.00    +0.000 N 
ATOM     25  O   UNL     1      46.841   2.949   5.424  0.00  0.00    +0.000 OA
ATOM     26  H   UNL     1      48.298   1.209   7.628  0.00  0.00    +0.000 HD
ATOM     27  H   UNL     1      48.563   1.292   5.918  0.00  0.00    +0.000 HD
ENDBRANCH  20  23
ENDBRANCH  16  17
ENDBRANCH  15  16
ENDBRANCH   1  15
TORSDOF 6
ENDMDL
MODEL 8
REMARK VINA RESULT:    -6.797      4.048      8.203
REMARK INTER + INTRA:         -10.170
REMARK INTER:                  -9.243
REMARK INTRA:                  -0.927
REMARK UNBOUND:                -0.989
REMARK  Name = 
REMARK  7 active torsions:
REMARK  status: ('A' for Active; 'I' for Inactive)
REMARK    1  A    between atoms: C_1  and  C_2
REMARK    2  A    between atoms: N_6  and  C_7
REMARK    3  A    between atoms: C_11  and  C_12
REMARK    4  A    between atoms: C_12  and  C_13
REMARK    5  A    between atoms: C_13  and  O_14
REMARK    6  A    between atoms: O_14  and  C_15
REMARK    7  A    between atoms: C_18  and  C_19
REMARK                            x       y       z     vdW  Elec       q    Type
REMARK                         _______ _______ _______ _____ _____    ______ ____
ROOT
ATOM      1  C   UNL     1      49.181   6.652  15.152  0.00  0.00    +0.000 C 
ENDROOT
BRANCH   1   6
ATOM      2  C   UNL     1      46.203   6.218  12.773  0.00  0.00    +0.000 A 
ATOM      3  C   UNL     1      45.804   7.551  12.629  0.00  0.00    +0.000 A 
ATOM      4  C   UNL     1      46.479   8.590  13.280  0.00  0.00    +0.000 A 
ATOM      5  C   UNL     1      47.574   8.314  14.096  0.00  0.00    +0.000 A 
ATOM      6  C   UNL     1      48.008   6.996  14.265  0.00  0.00    +0.000 A 
ATOM      7  C   UNL     1      47.317   5.975  13.597  0.00  0.00    +0.000 A 
BRANCH   2  13
ATOM      8  C   UNL     1      42.630   5.705  11.517  0.00  0.00    +0.000 C 
ATOM      9  C   UNL     1      43.595   4.817  10.723  0.00  0.00    +0.000 C 
ATOM     10  C   UNL     1      43.567   3.359  11.212  0.00  0.00    +0.000 C 
ATOM     11  C   UNL     1      44.254   3.176  12.568  0.00  0.00    +0.000 C 
ATOM     12  C   UNL     1      45.657   3.792  12.589  0.00  0.00    +0.000 C 
ATOM     13  N   UNL     1      45.567   5.174  12.128  0.00  0.00    +0.000 N 
ATOM     14  C   UNL     1      45.028   5.361  10.779  0.00  0.00    +0.000 C 
ENDBRANCH   2  13
ENDBRANCH   1   6
BRANCH   1  15
ATOM     15  C   UNL     1      48.836   6.730  16.638  0.00  0.00    +0.000 C 
BRANCH  15  16
ATOM     16  O   UNL     1      48.261   5.490  17.071  0.00  0.00    +0.000 OA
BRANCH  16  17
ATOM     17  C   UNL     1      49.138   4.441  17.181  0.00  0.00    +0.000 A 
ATOM     18  C   UNL     1      48.843   3.111  16.876  0.00  0.00    +0.000 A 
ATOM     19  C   UNL     1      49.811   2.120  17.027  0.00  0.00    +0.000 A 
ATOM     20  C   UNL     1      51.095   2.440  17.481  0.00  0.00    +0.000 A 
ATOM     21  C   UNL     1      51.397   3.771  17.796  0.00  0.00    +0.000 A 
ATOM     22  C   UNL     1      50.417   4.764  17.647  0.00  0.00    +0.000 A 
BRANCH  20  23
ATOM     23  C   UNL     1      52.068   1.329  17.625  0.00  0.00    +0.000 C 
ATOM     24  N   UNL     1      51.615   0.155  18.159  0.00  0.00    +0.000 N 
ATOM     25  O   UNL     1      53.248   1.462  17.321  0.00  0.00    +0.000 OA
ATOM     26  H   UNL     1      50.721   0.070  18.621  0.00  0.00    +0.000 HD
ATOM     27  H   UNL     1      52.319  -0.544  18.356  0.00  0.00    +0.000 HD
ENDBRANCH  20  23
ENDBRANCH  16  17
ENDBRANCH  15  16
ENDBRANCH   1  15
TORSDOF 6
ENDMDL
MODEL 9
REMARK VINA RESULT:    -6.719      3.667      7.833
REMARK INTER + INTRA:         -10.065
REMARK INTER:                  -8.667
REMARK INTRA:                  -1.398
REMARK UNBOUND:                -0.989
REMARK  Name = 
REMARK  7 active torsions:
REMARK  status: ('A' for Active; 'I' for Inactive)
REMARK    1  A    between atoms: C_1  and  C_2
REMARK    2  A    between atoms: N_6  and  C_7
REMARK    3  A    between atoms: C_11  and  C_12
REMARK    4  A    between atoms: C_12  and  C_13
REMARK    5  A    between atoms: C_13  and  O_14
REMARK    6  A    between atoms: O_14  and  C_15
REMARK    7  A    between atoms: C_18  and  C_19
REMARK                            x       y       z     vdW  Elec       q    Type
REMARK                         _______ _______ _______ _____ _____    ______ ____
ROOT
ATOM      1  C   UNL     1      48.937   8.285  11.892  0.00  0.00    +0.000 C 
ENDROOT
BRANCH   1   6
ATOM      2  C   UNL     1      45.325   7.077  11.436  0.00  0.00    +0.000 A 
ATOM      3  C   UNL     1      44.629   8.239  11.783  0.00  0.00    +0.000 A 
ATOM      4  C   UNL     1      45.301   9.408  12.157  0.00  0.00    +0.000 A 
ATOM      5  C   UNL     1      46.693   9.438  12.194  0.00  0.00    +0.000 A 
ATOM      6  C   UNL     1      47.428   8.300  11.851  0.00  0.00    +0.000 A 
ATOM      7  C   UNL     1      46.730   7.144  11.474  0.00  0.00    +0.000 A 
BRANCH   2  13
ATOM      8  C   UNL     1      43.213   4.495  13.301  0.00  0.00    +0.000 C 
ATOM      9  C   UNL     1      42.859   4.480  11.810  0.00  0.00    +0.000 C 
ATOM     10  C   UNL     1      43.530   3.308  11.073  0.00  0.00    +0.000 C 
ATOM     11  C   UNL     1      45.035   3.513  10.882  0.00  0.00    +0.000 C 
ATOM     12  C   UNL     1      45.355   4.877  10.262  0.00  0.00    +0.000 C 
ATOM     13  N   UNL     1      44.690   5.914  11.045  0.00  0.00    +0.000 N 
ATOM     14  C   UNL     1      43.232   5.806  11.134  0.00  0.00    +0.000 C 
ENDBRANCH   2  13
ENDBRANCH   1   6
BRANCH   1  15
ATOM     15  C   UNL     1      49.488   7.280  12.901  0.00  0.00    +0.000 C 
BRANCH  15  16
ATOM     16  O   UNL     1      49.081   7.647  14.226  0.00  0.00    +0.000 OA
BRANCH  16  17
ATOM     17  C   UNL     1      48.670   6.609  15.023  0.00  0.00    +0.000 A 
ATOM     18  C   UNL     1      47.695   5.670  14.680  0.00  0.00    +0.000 A 
ATOM     19  C   UNL     1      47.350   4.654  15.570  0.00  0.00    +0.000 A 
ATOM     20  C   UNL     1      47.977   4.552  16.816  0.00  0.00    +0.000 A 
ATOM     21  C   UNL     1      48.952   5.495  17.170  0.00  0.00    +0.000 A 
ATOM     22  C   UNL     1      49.291   6.518  16.273  0.00  0.00    +0.000 A 
BRANCH  20  23
ATOM     23  C   UNL     1      47.550   3.449  17.711  0.00  0.00    +0.000 C 
ATOM     24  N   UNL     1      48.344   3.162  18.787  0.00  0.00    +0.000 N 
ATOM     25  O   UNL     1      46.548   2.782  17.480  0.00  0.00    +0.000 OA
ATOM     26  H   UNL     1      49.278   3.530  18.894  0.00  0.00    +0.000 HD
ATOM     27  H   UNL     1      48.096   2.334  19.313  0.00  0.00    +0.000 HD
ENDBRANCH  20  23
ENDBRANCH  16  17
ENDBRANCH  15  16
ENDBRANCH   1  15
TORSDOF 6
ENDMDL
