MODEL 1
REMARK VINA RESULT:    -8.303      0.000      0.000
REMARK INTER + INTRA:         -10.505
REMARK INTER:                 -10.244
REMARK INTRA:                  -0.261
REMARK UNBOUND:                -0.261
REMARK  Name = 
REMARK  4 active torsions:
REMARK  status: ('A' for Active; 'I' for Inactive)
REMARK    1  A    between atoms: C_4  and  C_5
REMARK    2  A    between atoms: C_5  and  N_6
REMARK    3  A    between atoms: C_9  and  C_10
REMARK    4  A    between atoms: C_18  and  C_19
REMARK                            x       y       z     vdW  Elec       q    Type
REMARK                         _______ _______ _______ _____ _____    ______ ____
ROOT
ATOM      1  F   UNL     1      46.970   4.449  14.461  0.00  0.00    +0.000 F 
ATOM      2  C   UNL     1      46.118   4.962  13.563  0.00  0.00    +0.000 A 
ATOM      3  C   UNL     1      45.195   4.131  12.945  0.00  0.00    +0.000 A 
ATOM      4  C   UNL     1      44.322   4.659  11.991  0.00  0.00    +0.000 A 
ATOM      5  C   UNL     1      44.372   6.039  11.710  0.00  0.00    +0.000 A 
ATOM      6  C   UNL     1      45.311   6.895  12.323  0.00  0.00    +0.000 A 
ATOM      7  C   UNL     1      46.187   6.318  13.258  0.00  0.00    +0.000 A 
ENDROOT
BRANCH   6   8
ATOM      8  C   UNL     1      45.390   8.335  11.982  0.00  0.00    +0.000 A 
ATOM      9  C   UNL     1      44.360   9.003  11.303  0.00  0.00    +0.000 A 
ATOM     10  C   UNL     1      44.453  10.366  11.022  0.00  0.00    +0.000 A 
ATOM     11  C   UNL     1      45.593  11.041  11.417  0.00  0.00    +0.000 A 
ATOM     12  N   UNL     1      46.617  10.453  12.063  0.00  0.00    +0.000 NA
ATOM     13  C   UNL     1      46.487   9.128  12.332  0.00  0.00    +0.000 A 
ENDBRANCH   6   8
BRANCH   4  14
ATOM     14  C   UNL     1      43.347   3.762  11.264  0.00  0.00    +0.000 C 
BRANCH  14  15
ATOM     15  N   UNL     1      44.040   2.595  10.736  0.00  0.00    +0.000 N 
ATOM     16  C   UNL     1      44.784   2.873   9.576  0.00  0.00    +0.000 A 
ATOM     17  C   UNL     1      45.491   1.836   8.974  0.00  0.00    +0.000 A 
ATOM     18  C   UNL     1      46.254   2.088   7.825  0.00  0.00    +0.000 A 
ATOM     19  C   UNL     1      46.284   3.389   7.318  0.00  0.00    +0.000 A 
ATOM     20  C   UNL     1      45.567   4.364   7.981  0.00  0.00    +0.000 A 
ATOM     21  N   UNL     1      44.834   4.129   9.090  0.00  0.00    +0.000 NA
ATOM     22  H   UNL     1      43.404   1.825  10.552  0.00  0.00    +0.000 HD
BRANCH  18  23
ATOM     23  C   UNL     1      47.032   1.000   7.141  0.00  0.00    +0.000 C 
ATOM     24  F   UNL     1      46.780   0.901   5.806  0.00  0.00    +0.000 F 
ATOM     25  F   UNL     1      48.377   1.179   7.254  0.00  0.00    +0.000 F 
ATOM     26  F   UNL     1      46.775  -0.230   7.663  0.00  0.00    +0.000 F 
ENDBRANCH  18  23
ENDBRANCH  14  15
ENDBRANCH   4  14
TORSDOF 4
ENDMDL
MODEL 2
REMARK VINA RESULT:    -7.811      3.355      7.630
REMARK INTER + INTRA:          -9.899
REMARK INTER:                  -9.197
REMARK INTRA:                  -0.701
REMARK UNBOUND:                -0.261
REMARK  Name = 
REMARK  4 active torsions:
REMARK  status: ('A' for Active; 'I' for Inactive)
REMARK    1  A    between atoms: C_4  and  C_5
REMARK    2  A    between atoms: C_5  and  N_6
REMARK    3  A    between atoms: C_9  and  C_10
REMARK    4  A    between atoms: C_18  and  C_19
REMARK                            x       y       z     vdW  Elec       q    Type
REMARK                         _______ _______ _______ _____ _____    ______ ____
ROOT
ATOM      1  F   UNL     1      42.850   2.354  11.750  0.00  0.00    +0.000 F 
ATOM      2  C   UNL     1      43.734   3.100  11.074  0.00  0.00    +0.000 A 
ATOM      3  C   UNL     1      43.981   4.403  11.481  0.00  0.00    +0.000 A 
ATOM      4  C   UNL     1      44.884   5.190  10.763  0.00  0.00    +0.000 A 
ATOM      5  C   UNL     1      45.556   4.625   9.661  0.00  0.00    +0.000 A 
ATOM      6  C   UNL     1      45.308   3.305   9.228  0.00  0.00    +0.000 A 
ATOM      7  C   UNL     1      44.374   2.556   9.964  0.00  0.00    +0.000 A 
ENDROOT
BRANCH   6   8
ATOM      8  C   UNL     1      45.982   2.737   8.037  0.00  0.00    +0.000 A 
ATOM      9  C   UNL     1      46.231   3.495   6.883  0.00  0.00    +0.000 A 
ATOM     10  C   UNL     1      46.893   2.937   5.788  0.00  0.00    +0.000 A 
ATOM     11  C   UNL     1      47.285   1.614   5.863  0.00  0.00    +0.000 A 
ATOM     12  N   UNL     1      47.066   0.835   6.939  0.00  0.00    +0.000 NA
ATOM     13  C   UNL     1      46.431   1.414   7.991  0.00  0.00    +0.000 A 
ENDBRANCH   6   8
BRANCH   4  14
ATOM     14  C   UNL     1      45.128   6.629  11.155  0.00  0.00    +0.000 C 
BRANCH  14  15
ATOM     15  N   UNL     1      45.630   6.697  12.521  0.00  0.00    +0.000 N 
ATOM     16  C   UNL     1      46.999   7.011  12.590  0.00  0.00    +0.000 A 
ATOM     17  C   UNL     1      47.597   7.102  13.843  0.00  0.00    +0.000 A 
ATOM     18  C   UNL     1      48.958   7.429  13.942  0.00  0.00    +0.000 A 
ATOM     19  C   UNL     1      49.674   7.660  12.767  0.00  0.00    +0.000 A 
ATOM     20  C   UNL     1      49.004   7.563  11.564  0.00  0.00    +0.000 A 
ATOM     21  N   UNL     1      47.695   7.254  11.462  0.00  0.00    +0.000 NA
ATOM     22  H   UNL     1      45.454   5.838  13.034  0.00  0.00    +0.000 HD
BRANCH  18  23
ATOM     23  C   UNL     1      49.647   7.537  15.273  0.00  0.00    +0.000 C 
ATOM     24  F   UNL     1      49.975   8.813  15.620  0.00  0.00    +0.000 F 
ATOM     25  F   UNL     1      48.877   7.062  16.292  0.00  0.00    +0.000 F 
ATOM     26  F   UNL     1      50.806   6.826  15.319  0.00  0.00    +0.000 F 
ENDBRANCH  18  23
ENDBRANCH  14  15
ENDBRANCH   4  14
TORSDOF 4
ENDMDL
MODEL 3
REMARK VINA RESULT:    -7.745      2.478      4.420
REMARK INTER + INTRA:          -9.817
REMARK INTER:                  -9.152
REMARK INTRA:                  -0.665
REMARK UNBOUND:                -0.261
REMARK  Name = 
REMARK  4 active torsions:
REMARK  status: ('A' for Active; 'I' for Inactive)
REMARK    1  A    between atoms: C_4  and  C_5
REMARK    2  A    between atoms: C_5  and  N_6
REMARK    3  A    between atoms: C_9  and  C_10
REMARK    4  A    between atoms: C_18  and  C_19
REMARK                            x       y       z     vdW  Elec       q    Type
REMARK                         _______ _______ _______ _____ _____    ______ ____
ROOT
ATOM      1  F   UNL     1      46.901   9.524  12.529  0.00  0.00    +0.000 F 
ATOM      2  C   UNL     1      46.658   8.207  12.571  0.00  0.00    +0.000 A 
ATOM      3  C   UNL     1      45.869   7.627  11.589  0.00  0.00    +0.000 A 
ATOM      4  C   UNL     1      45.594   6.258  11.645  0.00  0.00    +0.000 A 
ATOM      5  C   UNL     1      46.162   5.490  12.680  0.00  0.00    +0.000 A 
ATOM      6  C   UNL     1      46.958   6.067  13.692  0.00  0.00    +0.000 A 
ATOM      7  C   UNL     1      47.189   7.451  13.612  0.00  0.00    +0.000 A 
ENDROOT
BRANCH   6   8
ATOM      8  C   UNL     1      47.509   5.259  14.805  0.00  0.00    +0.000 A 
ATOM      9  C   UNL     1      48.289   5.822  15.826  0.00  0.00    +0.000 A 
ATOM     10  C   UNL     1      48.769   5.037  16.876  0.00  0.00    +0.000 A 
ATOM     11  C   UNL     1      48.469   3.688  16.877  0.00  0.00    +0.000 A 
ATOM     12  N   UNL     1      47.733   3.091  15.921  0.00  0.00    +0.000 NA
ATOM     13  C   UNL     1      47.272   3.886  14.922  0.00  0.00    +0.000 A 
ENDBRANCH   6   8
BRANCH   4  14
ATOM     14  C   UNL     1      44.692   5.614  10.617  0.00  0.00    +0.000 C 
BRANCH  14  15
ATOM     15  N   UNL     1      45.371   5.546   9.330  0.00  0.00    +0.000 N 
ATOM     16  C   UNL     1      45.574   4.228   8.883  0.00  0.00    +0.000 A 
ATOM     17  C   UNL     1      46.216   4.031   7.664  0.00  0.00    +0.000 A 
ATOM     18  C   UNL     1      46.418   2.728   7.187  0.00  0.00    +0.000 A 
ATOM     19  C   UNL     1      45.959   1.658   7.957  0.00  0.00    +0.000 A 
ATOM     20  C   UNL     1      45.319   1.938   9.147  0.00  0.00    +0.000 A 
ATOM     21  N   UNL     1      45.118   3.190   9.610  0.00  0.00    +0.000 NA
ATOM     22  H   UNL     1      46.259   6.039   9.341  0.00  0.00    +0.000 HD
BRANCH  18  23
ATOM     23  C   UNL     1      47.108   2.466   5.877  0.00  0.00    +0.000 C 
ATOM     24  F   UNL     1      46.655   1.357   5.230  0.00  0.00    +0.000 F 
ATOM     25  F   UNL     1      46.955   3.497   5.000  0.00  0.00    +0.000 F 
ATOM     26  F   UNL     1      48.450   2.295   6.021  0.00  0.00    +0.000 F 
ENDBRANCH  18  23
ENDBRANCH  14  15
ENDBRANCH   4  14
TORSDOF 4
ENDMDL
MODEL 4
REMARK VINA RESULT:    -7.555      4.194      8.370
REMARK INTER + INTRA:          -9.582
REMARK INTER:                  -9.059
REMARK INTRA:                  -0.523
REMARK UNBOUND:                -0.261
REMARK  Name = 
REMARK  4 active torsions:
REMARK  status: ('A' for Active; 'I' for Inactive)
REMARK    1  A    between atoms: C_4  and  C_5
REMARK    2  A    between atoms: C_5  and  N_6
REMARK    3  A    between atoms: C_9  and  C_10
REMARK    4  A    between atoms: C_18  and  C_19
REMARK                            x       y       z     vdW  Elec       q    Type
REMARK                         _______ _______ _______ _____ _____    ______ ____
ROOT
ATOM      1  F   UNL     1      42.827   2.282  11.770  0.00  0.00    +0.000 F 
ATOM      2  C   UNL     1      43.664   3.081  11.094  0.00  0.00    +0.000 A 
ATOM      3  C   UNL     1      43.812   4.403  11.486  0.00  0.00    +0.000 A 
ATOM      4  C   UNL     1      44.666   5.244  10.767  0.00  0.00    +0.000 A 
ATOM      5  C   UNL     1      45.389   4.714   9.680  0.00  0.00    +0.000 A 
ATOM      6  C   UNL     1      45.242   3.374   9.263  0.00  0.00    +0.000 A 
ATOM      7  C   UNL     1      44.355   2.570   9.998  0.00  0.00    +0.000 A 
ENDROOT
BRANCH   6   8
ATOM      8  C   UNL     1      45.969   2.841   8.088  0.00  0.00    +0.000 A 
ATOM      9  C   UNL     1      46.264   3.630   6.966  0.00  0.00    +0.000 A 
ATOM     10  C   UNL     1      46.975   3.104   5.886  0.00  0.00    +0.000 A 
ATOM     11  C   UNL     1      47.370   1.781   5.943  0.00  0.00    +0.000 A 
ATOM     12  N   UNL     1      47.108   0.973   6.987  0.00  0.00    +0.000 NA
ATOM     13  C   UNL     1      46.425   1.520   8.025  0.00  0.00    +0.000 A 
ENDBRANCH   6   8
BRANCH   4  14
ATOM     14  C   UNL     1      44.801   6.702  11.142  0.00  0.00    +0.000 C 
BRANCH  14  15
ATOM     15  N   UNL     1      43.542   7.397  10.906  0.00  0.00    +0.000 N 
ATOM     16  C   UNL     1      43.652   8.793  11.027  0.00  0.00    +0.000 A 
ATOM     17  C   UNL     1      42.514   9.570  10.827  0.00  0.00    +0.000 A 
ATOM     18  C   UNL     1      42.599  10.966  10.926  0.00  0.00    +0.000 A 
ATOM     19  C   UNL     1      43.837  11.539  11.222  0.00  0.00    +0.000 A 
ATOM     20  C   UNL     1      44.920  10.701  11.392  0.00  0.00    +0.000 A 
ATOM     21  N   UNL     1      44.846   9.357  11.294  0.00  0.00    +0.000 NA
ATOM     22  H   UNL     1      42.802   7.062  11.516  0.00  0.00    +0.000 HD
BRANCH  18  23
ATOM     23  C   UNL     1      41.397  11.845  10.719  0.00  0.00    +0.000 C 
ATOM     24  F   UNL     1      41.337  12.903  11.575  0.00  0.00    +0.000 F 
ATOM     25  F   UNL     1      41.358  12.377   9.466  0.00  0.00    +0.000 F 
ATOM     26  F   UNL     1      40.226  11.169  10.874  0.00  0.00    +0.000 F 
ENDBRANCH  18  23
ENDBRANCH  14  15
ENDBRANCH   4  14
TORSDOF 4
ENDMDL
MODEL 5
REMARK VINA RESULT:    -7.134      3.901      7.496
REMARK INTER + INTRA:          -9.063
REMARK INTER:                  -8.516
REMARK INTRA:                  -0.547
REMARK UNBOUND:                -0.261
REMARK  Name = 
REMARK  4 active torsions:
REMARK  status: ('A' for Active; 'I' for Inactive)
REMARK    1  A    between atoms: C_4  and  C_5
REMARK    2  A    between atoms: C_5  and  N_6
REMARK    3  A    between atoms: C_9  and  C_10
REMARK    4  A    between atoms: C_18  and  C_19
REMARK                            x       y       z     vdW  Elec       q    Type
REMARK                         _______ _______ _______ _____ _____    ______ ____
ROOT
ATOM      1  F   UNL     1      43.221   4.011  10.462  0.00  0.00    +0.000 F 
ATOM      2  C   UNL     1      44.117   4.674  11.206  0.00  0.00    +0.000 A 
ATOM      3  C   UNL     1      44.934   3.972  12.079  0.00  0.00    +0.000 A 
ATOM      4  C   UNL     1      45.852   4.664  12.872  0.00  0.00    +0.000 A 
ATOM      5  C   UNL     1      45.954   6.063  12.735  0.00  0.00    +0.000 A 
ATOM      6  C   UNL     1      45.123   6.793  11.859  0.00  0.00    +0.000 A 
ATOM      7  C   UNL     1      44.197   6.060  11.098  0.00  0.00    +0.000 A 
ENDROOT
BRANCH   6   8
ATOM      8  C   UNL     1      45.203   8.269  11.760  0.00  0.00    +0.000 A 
ATOM      9  C   UNL     1      44.170   9.041  11.207  0.00  0.00    +0.000 A 
ATOM     10  C   UNL     1      44.265  10.432  11.154  0.00  0.00    +0.000 A 
ATOM     11  C   UNL     1      45.409  11.031  11.647  0.00  0.00    +0.000 A 
ATOM     12  N   UNL     1      46.436  10.343  12.181  0.00  0.00    +0.000 NA
ATOM     13  C   UNL     1      46.304   8.992  12.228  0.00  0.00    +0.000 A 
ENDBRANCH   6   8
BRANCH   4  14
ATOM     14  C   UNL     1      46.714   3.926  13.871  0.00  0.00    +0.000 C 
BRANCH  14  15
ATOM     15  N   UNL     1      46.703   4.622  15.151  0.00  0.00    +0.000 N 
ATOM     16  C   UNL     1      47.543   4.027  16.109  0.00  0.00    +0.000 A 
ATOM     17  C   UNL     1      47.617   4.600  17.375  0.00  0.00    +0.000 A 
ATOM     18  C   UNL     1      48.459   4.037  18.345  0.00  0.00    +0.000 A 
ATOM     19  C   UNL     1      49.208   2.910  18.003  0.00  0.00    +0.000 A 
ATOM     20  C   UNL     1      49.089   2.411  16.722  0.00  0.00    +0.000 A 
ATOM     21  N   UNL     1      48.284   2.950  15.783  0.00  0.00    +0.000 NA
ATOM     22  H   UNL     1      45.764   4.706  15.531  0.00  0.00    +0.000 HD
BRANCH  18  23
ATOM     23  C   UNL     1      48.570   4.620  19.726  0.00  0.00    +0.000 C 
ATOM     24  F   UNL     1      48.487   3.694  20.721  0.00  0.00    +0.000 F 
ATOM     25  F   UNL     1      49.753   5.268  19.918  0.00  0.00    +0.000 F 
ATOM     26  F   UNL     1      47.598   5.537  19.984  0.00  0.00    +0.000 F 
ENDBRANCH  18  23
ENDBRANCH  14  15
ENDBRANCH   4  14
TORSDOF 4
ENDMDL
MODEL 6
REMARK VINA RESULT:    -7.069      4.405      8.709
REMARK INTER + INTRA:          -8.983
REMARK INTER:                  -8.315
REMARK INTRA:                  -0.669
REMARK UNBOUND:                -0.261
REMARK  Name = 
REMARK  4 active torsions:
REMARK  status: ('A' for Active; 'I' for Inactive)
REMARK    1  A    between atoms: C_4  and  C_5
REMARK    2  A    between atoms: C_5  and  N_6
REMARK    3  A    between atoms: C_9  and  C_10
REMARK    4  A    between atoms: C_18  and  C_19
REMARK                            x       y       z     vdW  Elec       q    Type
REMARK                         _______ _______ _______ _____ _____    ______ ____
ROOT
ATOM      1  F   UNL     1      44.908   9.555  12.645  0.00  0.00    +0.000 F 
ATOM      2  C   UNL     1      45.573   8.392  12.606  0.00  0.00    +0.000 A 
ATOM      3  C   UNL     1      46.717   8.233  13.373  0.00  0.00    +0.000 A 
ATOM      4  C   UNL     1      47.425   7.030  13.314  0.00  0.00    +0.000 A 
ATOM      5  C   UNL     1      46.933   5.988  12.504  0.00  0.00    +0.000 A 
ATOM      6  C   UNL     1      45.777   6.137  11.710  0.00  0.00    +0.000 A 
ATOM      7  C   UNL     1      45.109   7.371  11.779  0.00  0.00    +0.000 A 
ENDROOT
BRANCH   6   8
ATOM      8  C   UNL     1      45.297   5.053  10.822  0.00  0.00    +0.000 A 
ATOM      9  C   UNL     1      45.528   5.058   9.438  0.00  0.00    +0.000 A 
ATOM     10  C   UNL     1      45.086   4.007   8.633  0.00  0.00    +0.000 A 
ATOM     11  C   UNL     1      44.402   2.966   9.232  0.00  0.00    +0.000 A 
ATOM     12  N   UNL     1      44.142   2.910  10.551  0.00  0.00    +0.000 NA
ATOM     13  C   UNL     1      44.597   3.943  11.306  0.00  0.00    +0.000 A 
ENDBRANCH   6   8
BRANCH   4  14
ATOM     14  C   UNL     1      48.705   6.854  14.099  0.00  0.00    +0.000 C 
BRANCH  14  15
ATOM     15  N   UNL     1      48.516   7.307  15.471  0.00  0.00    +0.000 N 
ATOM     16  C   UNL     1      48.459   6.250  16.397  0.00  0.00    +0.000 A 
ATOM     17  C   UNL     1      48.278   6.555  17.743  0.00  0.00    +0.000 A 
ATOM     18  C   UNL     1      48.234   5.521  18.690  0.00  0.00    +0.000 A 
ATOM     19  C   UNL     1      48.379   4.205  18.248  0.00  0.00    +0.000 A 
ATOM     20  C   UNL     1      48.568   3.988  16.898  0.00  0.00    +0.000 A 
ATOM     21  N   UNL     1      48.617   4.978  15.982  0.00  0.00    +0.000 NA
ATOM     22  H   UNL     1      47.688   7.887  15.570  0.00  0.00    +0.000 HD
BRANCH  18  23
ATOM     23  C   UNL     1      48.039   5.803  20.154  0.00  0.00    +0.000 C 
ATOM     24  F   UNL     1      48.567   4.850  20.971  0.00  0.00    +0.000 F 
ATOM     25  F   UNL     1      48.613   6.978  20.533  0.00  0.00    +0.000 F 
ATOM     26  F   UNL     1      46.726   5.903  20.494  0.00  0.00    +0.000 F 
ENDBRANCH  18  23
ENDBRANCH  14  15
ENDBRANCH   4  14
TORSDOF 4
ENDMDL
MODEL 7
REMARK VINA RESULT:    -6.960      5.105      6.545
REMARK INTER + INTRA:          -8.848
REMARK INTER:                  -8.274
REMARK INTRA:                  -0.574
REMARK UNBOUND:                -0.261
REMARK  Name = 
REMARK  4 active torsions:
REMARK  status: ('A' for Active; 'I' for Inactive)
REMARK    1  A    between atoms: C_4  and  C_5
REMARK    2  A    between atoms: C_5  and  N_6
REMARK    3  A    between atoms: C_9  and  C_10
REMARK    4  A    between atoms: C_18  and  C_19
REMARK                            x       y       z     vdW  Elec       q    Type
REMARK                         _______ _______ _______ _____ _____    ______ ____
ROOT
ATOM      1  F   UNL     1      49.604   1.497  16.853  0.00  0.00    +0.000 F 
ATOM      2  C   UNL     1      48.865   2.605  16.998  0.00  0.00    +0.000 A 
ATOM      3  C   UNL     1      48.121   3.075  15.925  0.00  0.00    +0.000 A 
ATOM      4  C   UNL     1      47.370   4.244  16.067  0.00  0.00    +0.000 A 
ATOM      5  C   UNL     1      47.354   4.898  17.315  0.00  0.00    +0.000 A 
ATOM      6  C   UNL     1      48.113   4.438  18.412  0.00  0.00    +0.000 A 
ATOM      7  C   UNL     1      48.874   3.273  18.219  0.00  0.00    +0.000 A 
ENDROOT
BRANCH   6   8
ATOM      8  C   UNL     1      48.129   5.161  19.705  0.00  0.00    +0.000 A 
ATOM      9  C   UNL     1      47.506   6.407  19.876  0.00  0.00    +0.000 A 
ATOM     10  C   UNL     1      47.516   7.049  21.115  0.00  0.00    +0.000 A 
ATOM     11  C   UNL     1      48.168   6.434  22.167  0.00  0.00    +0.000 A 
ATOM     12  N   UNL     1      48.790   5.245  22.062  0.00  0.00    +0.000 NA
ATOM     13  C   UNL     1      48.750   4.642  20.846  0.00  0.00    +0.000 A 
ENDBRANCH   6   8
BRANCH   4  14
ATOM     14  C   UNL     1      46.596   4.805  14.896  0.00  0.00    +0.000 C 
BRANCH  14  15
ATOM     15  N   UNL     1      46.224   3.733  13.983  0.00  0.00    +0.000 N 
ATOM     16  C   UNL     1      45.896   4.194  12.696  0.00  0.00    +0.000 A 
ATOM     17  C   UNL     1      45.520   3.262  11.732  0.00  0.00    +0.000 A 
ATOM     18  C   UNL     1      45.203   3.692  10.435  0.00  0.00    +0.000 A 
ATOM     19  C   UNL     1      45.279   5.056  10.149  0.00  0.00    +0.000 A 
ATOM     20  C   UNL     1      45.672   5.914  11.157  0.00  0.00    +0.000 A 
ATOM     21  N   UNL     1      45.984   5.506  12.405  0.00  0.00    +0.000 NA
ATOM     22  H   UNL     1      45.459   3.172  14.346  0.00  0.00    +0.000 HD
BRANCH  18  23
ATOM     23  C   UNL     1      44.791   2.723   9.363  0.00  0.00    +0.000 C 
ATOM     24  F   UNL     1      45.832   2.038   8.814  0.00  0.00    +0.000 F 
ATOM     25  F   UNL     1      43.926   1.779   9.827  0.00  0.00    +0.000 F 
ATOM     26  F   UNL     1      44.155   3.334   8.326  0.00  0.00    +0.000 F 
ENDBRANCH  18  23
ENDBRANCH  14  15
ENDBRANCH   4  14
TORSDOF 4
ENDMDL
MODEL 8
REMARK VINA RESULT:    -6.873      3.340      5.496
REMARK INTER + INTRA:          -8.741
REMARK INTER:                  -8.082
REMARK INTRA:                  -0.659
REMARK UNBOUND:                -0.261
REMARK  Name = 
REMARK  4 active torsions:
REMARK  status: ('A' for Active; 'I' for Inactive)
REMARK    1  A    between atoms: C_4  and  C_5
REMARK    2  A    between atoms: C_5  and  N_6
REMARK    3  A    between atoms: C_9  and  C_10
REMARK    4  A    between atoms: C_18  and  C_19
REMARK                            x       y       z     vdW  Elec       q    Type
REMARK                         _______ _______ _______ _____ _____    ______ ____
ROOT
ATOM      1  F   UNL     1      50.243   8.895  13.910  0.00  0.00    +0.000 F 
ATOM      2  C   UNL     1      49.222   8.030  13.978  0.00  0.00    +0.000 A 
ATOM      3  C   UNL     1      48.176   8.137  13.073  0.00  0.00    +0.000 A 
ATOM      4  C   UNL     1      47.099   7.251  13.158  0.00  0.00    +0.000 A 
ATOM      5  C   UNL     1      47.122   6.241  14.139  0.00  0.00    +0.000 A 
ATOM      6  C   UNL     1      48.173   6.126  15.073  0.00  0.00    +0.000 A 
ATOM      7  C   UNL     1      49.225   7.052  14.968  0.00  0.00    +0.000 A 
ENDROOT
BRANCH   6   8
ATOM      8  C   UNL     1      48.163   5.092  16.134  0.00  0.00    +0.000 A 
ATOM      9  C   UNL     1      49.186   4.985  17.088  0.00  0.00    +0.000 A 
ATOM     10  C   UNL     1      49.132   4.017  18.092  0.00  0.00    +0.000 A 
ATOM     11  C   UNL     1      48.052   3.155  18.114  0.00  0.00    +0.000 A 
ATOM     12  N   UNL     1      47.046   3.203  17.221  0.00  0.00    +0.000 NA
ATOM     13  C   UNL     1      47.124   4.165  16.266  0.00  0.00    +0.000 A 
ENDBRANCH   6   8
BRANCH   4  14
ATOM     14  C   UNL     1      45.922   7.382  12.218  0.00  0.00    +0.000 C 
BRANCH  14  15
ATOM     15  N   UNL     1      46.140   6.570  11.028  0.00  0.00    +0.000 N 
ATOM     16  C   UNL     1      45.394   5.378  11.031  0.00  0.00    +0.000 A 
ATOM     17  C   UNL     1      45.519   4.514   9.946  0.00  0.00    +0.000 A 
ATOM     18  C   UNL     1      44.775   3.326   9.915  0.00  0.00    +0.000 A 
ATOM     19  C   UNL     1      43.921   3.046  10.983  0.00  0.00    +0.000 A 
ATOM     20  C   UNL     1      43.844   3.961  12.013  0.00  0.00    +0.000 A 
ATOM     21  N   UNL     1      44.553   5.109  12.047  0.00  0.00    +0.000 NA
ATOM     22  H   UNL     1      47.123   6.354  10.890  0.00  0.00    +0.000 HD
BRANCH  18  23
ATOM     23  C   UNL     1      44.879   2.362   8.766  0.00  0.00    +0.000 C 
ATOM     24  F   UNL     1      46.148   1.937   8.519  0.00  0.00    +0.000 F 
ATOM     25  F   UNL     1      44.142   1.235   8.971  0.00  0.00    +0.000 F 
ATOM     26  F   UNL     1      44.427   2.895   7.598  0.00  0.00    +0.000 F 
ENDBRANCH  18  23
ENDBRANCH  14  15
ENDBRANCH   4  14
TORSDOF 4
ENDMDL
MODEL 9
REMARK VINA RESULT:    -6.864      4.248      8.173
REMARK INTER + INTRA:          -8.730
REMARK INTER:                  -8.203
REMARK INTRA:                  -0.527
REMARK UNBOUND:                -0.261
REMARK  Name = 
REMARK  4 active torsions:
REMARK  status: ('A' for Active; 'I' for Inactive)
REMARK    1  A    between atoms: C_4  and  C_5
REMARK    2  A    between atoms: C_5  and  N_6
REMARK    3  A    between atoms: C_9  and  C_10
REMARK    4  A    between atoms: C_18  and  C_19
REMARK                            x       y       z     vdW  Elec       q    Type
REMARK                         _______ _______ _______ _____ _____    ______ ____
ROOT
ATOM      1  F   UNL     1      44.079   9.703  11.630  0.00  0.00    +0.000 F 
ATOM      2  C   UNL     1      44.829   8.608  11.813  0.00  0.00    +0.000 A 
ATOM      3  C   UNL     1      45.878   8.643  12.720  0.00  0.00    +0.000 A 
ATOM      4  C   UNL     1      46.676   7.510  12.895  0.00  0.00    +0.000 A 
ATOM      5  C   UNL     1      46.369   6.341  12.171  0.00  0.00    +0.000 A 
ATOM      6  C   UNL     1      45.313   6.292  11.237  0.00  0.00    +0.000 A 
ATOM      7  C   UNL     1      44.550   7.461  11.074  0.00  0.00    +0.000 A 
ENDROOT
BRANCH   6   8
ATOM      8  C   UNL     1      45.030   5.074  10.443  0.00  0.00    +0.000 A 
ATOM      9  C   UNL     1      45.533   4.890   9.146  0.00  0.00    +0.000 A 
ATOM     10  C   UNL     1      45.271   3.718   8.436  0.00  0.00    +0.000 A 
ATOM     11  C   UNL     1      44.492   2.747   9.036  0.00  0.00    +0.000 A 
ATOM     12  N   UNL     1      43.974   2.871  10.273  0.00  0.00    +0.000 NA
ATOM     13  C   UNL     1      44.260   4.018  10.940  0.00  0.00    +0.000 A 
ENDBRANCH   6   8
BRANCH   4  14
ATOM     14  C   UNL     1      47.858   7.542  13.836  0.00  0.00    +0.000 C 
BRANCH  14  15
ATOM     15  N   UNL     1      47.683   6.552  14.891  0.00  0.00    +0.000 N 
ATOM     16  C   UNL     1      48.862   6.307  15.618  0.00  0.00    +0.000 A 
ATOM     17  C   UNL     1      48.823   5.377  16.653  0.00  0.00    +0.000 A 
ATOM     18  C   UNL     1      49.980   5.124  17.404  0.00  0.00    +0.000 A 
ATOM     19  C   UNL     1      51.145   5.825  17.089  0.00  0.00    +0.000 A 
ATOM     20  C   UNL     1      51.097   6.740  16.057  0.00  0.00    +0.000 A 
ATOM     21  N   UNL     1      49.986   6.992  15.333  0.00  0.00    +0.000 NA
ATOM     22  H   UNL     1      47.319   5.674  14.533  0.00  0.00    +0.000 HD
BRANCH  18  23
ATOM     23  C   UNL     1      49.986   4.128  18.529  0.00  0.00    +0.000 C 
ATOM     24  F   UNL     1      51.181   4.038  19.177  0.00  0.00    +0.000 F 
ATOM     25  F   UNL     1      49.065   4.427  19.487  0.00  0.00    +0.000 F 
ATOM     26  F   UNL     1      49.691   2.867  18.110  0.00  0.00    +0.000 F 
ENDBRANCH  18  23
ENDBRANCH  14  15
ENDBRANCH   4  14
TORSDOF 4
ENDMDL
