MODEL 1
REMARK VINA RESULT:    -8.381      0.000      0.000
REMARK INTER + INTRA:         -10.947
REMARK INTER:                 -10.831
REMARK INTRA:                  -0.116
REMARK UNBOUND:                -0.116
REMARK  Name = 
REMARK  5 active torsions:
REMARK  status: ('A' for Active; 'I' for Inactive)
REMARK    1  A    between atoms: C_2  and  C_19
REMARK    2  A    between atoms: N_3  and  C_4
REMARK    3  A    between atoms: C_4  and  C_5
REMARK    4  A    between atoms: N_8  and  C_9
REMARK    5  A    between atoms: C_9  and  C_10
REMARK                            x       y       z     vdW  Elec       q    Type
REMARK                         _______ _______ _______ _____ _____    ______ ____
ROOT
ATOM      1  O   UNL     1      46.655   3.562  16.698  0.00  0.00    +0.000 OA
ATOM      2  C   UNL     1      47.434   4.402  16.257  0.00  0.00    +0.000 C 
ATOM      3  N   UNL     1      47.334   4.898  14.982  0.00  0.00    +0.000 N 
ATOM      4  H   UNL     1      48.034   5.552  14.647  0.00  0.00    +0.000 HD
ENDROOT
BRANCH   2   5
ATOM      5  C   UNL     1      48.491   4.992  17.094  0.00  0.00    +0.000 A 
ATOM      6  C   UNL     1      48.358   6.297  17.552  0.00  0.00    +0.000 A 
ATOM      7  S   UNL     1      49.685   6.838  18.478  0.00  0.00    +0.000 S 
ATOM      8  C   UNL     1      50.471   5.334  18.333  0.00  0.00    +0.000 A 
ATOM      9  N   UNL     1      51.674   5.114  18.931  0.00  0.00    +0.000 NA
ATOM     10  C   UNL     1      52.141   3.923  18.766  0.00  0.00    +0.000 A 
ATOM     11  N   UNL     1      51.519   2.933  18.053  0.00  0.00    +0.000 N 
ATOM     12  C   UNL     1      50.334   3.129  17.381  0.00  0.00    +0.000 A 
ATOM     13  O   UNL     1      49.867   2.249  16.663  0.00  0.00    +0.000 OA
ATOM     14  C   UNL     1      49.743   4.440  17.568  0.00  0.00    +0.000 A 
ATOM     15  H   UNL     1      51.953   2.028  17.937  0.00  0.00    +0.000 HD
ENDBRANCH   2   5
BRANCH   3  16
ATOM     16  C   UNL     1      46.285   4.553  14.044  0.00  0.00    +0.000 C 
BRANCH  16  17
ATOM     17  C   UNL     1      45.771   5.811  13.323  0.00  0.00    +0.000 C 
ATOM     18  C   UNL     1      44.241   5.831  13.201  0.00  0.00    +0.000 C 
ATOM     19  C   UNL     1      43.730   4.875  12.126  0.00  0.00    +0.000 C 
ATOM     20  N   UNL     1      44.304   5.238  10.819  0.00  0.00    +0.000 NA
ATOM     21  C   UNL     1      45.771   5.098  10.856  0.00  0.00    +0.000 C 
ATOM     22  C   UNL     1      46.407   5.980  11.935  0.00  0.00    +0.000 C 
BRANCH  20  23
ATOM     23  C   UNL     1      43.751   4.412   9.731  0.00  0.00    +0.000 C 
BRANCH  23  24
ATOM     24  C   UNL     1      44.774   3.580   8.997  0.00  0.00    +0.000 A 
ATOM     25  C   UNL     1      45.610   4.148   8.029  0.00  0.00    +0.000 A 
ATOM     26  C   UNL     1      46.521   3.346   7.347  0.00  0.00    +0.000 A 
ATOM     27  C   UNL     1      46.561   1.999   7.661  0.00  0.00    +0.000 A 
ATOM     28 CL   UNL     1      47.646   0.943   6.853  0.00  0.00    +0.000 Cl
ATOM     29  N   UNL     1      45.785   1.409   8.591  0.00  0.00    +0.000 NA
ATOM     30  C   UNL     1      44.911   2.214   9.241  0.00  0.00    +0.000 A 
ENDBRANCH  23  24
ENDBRANCH  20  23
ENDBRANCH  16  17
ENDBRANCH   3  16
TORSDOF 5
ENDMDL
MODEL 2
REMARK VINA RESULT:    -8.219      1.556      1.686
REMARK INTER + INTRA:         -10.738
REMARK INTER:                 -10.568
REMARK INTRA:                  -0.170
REMARK UNBOUND:                -0.116
REMARK  Name = 
REMARK  5 active torsions:
REMARK  status: ('A' for Active; 'I' for Inactive)
REMARK    1  A    between atoms: C_2  and  C_19
REMARK    2  A    between atoms: N_3  and  C_4
REMARK    3  A    between atoms: C_4  and  C_5
REMARK    4  A    between atoms: N_8  and  C_9
REMARK    5  A    between atoms: C_9  and  C_10
REMARK                            x       y       z     vdW  Elec       q    Type
REMARK                         _______ _______ _______ _____ _____    ______ ____
ROOT
ATOM      1  O   UNL     1      49.321   6.611  14.416  0.00  0.00    +0.000 OA
ATOM      2  C   UNL     1      48.493   6.242  15.244  0.00  0.00    +0.000 C 
ATOM      3  N   UNL     1      47.334   5.602  14.888  0.00  0.00    +0.000 N 
ATOM      4  H   UNL     1      46.656   5.364  15.605  0.00  0.00    +0.000 HD
ENDROOT
BRANCH   2   5
ATOM      5  C   UNL     1      48.722   6.397  16.690  0.00  0.00    +0.000 A 
ATOM      6  C   UNL     1      48.967   7.660  17.215  0.00  0.00    +0.000 A 
ATOM      7  S   UNL     1      49.245   7.661  18.898  0.00  0.00    +0.000 S 
ATOM      8  C   UNL     1      49.009   5.977  18.995  0.00  0.00    +0.000 A 
ATOM      9  N   UNL     1      49.085   5.328  20.189  0.00  0.00    +0.000 NA
ATOM     10  C   UNL     1      48.855   4.061  20.123  0.00  0.00    +0.000 A 
ATOM     11  N   UNL     1      48.562   3.380  18.970  0.00  0.00    +0.000 N 
ATOM     12  C   UNL     1      48.537   3.983  17.733  0.00  0.00    +0.000 A 
ATOM     13  O   UNL     1      48.380   3.318  16.714  0.00  0.00    +0.000 OA
ATOM     14  C   UNL     1      48.747   5.418  17.757  0.00  0.00    +0.000 A 
ATOM     15  H   UNL     1      48.420   2.380  18.982  0.00  0.00    +0.000 HD
ENDBRANCH   2   5
BRANCH   3  16
ATOM     16  C   UNL     1      46.981   5.230  13.533  0.00  0.00    +0.000 C 
BRANCH  16  17
ATOM     17  C   UNL     1      46.014   6.260  12.925  0.00  0.00    +0.000 C 
ATOM     18  C   UNL     1      44.543   5.876  13.133  0.00  0.00    +0.000 C 
ATOM     19  C   UNL     1      44.098   4.750  12.204  0.00  0.00    +0.000 C 
ATOM     20  N   UNL     1      44.276   5.159  10.799  0.00  0.00    +0.000 NA
ATOM     21  C   UNL     1      45.702   5.406  10.523  0.00  0.00    +0.000 C 
ATOM     22  C   UNL     1      46.286   6.493  11.431  0.00  0.00    +0.000 C 
BRANCH  20  23
ATOM     23  C   UNL     1      43.753   4.147   9.865  0.00  0.00    +0.000 C 
BRANCH  23  24
ATOM     24  C   UNL     1      44.810   3.462   9.033  0.00  0.00    +0.000 A 
ATOM     25  C   UNL     1      45.486   4.144   8.016  0.00  0.00    +0.000 A 
ATOM     26  C   UNL     1      46.433   3.474   7.245  0.00  0.00    +0.000 A 
ATOM     27  C   UNL     1      46.667   2.139   7.523  0.00  0.00    +0.000 A 
ATOM     28 CL   UNL     1      47.807   1.241   6.607  0.00  0.00    +0.000 Cl
ATOM     29  N   UNL     1      46.050   1.443   8.498  0.00  0.00    +0.000 NA
ATOM     30  C   UNL     1      45.137   2.122   9.233  0.00  0.00    +0.000 A 
ENDBRANCH  23  24
ENDBRANCH  20  23
ENDBRANCH  16  17
ENDBRANCH   3  16
TORSDOF 5
ENDMDL
MODEL 3
REMARK VINA RESULT:    -8.023      1.607      1.931
REMARK INTER + INTRA:         -10.484
REMARK INTER:                 -10.312
REMARK INTRA:                  -0.172
REMARK UNBOUND:                -0.116
REMARK  Name = 
REMARK  5 active torsions:
REMARK  status: ('A' for Active; 'I' for Inactive)
REMARK    1  A    between atoms: C_2  and  C_19
REMARK    2  A    between atoms: N_3  and  C_4
REMARK    3  A    between atoms: C_4  and  C_5
REMARK    4  A    between atoms: N_8  and  C_9
REMARK    5  A    between atoms: C_9  and  C_10
REMARK                            x       y       z     vdW  Elec       q    Type
REMARK                         _______ _______ _______ _____ _____    ______ ____
ROOT
ATOM      1  O   UNL     1      47.285   3.228  16.198  0.00  0.00    +0.000 OA
ATOM      2  C   UNL     1      47.542   4.426  16.118  0.00  0.00    +0.000 C 
ATOM      3  N   UNL     1      47.176   5.186  15.037  0.00  0.00    +0.000 N 
ATOM      4  H   UNL     1      47.459   6.159  14.994  0.00  0.00    +0.000 HD
ENDROOT
BRANCH   2   5
ATOM      5  C   UNL     1      48.204   5.150  17.216  0.00  0.00    +0.000 A 
ATOM      6  C   UNL     1      47.862   4.867  18.532  0.00  0.00    +0.000 A 
ATOM      7  S   UNL     1      48.695   5.816  19.678  0.00  0.00    +0.000 S 
ATOM      8  C   UNL     1      49.573   6.617  18.459  0.00  0.00    +0.000 A 
ATOM      9  N   UNL     1      50.502   7.561  18.772  0.00  0.00    +0.000 NA
ATOM     10  C   UNL     1      51.116   8.065  17.756  0.00  0.00    +0.000 A 
ATOM     11  N   UNL     1      50.881   7.715  16.452  0.00  0.00    +0.000 N 
ATOM     12  C   UNL     1      49.910   6.812  16.084  0.00  0.00    +0.000 A 
ATOM     13  O   UNL     1      49.657   6.609  14.901  0.00  0.00    +0.000 OA
ATOM     14  C   UNL     1      49.219   6.184  17.194  0.00  0.00    +0.000 A 
ATOM     15  H   UNL     1      51.377   8.169  15.698  0.00  0.00    +0.000 HD
ENDBRANCH   2   5
BRANCH   3  16
ATOM     16  C   UNL     1      46.400   4.699  13.915  0.00  0.00    +0.000 C 
BRANCH  16  17
ATOM     17  C   UNL     1      45.712   5.868  13.187  0.00  0.00    +0.000 C 
ATOM     18  C   UNL     1      44.186   5.712  13.142  0.00  0.00    +0.000 C 
ATOM     19  C   UNL     1      43.736   4.670  12.121  0.00  0.00    +0.000 C 
ATOM     20  N   UNL     1      44.203   5.053  10.777  0.00  0.00    +0.000 NA
ATOM     21  C   UNL     1      45.676   5.079  10.743  0.00  0.00    +0.000 C 
ATOM     22  C   UNL     1      46.258   6.061  11.764  0.00  0.00    +0.000 C 
BRANCH  20  23
ATOM     23  C   UNL     1      43.696   4.136   9.742  0.00  0.00    +0.000 C 
BRANCH  23  24
ATOM     24  C   UNL     1      44.771   3.433   8.949  0.00  0.00    +0.000 A 
ATOM     25  C   UNL     1      45.486   4.100   7.948  0.00  0.00    +0.000 A 
ATOM     26  C   UNL     1      46.449   3.415   7.213  0.00  0.00    +0.000 A 
ATOM     27  C   UNL     1      46.662   2.080   7.509  0.00  0.00    +0.000 A 
ATOM     28 CL   UNL     1      47.821   1.164   6.637  0.00  0.00    +0.000 Cl
ATOM     29  N   UNL     1      46.007   1.398   8.469  0.00  0.00    +0.000 NA
ATOM     30  C   UNL     1      45.079   2.092   9.170  0.00  0.00    +0.000 A 
ENDBRANCH  23  24
ENDBRANCH  20  23
ENDBRANCH  16  17
ENDBRANCH   3  16
TORSDOF 5
ENDMDL
MODEL 4
REMARK VINA RESULT:    -7.913      3.058      3.998
REMARK INTER + INTRA:         -10.341
REMARK INTER:                  -9.625
REMARK INTRA:                  -0.716
REMARK UNBOUND:                -0.116
REMARK  Name = 
REMARK  5 active torsions:
REMARK  status: ('A' for Active; 'I' for Inactive)
REMARK    1  A    between atoms: C_2  and  C_19
REMARK    2  A    between atoms: N_3  and  C_4
REMARK    3  A    between atoms: C_4  and  C_5
REMARK    4  A    between atoms: N_8  and  C_9
REMARK    5  A    between atoms: C_9  and  C_10
REMARK                            x       y       z     vdW  Elec       q    Type
REMARK                         _______ _______ _______ _____ _____    ______ ____
ROOT
ATOM      1  O   UNL     1      47.334   4.716  14.275  0.00  0.00    +0.000 OA
ATOM      2  C   UNL     1      47.341   5.910  13.991  0.00  0.00    +0.000 C 
ATOM      3  N   UNL     1      46.240   6.551  13.485  0.00  0.00    +0.000 N 
ATOM      4  H   UNL     1      46.312   7.527  13.216  0.00  0.00    +0.000 HD
ENDROOT
BRANCH   2   5
ATOM      5  C   UNL     1      48.518   6.758  14.240  0.00  0.00    +0.000 A 
ATOM      6  C   UNL     1      49.015   6.882  15.532  0.00  0.00    +0.000 A 
ATOM      7  S   UNL     1      50.359   7.926  15.653  0.00  0.00    +0.000 S 
ATOM      8  C   UNL     1      50.351   8.222  13.976  0.00  0.00    +0.000 A 
ATOM      9  N   UNL     1      51.283   9.033  13.405  0.00  0.00    +0.000 NA
ATOM     10  C   UNL     1      51.180   9.146  12.125  0.00  0.00    +0.000 A 
ATOM     11  N   UNL     1      50.226   8.525  11.361  0.00  0.00    +0.000 N 
ATOM     12  C   UNL     1      49.228   7.747  11.902  0.00  0.00    +0.000 A 
ATOM     13  O   UNL     1      48.329   7.300  11.195  0.00  0.00    +0.000 OA
ATOM     14  C   UNL     1      49.323   7.553  13.336  0.00  0.00    +0.000 A 
ATOM     15  H   UNL     1      50.183   8.677  10.363  0.00  0.00    +0.000 HD
ENDBRANCH   2   5
BRANCH   3  16
ATOM     16  C   UNL     1      44.944   5.933  13.293  0.00  0.00    +0.000 C 
BRANCH  16  17
ATOM     17  C   UNL     1      44.365   6.309  11.918  0.00  0.00    +0.000 C 
ATOM     18  C   UNL     1      43.063   5.558  11.605  0.00  0.00    +0.000 C 
ATOM     19  C   UNL     1      43.309   4.100  11.223  0.00  0.00    +0.000 C 
ATOM     20  N   UNL     1      44.180   4.034  10.036  0.00  0.00    +0.000 NA
ATOM     21  C   UNL     1      45.494   4.626  10.341  0.00  0.00    +0.000 C 
ATOM     22  C   UNL     1      45.379   6.087  10.786  0.00  0.00    +0.000 C 
BRANCH  20  23
ATOM     23  C   UNL     1      44.352   2.650   9.563  0.00  0.00    +0.000 C 
BRANCH  23  24
ATOM     24  C   UNL     1      45.312   2.500   8.408  0.00  0.00    +0.000 A 
ATOM     25  C   UNL     1      45.419   3.488   7.423  0.00  0.00    +0.000 A 
ATOM     26  C   UNL     1      46.291   3.306   6.353  0.00  0.00    +0.000 A 
ATOM     27  C   UNL     1      47.027   2.134   6.308  0.00  0.00    +0.000 A 
ATOM     28 CL   UNL     1      48.110   1.829   5.014  0.00  0.00    +0.000 Cl
ATOM     29  N   UNL     1      46.966   1.160   7.237  0.00  0.00    +0.000 NA
ATOM     30  C   UNL     1      46.112   1.367   8.268  0.00  0.00    +0.000 A 
ENDBRANCH  23  24
ENDBRANCH  20  23
ENDBRANCH  16  17
ENDBRANCH   3  16
TORSDOF 5
ENDMDL
MODEL 5
REMARK VINA RESULT:    -7.894      2.651      3.243
REMARK INTER + INTRA:         -10.318
REMARK INTER:                  -9.949
REMARK INTRA:                  -0.368
REMARK UNBOUND:                -0.116
REMARK  Name = 
REMARK  5 active torsions:
REMARK  status: ('A' for Active; 'I' for Inactive)
REMARK    1  A    between atoms: C_2  and  C_19
REMARK    2  A    between atoms: N_3  and  C_4
REMARK    3  A    between atoms: C_4  and  C_5
REMARK    4  A    between atoms: N_8  and  C_9
REMARK    5  A    between atoms: C_9  and  C_10
REMARK                            x       y       z     vdW  Elec       q    Type
REMARK                         _______ _______ _______ _____ _____    ______ ____
ROOT
ATOM      1  O   UNL     1      47.394   4.678  13.401  0.00  0.00    +0.000 OA
ATOM      2  C   UNL     1      47.317   5.902  13.351  0.00  0.00    +0.000 C 
ATOM      3  N   UNL     1      46.118   6.559  13.254  0.00  0.00    +0.000 N 
ATOM      4  H   UNL     1      46.110   7.570  13.162  0.00  0.00    +0.000 HD
ENDROOT
BRANCH   2   5
ATOM      5  C   UNL     1      48.510   6.757  13.462  0.00  0.00    +0.000 A 
ATOM      6  C   UNL     1      48.972   7.443  12.346  0.00  0.00    +0.000 A 
ATOM      7  S   UNL     1      50.380   8.360  12.637  0.00  0.00    +0.000 S 
ATOM      8  C   UNL     1      50.405   7.905  14.278  0.00  0.00    +0.000 A 
ATOM      9  N   UNL     1      51.365   8.376  15.120  0.00  0.00    +0.000 NA
ATOM     10  C   UNL     1      51.248   7.978  16.340  0.00  0.00    +0.000 A 
ATOM     11  N   UNL     1      50.259   7.145  16.797  0.00  0.00    +0.000 N 
ATOM     12  C   UNL     1      49.305   6.596  15.971  0.00  0.00    +0.000 A 
ATOM     13  O   UNL     1      48.506   5.769  16.399  0.00  0.00    +0.000 OA
ATOM     14  C   UNL     1      49.367   7.046  14.594  0.00  0.00    +0.000 A 
ATOM     15  H   UNL     1      50.239   6.847  17.762  0.00  0.00    +0.000 HD
ENDBRANCH   2   5
BRANCH   3  16
ATOM     16  C   UNL     1      44.821   5.913  13.269  0.00  0.00    +0.000 C 
BRANCH  16  17
ATOM     17  C   UNL     1      44.089   6.143  11.935  0.00  0.00    +0.000 C 
ATOM     18  C   UNL     1      42.894   5.196  11.753  0.00  0.00    +0.000 C 
ATOM     19  C   UNL     1      43.326   3.776  11.395  0.00  0.00    +0.000 C 
ATOM     20  N   UNL     1      44.103   3.790  10.142  0.00  0.00    +0.000 NA
ATOM     21  C   UNL     1      45.333   4.581  10.320  0.00  0.00    +0.000 C 
ATOM     22  C   UNL     1      45.034   6.027  10.731  0.00  0.00    +0.000 C 
BRANCH  20  23
ATOM     23  C   UNL     1      44.444   2.428   9.697  0.00  0.00    +0.000 C 
BRANCH  23  24
ATOM     24  C   UNL     1      45.357   2.375   8.495  0.00  0.00    +0.000 A 
ATOM     25  C   UNL     1      45.422   3.438   7.588  0.00  0.00    +0.000 A 
ATOM     26  C   UNL     1      46.250   3.345   6.473  0.00  0.00    +0.000 A 
ATOM     27  C   UNL     1      46.985   2.185   6.306  0.00  0.00    +0.000 A 
ATOM     28 CL   UNL     1      48.016   1.988   4.949  0.00  0.00    +0.000 Cl
ATOM     29  N   UNL     1      46.964   1.140   7.157  0.00  0.00    +0.000 NA
ATOM     30  C   UNL     1      46.152   1.261   8.234  0.00  0.00    +0.000 A 
ENDBRANCH  23  24
ENDBRANCH  20  23
ENDBRANCH  16  17
ENDBRANCH   3  16
TORSDOF 5
ENDMDL
MODEL 6
REMARK VINA RESULT:    -7.574      1.898      2.226
REMARK INTER + INTRA:          -9.904
REMARK INTER:                  -9.569
REMARK INTRA:                  -0.335
REMARK UNBOUND:                -0.116
REMARK  Name = 
REMARK  5 active torsions:
REMARK  status: ('A' for Active; 'I' for Inactive)
REMARK    1  A    between atoms: C_2  and  C_19
REMARK    2  A    between atoms: N_3  and  C_4
REMARK    3  A    between atoms: C_4  and  C_5
REMARK    4  A    between atoms: N_8  and  C_9
REMARK    5  A    between atoms: C_9  and  C_10
REMARK                            x       y       z     vdW  Elec       q    Type
REMARK                         _______ _______ _______ _____ _____    ______ ____
ROOT
ATOM      1  O   UNL     1      49.606   6.845  13.282  0.00  0.00    +0.000 OA
ATOM      2  C   UNL     1      48.872   6.913  14.264  0.00  0.00    +0.000 C 
ATOM      3  N   UNL     1      47.540   6.594  14.208  0.00  0.00    +0.000 N 
ATOM      4  H   UNL     1      46.964   6.718  15.034  0.00  0.00    +0.000 HD
ENDROOT
BRANCH   2   5
ATOM      5  C   UNL     1      49.389   7.277  15.593  0.00  0.00    +0.000 A 
ATOM      6  C   UNL     1      49.908   8.548  15.806  0.00  0.00    +0.000 A 
ATOM      7  S   UNL     1      50.495   8.794  17.388  0.00  0.00    +0.000 S 
ATOM      8  C   UNL     1      50.043   7.221  17.861  0.00  0.00    +0.000 A 
ATOM      9  N   UNL     1      50.249   6.788  19.135  0.00  0.00    +0.000 NA
ATOM     10  C   UNL     1      49.832   5.590  19.365  0.00  0.00    +0.000 A 
ATOM     11  N   UNL     1      49.233   4.781  18.435  0.00  0.00    +0.000 N 
ATOM     12  C   UNL     1      49.061   5.153  17.121  0.00  0.00    +0.000 A 
ATOM     13  O   UNL     1      48.622   4.358  16.296  0.00  0.00    +0.000 OA
ATOM     14  C   UNL     1      49.475   6.510  16.819  0.00  0.00    +0.000 A 
ATOM     15  H   UNL     1      48.954   3.839  18.672  0.00  0.00    +0.000 HD
ENDBRANCH   2   5
BRANCH   3  16
ATOM     16  C   UNL     1      46.864   6.084  13.032  0.00  0.00    +0.000 C 
BRANCH  16  17
ATOM     17  C   UNL     1      45.565   5.361  13.428  0.00  0.00    +0.000 C 
ATOM     18  C   UNL     1      45.559   3.889  12.992  0.00  0.00    +0.000 C 
ATOM     19  C   UNL     1      45.321   3.726  11.493  0.00  0.00    +0.000 C 
ATOM     20  N   UNL     1      44.026   4.324  11.124  0.00  0.00    +0.000 NA
ATOM     21  C   UNL     1      44.041   5.771  11.402  0.00  0.00    +0.000 C 
ATOM     22  C   UNL     1      44.320   6.072  12.878  0.00  0.00    +0.000 C 
BRANCH  20  23
ATOM     23  C   UNL     1      43.701   4.090   9.706  0.00  0.00    +0.000 C 
BRANCH  23  24
ATOM     24  C   UNL     1      44.785   3.385   8.926  0.00  0.00    +0.000 A 
ATOM     25  C   UNL     1      45.609   4.084   8.038  0.00  0.00    +0.000 A 
ATOM     26  C   UNL     1      46.578   3.399   7.310  0.00  0.00    +0.000 A 
ATOM     27  C   UNL     1      46.685   2.032   7.498  0.00  0.00    +0.000 A 
ATOM     28 CL   UNL     1      47.843   1.116   6.626  0.00  0.00    +0.000 Cl
ATOM     29  N   UNL     1      45.922   1.318   8.349  0.00  0.00    +0.000 NA
ATOM     30  C   UNL     1      44.991   2.012   9.046  0.00  0.00    +0.000 A 
ENDBRANCH  23  24
ENDBRANCH  20  23
ENDBRANCH  16  17
ENDBRANCH   3  16
TORSDOF 5
ENDMDL
MODEL 7
REMARK VINA RESULT:    -7.459      3.978      8.621
REMARK INTER + INTRA:          -9.755
REMARK INTER:                  -9.182
REMARK INTRA:                  -0.573
REMARK UNBOUND:                -0.116
REMARK  Name = 
REMARK  5 active torsions:
REMARK  status: ('A' for Active; 'I' for Inactive)
REMARK    1  A    between atoms: C_2  and  C_19
REMARK    2  A    between atoms: N_3  and  C_4
REMARK    3  A    between atoms: C_4  and  C_5
REMARK    4  A    between atoms: N_8  and  C_9
REMARK    5  A    between atoms: C_9  and  C_10
REMARK                            x       y       z     vdW  Elec       q    Type
REMARK                         _______ _______ _______ _____ _____    ______ ____
ROOT
ATOM      1  O   UNL     1      44.295   7.732  11.295  0.00  0.00    +0.000 OA
ATOM      2  C   UNL     1      44.981   6.814  11.735  0.00  0.00    +0.000 C 
ATOM      3  N   UNL     1      46.114   7.034  12.476  0.00  0.00    +0.000 N 
ATOM      4  H   UNL     1      46.677   6.243  12.772  0.00  0.00    +0.000 HD
ENDROOT
BRANCH   2   5
ATOM      5  C   UNL     1      44.594   5.405  11.559  0.00  0.00    +0.000 A 
ATOM      6  C   UNL     1      43.874   4.759  12.556  0.00  0.00    +0.000 A 
ATOM      7  S   UNL     1      43.537   3.123  12.209  0.00  0.00    +0.000 S 
ATOM      8  C   UNL     1      44.309   3.227  10.695  0.00  0.00    +0.000 A 
ATOM      9  N   UNL     1      44.356   2.153   9.859  0.00  0.00    +0.000 NA
ATOM     10  C   UNL     1      44.943   2.378   8.733  0.00  0.00    +0.000 A 
ATOM     11  N   UNL     1      45.493   3.579   8.367  0.00  0.00    +0.000 N 
ATOM     12  C   UNL     1      45.523   4.672   9.202  0.00  0.00    +0.000 A 
ATOM     13  O   UNL     1      46.122   5.692   8.878  0.00  0.00    +0.000 OA
ATOM     14  C   UNL     1      44.838   4.484  10.467  0.00  0.00    +0.000 A 
ATOM     15  H   UNL     1      45.964   3.682   7.479  0.00  0.00    +0.000 HD
ENDBRANCH   2   5
BRANCH   3  16
ATOM     16  C   UNL     1      46.593   8.340  12.878  0.00  0.00    +0.000 C 
BRANCH  16  17
ATOM     17  C   UNL     1      48.114   8.309  13.111  0.00  0.00    +0.000 C 
ATOM     18  C   UNL     1      48.660   6.879  13.225  0.00  0.00    +0.000 C 
ATOM     19  C   UNL     1      48.333   6.237  14.572  0.00  0.00    +0.000 C 
ATOM     20  N   UNL     1      48.908   7.043  15.663  0.00  0.00    +0.000 NA
ATOM     21  C   UNL     1      48.305   8.387  15.671  0.00  0.00    +0.000 C 
ATOM     22  C   UNL     1      48.525   9.124  14.346  0.00  0.00    +0.000 C 
BRANCH  20  23
ATOM     23  C   UNL     1      48.715   6.401  16.975  0.00  0.00    +0.000 C 
BRANCH  23  24
ATOM     24  C   UNL     1      49.479   5.111  17.157  0.00  0.00    +0.000 A 
ATOM     25  C   UNL     1      50.861   5.113  17.379  0.00  0.00    +0.000 A 
ATOM     26  C   UNL     1      51.541   3.906  17.511  0.00  0.00    +0.000 A 
ATOM     27  C   UNL     1      50.809   2.735  17.415  0.00  0.00    +0.000 A 
ATOM     28 CL   UNL     1      51.577   1.208  17.552  0.00  0.00    +0.000 Cl
ATOM     29  N   UNL     1      49.477   2.683  17.214  0.00  0.00    +0.000 NA
ATOM     30  C   UNL     1      48.842   3.873  17.093  0.00  0.00    +0.000 A 
ENDBRANCH  23  24
ENDBRANCH  20  23
ENDBRANCH  16  17
ENDBRANCH   3  16
TORSDOF 5
ENDMDL
MODEL 8
REMARK VINA RESULT:    -7.407      2.191      3.059
REMARK INTER + INTRA:          -9.688
REMARK INTER:                  -8.981
REMARK INTRA:                  -0.708
REMARK UNBOUND:                -0.116
REMARK  Name = 
REMARK  5 active torsions:
REMARK  status: ('A' for Active; 'I' for Inactive)
REMARK    1  A    between atoms: C_2  and  C_19
REMARK    2  A    between atoms: N_3  and  C_4
REMARK    3  A    between atoms: C_4  and  C_5
REMARK    4  A    between atoms: N_8  and  C_9
REMARK    5  A    between atoms: C_9  and  C_10
REMARK                            x       y       z     vdW  Elec       q    Type
REMARK                         _______ _______ _______ _____ _____    ______ ____
ROOT
ATOM      1  O   UNL     1      48.288   5.588  17.600  0.00  0.00    +0.000 OA
ATOM      2  C   UNL     1      49.372   5.736  17.042  0.00  0.00    +0.000 C 
ATOM      3  N   UNL     1      49.554   6.627  16.016  0.00  0.00    +0.000 N 
ATOM      4  H   UNL     1      50.455   6.674  15.552  0.00  0.00    +0.000 HD
ENDROOT
BRANCH   2   5
ATOM      5  C   UNL     1      50.576   5.014  17.486  0.00  0.00    +0.000 A 
ATOM      6  C   UNL     1      51.633   5.718  18.047  0.00  0.00    +0.000 A 
ATOM      7  S   UNL     1      52.962   4.738  18.475  0.00  0.00    +0.000 S 
ATOM      8  C   UNL     1      52.158   3.327  17.959  0.00  0.00    +0.000 A 
ATOM      9  N   UNL     1      52.747   2.105  18.075  0.00  0.00    +0.000 NA
ATOM     10  C   UNL     1      52.016   1.121  17.676  0.00  0.00    +0.000 A 
ATOM     11  N   UNL     1      50.750   1.246  17.166  0.00  0.00    +0.000 N 
ATOM     12  C   UNL     1      50.140   2.464  16.974  0.00  0.00    +0.000 A 
ATOM     13  O   UNL     1      49.051   2.538  16.412  0.00  0.00    +0.000 OA
ATOM     14  C   UNL     1      50.903   3.603  17.446  0.00  0.00    +0.000 A 
ATOM     15  H   UNL     1      50.240   0.435  16.844  0.00  0.00    +0.000 HD
ENDBRANCH   2   5
BRANCH   3  16
ATOM     16  C   UNL     1      48.536   7.531  15.521  0.00  0.00    +0.000 C 
BRANCH  16  17
ATOM     17  C   UNL     1      48.737   7.799  14.019  0.00  0.00    +0.000 C 
ATOM     18  C   UNL     1      47.774   8.866  13.481  0.00  0.00    +0.000 C 
ATOM     19  C   UNL     1      46.353   8.335  13.306  0.00  0.00    +0.000 C 
ATOM     20  N   UNL     1      46.356   7.198  12.369  0.00  0.00    +0.000 NA
ATOM     21  C   UNL     1      47.163   6.094  12.917  0.00  0.00    +0.000 C 
ATOM     22  C   UNL     1      48.612   6.516  13.183  0.00  0.00    +0.000 C 
BRANCH  20  23
ATOM     23  C   UNL     1      44.991   6.724  12.082  0.00  0.00    +0.000 C 
BRANCH  23  24
ATOM     24  C   UNL     1      44.929   5.469  11.245  0.00  0.00    +0.000 A 
ATOM     25  C   UNL     1      45.458   5.436   9.950  0.00  0.00    +0.000 A 
ATOM     26  C   UNL     1      45.357   4.272   9.192  0.00  0.00    +0.000 A 
ATOM     27  C   UNL     1      44.725   3.181   9.762  0.00  0.00    +0.000 A 
ATOM     28 CL   UNL     1      44.546   1.717   8.886  0.00  0.00    +0.000 Cl
ATOM     29  N   UNL     1      44.210   3.162  11.007  0.00  0.00    +0.000 NA
ATOM     30  C   UNL     1      44.327   4.306  11.721  0.00  0.00    +0.000 A 
ENDBRANCH  23  24
ENDBRANCH  20  23
ENDBRANCH  16  17
ENDBRANCH   3  16
TORSDOF 5
ENDMDL
MODEL 9
REMARK VINA RESULT:    -7.340      4.845     10.303
REMARK INTER + INTRA:          -9.601
REMARK INTER:                  -8.775
REMARK INTRA:                  -0.825
REMARK UNBOUND:                -0.116
REMARK  Name = 
REMARK  5 active torsions:
REMARK  status: ('A' for Active; 'I' for Inactive)
REMARK    1  A    between atoms: C_2  and  C_19
REMARK    2  A    between atoms: N_3  and  C_4
REMARK    3  A    between atoms: C_4  and  C_5
REMARK    4  A    between atoms: N_8  and  C_9
REMARK    5  A    between atoms: C_9  and  C_10
REMARK                            x       y       z     vdW  Elec       q    Type
REMARK                         _______ _______ _______ _____ _____    ______ ____
ROOT
ATOM      1  O   UNL     1      47.219   3.188  13.845  0.00  0.00    +0.000 OA
ATOM      2  C   UNL     1      46.741   4.214  14.321  0.00  0.00    +0.000 C 
ATOM      3  N   UNL     1      46.801   4.499  15.661  0.00  0.00    +0.000 N 
ATOM      4  H   UNL     1      46.344   5.334  16.013  0.00  0.00    +0.000 HD
ENDROOT
BRANCH   2   5
ATOM      5  C   UNL     1      46.131   5.250  13.471  0.00  0.00    +0.000 A 
ATOM      6  C   UNL     1      46.815   6.435  13.232  0.00  0.00    +0.000 A 
ATOM      7  S   UNL     1      45.954   7.540  12.259  0.00  0.00    +0.000 S 
ATOM      8  C   UNL     1      44.649   6.460  12.088  0.00  0.00    +0.000 A 
ATOM      9  N   UNL     1      43.563   6.788  11.335  0.00  0.00    +0.000 NA
ATOM     10  C   UNL     1      42.664   5.867  11.266  0.00  0.00    +0.000 A 
ATOM     11  N   UNL     1      42.746   4.648  11.886  0.00  0.00    +0.000 N 
ATOM     12  C   UNL     1      43.795   4.297  12.706  0.00  0.00    +0.000 A 
ATOM     13  O   UNL     1      43.776   3.240  13.329  0.00  0.00    +0.000 OA
ATOM     14  C   UNL     1      44.856   5.282  12.784  0.00  0.00    +0.000 A 
ATOM     15  H   UNL     1      41.992   3.979  11.814  0.00  0.00    +0.000 HD
ENDBRANCH   2   5
BRANCH   3  16
ATOM     16  C   UNL     1      47.476   3.681  16.647  0.00  0.00    +0.000 C 
BRANCH  16  17
ATOM     17  C   UNL     1      48.781   4.355  17.105  0.00  0.00    +0.000 C 
ATOM     18  C   UNL     1      49.334   3.740  18.399  0.00  0.00    +0.000 C 
ATOM     19  C   UNL     1      48.549   4.176  19.633  0.00  0.00    +0.000 C 
ATOM     20  N   UNL     1      48.592   5.643  19.761  0.00  0.00    +0.000 NA
ATOM     21  C   UNL     1      47.944   6.271  18.596  0.00  0.00    +0.000 C 
ATOM     22  C   UNL     1      48.616   5.872  17.279  0.00  0.00    +0.000 C 
BRANCH  20  23
ATOM     23  C   UNL     1      47.942   6.102  21.002  0.00  0.00    +0.000 C 
BRANCH  23  24
ATOM     24  C   UNL     1      48.186   7.555  21.333  0.00  0.00    +0.000 A 
ATOM     25  C   UNL     1      47.121   8.443  21.518  0.00  0.00    +0.000 A 
ATOM     26  C   UNL     1      47.379   9.783  21.791  0.00  0.00    +0.000 A 
ATOM     27  C   UNL     1      48.701  10.187  21.869  0.00  0.00    +0.000 A 
ATOM     28 CL   UNL     1      49.100  11.824  22.186  0.00  0.00    +0.000 Cl
ATOM     29  N   UNL     1      49.758   9.367  21.709  0.00  0.00    +0.000 NA
ATOM     30  C   UNL     1      49.476   8.069  21.448  0.00  0.00    +0.000 A 
ENDBRANCH  23  24
ENDBRANCH  20  23
ENDBRANCH  16  17
ENDBRANCH   3  16
TORSDOF 5
ENDMDL
