MODEL 1
REMARK VINA RESULT:    -8.164      0.000      0.000
REMARK INTER + INTRA:         -13.161
REMARK INTER:                 -11.982
REMARK INTRA:                  -1.179
REMARK UNBOUND:                -1.179
REMARK  Name = 
REMARK  9 active torsions:
REMARK  status: ('A' for Active; 'I' for Inactive)
REMARK    1  A    between atoms: C_1  and  C_2
REMARK    2  A    between atoms: C_3  and  C_4
REMARK    3  A    between atoms: C_9  and  C_10
REMARK    4  A    between atoms: N_12  and  C_13
REMARK    5  A    between atoms: C_13  and  C_14
REMARK    6  A    between atoms: C_17  and  C_18
REMARK    7  A    between atoms: C_18  and  N_19
REMARK    8  A    between atoms: N_19  and  C_20
REMARK    9  A    between atoms: C_20  and  C_21
REMARK                            x       y       z     vdW  Elec       q    Type
REMARK                         _______ _______ _______ _____ _____    ______ ____
ROOT
ATOM      1  C   UNL     1      48.385   6.836  14.215  0.00  0.00    +0.000 C 
ATOM      2  O   UNL     1      49.006   6.420  13.242  0.00  0.00    +0.000 OA
ATOM      3  N   UNL     1      47.273   7.634  14.094  0.00  0.00    +0.000 N 
ATOM      4  H   UNL     1      46.665   7.738  14.893  0.00  0.00    +0.000 HD
ENDROOT
BRANCH   1  10
ATOM      5  C   UNL     1      48.806   4.552  18.671  0.00  0.00    +0.000 A 
ATOM      6  N   UNL     1      48.018   3.472  18.446  0.00  0.00    +0.000 NA
ATOM      7  C   UNL     1      47.410   3.335  17.252  0.00  0.00    +0.000 A 
ATOM      8  C   UNL     1      47.535   4.224  16.196  0.00  0.00    +0.000 A 
ATOM      9  C   UNL     1      48.364   5.341  16.392  0.00  0.00    +0.000 A 
ATOM     10  C   UNL     1      48.742   6.471  15.585  0.00  0.00    +0.000 A 
ATOM     11  C   UNL     1      49.548   7.266  16.386  0.00  0.00    +0.000 A 
ATOM     12  N   UNL     1      49.694   6.662  17.601  0.00  0.00    +0.000 N 
ATOM     13  C   UNL     1      48.978   5.487  17.643  0.00  0.00    +0.000 A 
ATOM     14  H   UNL     1      50.233   7.036  18.368  0.00  0.00    +0.000 HD
BRANCH   5  17
ATOM     15  C   UNL     1      51.431   4.929  21.485  0.00  0.00    +0.000 C 
ATOM     16  C   UNL     1      50.772   4.767  20.156  0.00  0.00    +0.000 C 
ATOM     17  C   UNL     1      49.441   4.718  19.982  0.00  0.00    +0.000 C 
ENDBRANCH   5  17
ENDBRANCH   1  10
BRANCH   3  18
ATOM     18  C   UNL     1      46.756   7.979  12.790  0.00  0.00    +0.000 C 
BRANCH  18  19
ATOM     19  C   UNL     1      45.895   6.867  12.257  0.00  0.00    +0.000 A 
ATOM     20  C   UNL     1      44.862   6.339  13.037  0.00  0.00    +0.000 A 
ATOM     21  C   UNL     1      44.122   5.246  12.583  0.00  0.00    +0.000 A 
ATOM     22  C   UNL     1      44.380   4.666  11.330  0.00  0.00    +0.000 A 
ATOM     23  C   UNL     1      45.412   5.203  10.548  0.00  0.00    +0.000 A 
ATOM     24  C   UNL     1      46.162   6.291  11.007  0.00  0.00    +0.000 A 
BRANCH  22  25
ATOM     25  C   UNL     1      43.623   3.438  10.857  0.00  0.00    +0.000 C 
BRANCH  25  26
ATOM     26  N   UNL     1      43.946   3.121   9.471  0.00  0.00    +0.000 NA
ATOM     27  H   UNL     1      44.429   3.914   9.054  0.00  0.00    +0.000 HD
BRANCH  26  28
ATOM     28  C   UNL     1      44.739   1.908   9.308  0.00  0.00    +0.000 C 
BRANCH  28  29
ATOM     29  C   UNL     1      45.948   2.231   8.405  0.00  0.00    +0.000 C 
ATOM     30  C   UNL     1      45.581   3.253   7.310  0.00  0.00    +0.000 C 
ATOM     31  C   UNL     1      46.773   3.568   6.412  0.00  0.00    +0.000 C 
ATOM     32  C   UNL     1      47.364   2.303   5.801  0.00  0.00    +0.000 C 
ATOM     33  C   UNL     1      47.720   1.277   6.873  0.00  0.00    +0.000 C 
ATOM     34  C   UNL     1      46.527   0.957   7.772  0.00  0.00    +0.000 C 
ENDBRANCH  28  29
ENDBRANCH  26  28
ENDBRANCH  25  26
ENDBRANCH  22  25
ENDBRANCH  18  19
ENDBRANCH   3  18
TORSDOF 8
ENDMDL
MODEL 2
REMARK VINA RESULT:    -7.073      1.683      2.034
REMARK INTER + INTRA:         -11.560
REMARK INTER:                 -10.600
REMARK INTRA:                  -0.960
REMARK UNBOUND:                -1.179
REMARK  Name = 
REMARK  9 active torsions:
REMARK  status: ('A' for Active; 'I' for Inactive)
REMARK    1  A    between atoms: C_1  and  C_2
REMARK    2  A    between atoms: C_3  and  C_4
REMARK    3  A    between atoms: C_9  and  C_10
REMARK    4  A    between atoms: N_12  and  C_13
REMARK    5  A    between atoms: C_13  and  C_14
REMARK    6  A    between atoms: C_17  and  C_18
REMARK    7  A    between atoms: C_18  and  N_19
REMARK    8  A    between atoms: N_19  and  C_20
REMARK    9  A    between atoms: C_20  and  C_21
REMARK                            x       y       z     vdW  Elec       q    Type
REMARK                         _______ _______ _______ _____ _____    ______ ____
ROOT
ATOM      1  C   UNL     1      48.833   7.511  15.509  0.00  0.00    +0.000 C 
ATOM      2  O   UNL     1      48.475   8.588  15.976  0.00  0.00    +0.000 OA
ATOM      3  N   UNL     1      48.338   7.020  14.325  0.00  0.00    +0.000 N 
ATOM      4  H   UNL     1      48.838   6.272  13.867  0.00  0.00    +0.000 HD
ENDROOT
BRANCH   1  10
ATOM      5  C   UNL     1      51.325   3.870  17.916  0.00  0.00    +0.000 A 
ATOM      6  N   UNL     1      50.303   3.008  18.138  0.00  0.00    +0.000 NA
ATOM      7  C   UNL     1      49.063   3.328  17.720  0.00  0.00    +0.000 A 
ATOM      8  C   UNL     1      48.735   4.495  17.048  0.00  0.00    +0.000 A 
ATOM      9  C   UNL     1      49.778   5.399  16.783  0.00  0.00    +0.000 A 
ATOM     10  C   UNL     1      49.860   6.686  16.144  0.00  0.00    +0.000 A 
ATOM     11  C   UNL     1      51.181   7.092  16.261  0.00  0.00    +0.000 A 
ATOM     12  N   UNL     1      51.887   6.113  16.897  0.00  0.00    +0.000 N 
ATOM     13  C   UNL     1      51.061   5.066  17.238  0.00  0.00    +0.000 A 
ATOM     14  H   UNL     1      52.874   6.161  17.109  0.00  0.00    +0.000 HD
BRANCH   5  17
ATOM     15  C   UNL     1      54.412   3.359  20.187  0.00  0.00    +0.000 C 
ATOM     16  C   UNL     1      53.046   3.688  19.682  0.00  0.00    +0.000 C 
ATOM     17  C   UNL     1      52.667   3.536  18.402  0.00  0.00    +0.000 C 
ENDBRANCH   5  17
ENDBRANCH   1  10
BRANCH   3  18
ATOM     18  C   UNL     1      47.396   7.791  13.548  0.00  0.00    +0.000 C 
BRANCH  18  19
ATOM     19  C   UNL     1      46.366   6.888  12.926  0.00  0.00    +0.000 A 
ATOM     20  C   UNL     1      46.158   5.602  13.434  0.00  0.00    +0.000 A 
ATOM     21  C   UNL     1      45.271   4.730  12.801  0.00  0.00    +0.000 A 
ATOM     22  C   UNL     1      44.554   5.125  11.659  0.00  0.00    +0.000 A 
ATOM     23  C   UNL     1      44.762   6.416  11.157  0.00  0.00    +0.000 A 
ATOM     24  C   UNL     1      45.660   7.289  11.784  0.00  0.00    +0.000 A 
BRANCH  22  25
ATOM     25  C   UNL     1      43.638   4.160  10.928  0.00  0.00    +0.000 C 
BRANCH  25  26
ATOM     26  N   UNL     1      44.383   3.341   9.980  0.00  0.00    +0.000 NA
ATOM     27  H   UNL     1      43.964   2.413   9.943  0.00  0.00    +0.000 HD
BRANCH  26  28
ATOM     28  C   UNL     1      44.465   3.909   8.640  0.00  0.00    +0.000 C 
BRANCH  28  29
ATOM     29  C   UNL     1      45.286   2.951   7.751  0.00  0.00    +0.000 C 
ATOM     30  C   UNL     1      45.860   1.773   8.565  0.00  0.00    +0.000 C 
ATOM     31  C   UNL     1      46.676   0.829   7.689  0.00  0.00    +0.000 C 
ATOM     32  C   UNL     1      47.784   1.570   6.949  0.00  0.00    +0.000 C 
ATOM     33  C   UNL     1      47.233   2.747   6.149  0.00  0.00    +0.000 C 
ATOM     34  C   UNL     1      46.416   3.696   7.025  0.00  0.00    +0.000 C 
ENDBRANCH  28  29
ENDBRANCH  26  28
ENDBRANCH  25  26
ENDBRANCH  22  25
ENDBRANCH  18  19
ENDBRANCH   3  18
TORSDOF 8
ENDMDL
MODEL 3
REMARK VINA RESULT:    -6.983      2.469      4.551
REMARK INTER + INTRA:         -11.428
REMARK INTER:                 -10.699
REMARK INTRA:                  -0.728
REMARK UNBOUND:                -1.179
REMARK  Name = 
REMARK  9 active torsions:
REMARK  status: ('A' for Active; 'I' for Inactive)
REMARK    1  A    between atoms: C_1  and  C_2
REMARK    2  A    between atoms: C_3  and  C_4
REMARK    3  A    between atoms: C_9  and  C_10
REMARK    4  A    between atoms: N_12  and  C_13
REMARK    5  A    between atoms: C_13  and  C_14
REMARK    6  A    between atoms: C_17  and  C_18
REMARK    7  A    between atoms: C_18  and  N_19
REMARK    8  A    between atoms: N_19  and  C_20
REMARK    9  A    between atoms: C_20  and  C_21
REMARK                            x       y       z     vdW  Elec       q    Type
REMARK                         _______ _______ _______ _____ _____    ______ ____
ROOT
ATOM      1  C   UNL     1      45.695   5.765  11.822  0.00  0.00    +0.000 C 
ATOM      2  O   UNL     1      45.974   6.615  10.982  0.00  0.00    +0.000 OA
ATOM      3  N   UNL     1      44.729   4.810  11.612  0.00  0.00    +0.000 N 
ATOM      4  H   UNL     1      44.714   3.999  12.213  0.00  0.00    +0.000 HD
ENDROOT
BRANCH   1  10
ATOM      5  C   UNL     1      48.865   6.391  15.671  0.00  0.00    +0.000 A 
ATOM      6  N   UNL     1      49.603   7.420  15.189  0.00  0.00    +0.000 NA
ATOM      7  C   UNL     1      49.329   7.917  13.967  0.00  0.00    +0.000 A 
ATOM      8  C   UNL     1      48.315   7.460  13.140  0.00  0.00    +0.000 A 
ATOM      9  C   UNL     1      47.517   6.408  13.623  0.00  0.00    +0.000 A 
ATOM     10  C   UNL     1      46.408   5.659  13.094  0.00  0.00    +0.000 A 
ATOM     11  C   UNL     1      46.102   4.698  14.046  0.00  0.00    +0.000 A 
ATOM     12  N   UNL     1      46.938   4.854  15.113  0.00  0.00    +0.000 N 
ATOM     13  C   UNL     1      47.821   5.885  14.887  0.00  0.00    +0.000 A 
ATOM     14  H   UNL     1      46.925   4.278  15.943  0.00  0.00    +0.000 HD
BRANCH   5  17
ATOM     15  C   UNL     1      50.415   4.261  18.501  0.00  0.00    +0.000 C 
ATOM     16  C   UNL     1      50.085   4.847  17.169  0.00  0.00    +0.000 C 
ATOM     17  C   UNL     1      49.186   5.828  16.987  0.00  0.00    +0.000 C 
ENDBRANCH   5  17
ENDBRANCH   1  10
BRANCH   3  18
ATOM     18  C   UNL     1      44.027   4.743  10.352  0.00  0.00    +0.000 C 
BRANCH  18  19
ATOM     19  C   UNL     1      44.715   3.786   9.418  0.00  0.00    +0.000 A 
ATOM     20  C   UNL     1      44.582   2.406   9.601  0.00  0.00    +0.000 A 
ATOM     21  C   UNL     1      45.294   1.517   8.794  0.00  0.00    +0.000 A 
ATOM     22  C   UNL     1      46.139   1.980   7.772  0.00  0.00    +0.000 A 
ATOM     23  C   UNL     1      46.264   3.364   7.589  0.00  0.00    +0.000 A 
ATOM     24  C   UNL     1      45.560   4.257   8.404  0.00  0.00    +0.000 A 
BRANCH  22  25
ATOM     25  C   UNL     1      46.966   1.021   6.934  0.00  0.00    +0.000 C 
BRANCH  25  26
ATOM     26  N   UNL     1      48.048   1.717   6.251  0.00  0.00    +0.000 NA
ATOM     27  H   UNL     1      48.907   1.179   6.356  0.00  0.00    +0.000 HD
BRANCH  26  28
ATOM     28  C   UNL     1      47.789   1.978   4.840  0.00  0.00    +0.000 C 
BRANCH  28  29
ATOM     29  C   UNL     1      46.814   0.903   4.314  0.00  0.00    +0.000 C 
ATOM     30  C   UNL     1      47.541  -0.422   4.007  0.00  0.00    +0.000 C 
ATOM     31  C   UNL     1      46.580  -1.483   3.482  0.00  0.00    +0.000 C 
ATOM     32  C   UNL     1      45.814  -0.988   2.261  0.00  0.00    +0.000 C 
ATOM     33  C   UNL     1      45.099   0.330   2.545  0.00  0.00    +0.000 C 
ATOM     34  C   UNL     1      46.060   1.396   3.070  0.00  0.00    +0.000 C 
ENDBRANCH  28  29
ENDBRANCH  26  28
ENDBRANCH  25  26
ENDBRANCH  22  25
ENDBRANCH  18  19
ENDBRANCH   3  18
TORSDOF 8
ENDMDL
MODEL 4
REMARK VINA RESULT:    -6.805      2.269      3.103
REMARK INTER + INTRA:         -11.167
REMARK INTER:                 -10.129
REMARK INTRA:                  -1.038
REMARK UNBOUND:                -1.179
REMARK  Name = 
REMARK  9 active torsions:
REMARK  status: ('A' for Active; 'I' for Inactive)
REMARK    1  A    between atoms: C_1  and  C_2
REMARK    2  A    between atoms: C_3  and  C_4
REMARK    3  A    between atoms: C_9  and  C_10
REMARK    4  A    between atoms: N_12  and  C_13
REMARK    5  A    between atoms: C_13  and  C_14
REMARK    6  A    between atoms: C_17  and  C_18
REMARK    7  A    between atoms: C_18  and  N_19
REMARK    8  A    between atoms: N_19  and  C_20
REMARK    9  A    between atoms: C_20  and  C_21
REMARK                            x       y       z     vdW  Elec       q    Type
REMARK                         _______ _______ _______ _____ _____    ______ ____
ROOT
ATOM      1  C   UNL     1      48.930   7.140  15.733  0.00  0.00    +0.000 C 
ATOM      2  O   UNL     1      48.567   8.210  16.209  0.00  0.00    +0.000 OA
ATOM      3  N   UNL     1      48.577   6.738  14.467  0.00  0.00    +0.000 N 
ATOM      4  H   UNL     1      49.096   5.986  14.038  0.00  0.00    +0.000 HD
ENDROOT
BRANCH   1  10
ATOM      5  C   UNL     1      52.925   4.744  17.620  0.00  0.00    +0.000 A 
ATOM      6  N   UNL     1      53.914   5.495  17.077  0.00  0.00    +0.000 NA
ATOM      7  C   UNL     1      53.596   6.531  16.277  0.00  0.00    +0.000 A 
ATOM      8  C   UNL     1      52.302   6.915  15.961  0.00  0.00    +0.000 A 
ATOM      9  C   UNL     1      51.254   6.169  16.529  0.00  0.00    +0.000 A 
ATOM     10  C   UNL     1      49.818   6.226  16.450  0.00  0.00    +0.000 A 
ATOM     11  C   UNL     1      49.348   5.158  17.199  0.00  0.00    +0.000 A 
ATOM     12  N   UNL     1      50.413   4.496  17.739  0.00  0.00    +0.000 N 
ATOM     13  C   UNL     1      51.594   5.082  17.345  0.00  0.00    +0.000 A 
ATOM     14  H   UNL     1      50.343   3.678  18.327  0.00  0.00    +0.000 HD
BRANCH   5  17
ATOM     15  C   UNL     1      54.903   2.112  19.646  0.00  0.00    +0.000 C 
ATOM     16  C   UNL     1      54.535   3.281  18.795  0.00  0.00    +0.000 C 
ATOM     17  C   UNL     1      53.272   3.596  18.463  0.00  0.00    +0.000 C 
ENDBRANCH   5  17
ENDBRANCH   1  10
BRANCH   3  18
ATOM     18  C   UNL     1      47.789   7.599  13.618  0.00  0.00    +0.000 C 
BRANCH  18  19
ATOM     19  C   UNL     1      46.732   6.804  12.900  0.00  0.00    +0.000 A 
ATOM     20  C   UNL     1      45.896   7.425  11.968  0.00  0.00    +0.000 A 
ATOM     21  C   UNL     1      44.855   6.712  11.370  0.00  0.00    +0.000 A 
ATOM     22  C   UNL     1      44.635   5.358  11.672  0.00  0.00    +0.000 A 
ATOM     23  C   UNL     1      45.479   4.739  12.603  0.00  0.00    +0.000 A 
ATOM     24  C   UNL     1      46.517   5.455  13.211  0.00  0.00    +0.000 A 
BRANCH  22  25
ATOM     25  C   UNL     1      43.465   4.596  11.076  0.00  0.00    +0.000 C 
BRANCH  25  26
ATOM     26  N   UNL     1      43.763   4.151   9.720  0.00  0.00    +0.000 NA
ATOM     27  H   UNL     1      44.431   4.794   9.299  0.00  0.00    +0.000 HD
BRANCH  26  28
ATOM     28  C   UNL     1      44.264   2.784   9.640  0.00  0.00    +0.000 C 
BRANCH  28  29
ATOM     29  C   UNL     1      45.112   2.647   8.358  0.00  0.00    +0.000 C 
ATOM     30  C   UNL     1      46.071   1.442   8.437  0.00  0.00    +0.000 C 
ATOM     31  C   UNL     1      46.914   1.310   7.173  0.00  0.00    +0.000 C 
ATOM     32  C   UNL     1      47.678   2.594   6.874  0.00  0.00    +0.000 C 
ATOM     33  C   UNL     1      46.744   3.799   6.805  0.00  0.00    +0.000 C 
ATOM     34  C   UNL     1      45.899   3.935   8.071  0.00  0.00    +0.000 C 
ENDBRANCH  28  29
ENDBRANCH  26  28
ENDBRANCH  25  26
ENDBRANCH  22  25
ENDBRANCH  18  19
ENDBRANCH   3  18
TORSDOF 8
ENDMDL
MODEL 5
REMARK VINA RESULT:    -6.497      3.050      4.094
REMARK INTER + INTRA:         -10.715
REMARK INTER:                 -10.109
REMARK INTRA:                  -0.605
REMARK UNBOUND:                -1.179
REMARK  Name = 
REMARK  9 active torsions:
REMARK  status: ('A' for Active; 'I' for Inactive)
REMARK    1  A    between atoms: C_1  and  C_2
REMARK    2  A    between atoms: C_3  and  C_4
REMARK    3  A    between atoms: C_9  and  C_10
REMARK    4  A    between atoms: N_12  and  C_13
REMARK    5  A    between atoms: C_13  and  C_14
REMARK    6  A    between atoms: C_17  and  C_18
REMARK    7  A    between atoms: C_18  and  N_19
REMARK    8  A    between atoms: N_19  and  C_20
REMARK    9  A    between atoms: C_20  and  C_21
REMARK                            x       y       z     vdW  Elec       q    Type
REMARK                         _______ _______ _______ _____ _____    ______ ____
ROOT
ATOM      1  C   UNL     1      48.335   3.528  16.842  0.00  0.00    +0.000 C 
ATOM      2  O   UNL     1      47.278   3.181  17.359  0.00  0.00    +0.000 OA
ATOM      3  N   UNL     1      48.434   4.639  16.039  0.00  0.00    +0.000 N 
ATOM      4  H   UNL     1      49.351   5.016  15.850  0.00  0.00    +0.000 HD
ENDROOT
BRANCH   1  10
ATOM      5  C   UNL     1      52.981   2.245  18.266  0.00  0.00    +0.000 A 
ATOM      6  N   UNL     1      53.340   3.382  18.910  0.00  0.00    +0.000 NA
ATOM      7  C   UNL     1      52.473   4.411  18.971  0.00  0.00    +0.000 A 
ATOM      8  C   UNL     1      51.199   4.401  18.425  0.00  0.00    +0.000 A 
ATOM      9  C   UNL     1      50.789   3.226  17.772  0.00  0.00    +0.000 A 
ATOM     10  C   UNL     1      49.592   2.821  17.083  0.00  0.00    +0.000 A 
ATOM     11  C   UNL     1      49.840   1.546  16.597  0.00  0.00    +0.000 A 
ATOM     12  N   UNL     1      51.091   1.163  16.983  0.00  0.00    +0.000 N 
ATOM     13  C   UNL     1      51.704   2.168  17.697  0.00  0.00    +0.000 A 
ATOM     14  H   UNL     1      51.516   0.275  16.757  0.00  0.00    +0.000 HD
BRANCH   5  17
ATOM     15  C   UNL     1      55.050  -0.749  16.961  0.00  0.00    +0.000 C 
ATOM     16  C   UNL     1      54.085   0.385  17.068  0.00  0.00    +0.000 C 
ATOM     17  C   UNL     1      53.938   1.138  18.171  0.00  0.00    +0.000 C 
ENDBRANCH   5  17
ENDBRANCH   1  10
BRANCH   3  18
ATOM     18  C   UNL     1      47.284   5.481  15.809  0.00  0.00    +0.000 C 
BRANCH  18  19
ATOM     19  C   UNL     1      46.880   5.434  14.361  0.00  0.00    +0.000 A 
ATOM     20  C   UNL     1      47.438   6.330  13.444  0.00  0.00    +0.000 A 
ATOM     21  C   UNL     1      46.997   6.350  12.120  0.00  0.00    +0.000 A 
ATOM     22  C   UNL     1      46.003   5.464  11.672  0.00  0.00    +0.000 A 
ATOM     23  C   UNL     1      45.451   4.564  12.593  0.00  0.00    +0.000 A 
ATOM     24  C   UNL     1      45.884   4.550  13.924  0.00  0.00    +0.000 A 
BRANCH  22  25
ATOM     25  C   UNL     1      45.473   5.525  10.251  0.00  0.00    +0.000 C 
BRANCH  25  26
ATOM     26  N   UNL     1      45.205   4.190   9.731  0.00  0.00    +0.000 NA
ATOM     27  H   UNL     1      44.555   3.715  10.356  0.00  0.00    +0.000 HD
BRANCH  26  28
ATOM     28  C   UNL     1      44.691   4.175   8.367  0.00  0.00    +0.000 C 
BRANCH  28  29
ATOM     29  C   UNL     1      45.422   3.068   7.580  0.00  0.00    +0.000 C 
ATOM     30  C   UNL     1      45.898   1.932   8.507  0.00  0.00    +0.000 C 
ATOM     31  C   UNL     1      46.627   0.839   7.731  0.00  0.00    +0.000 C 
ATOM     32  C   UNL     1      47.789   1.407   6.925  0.00  0.00    +0.000 C 
ATOM     33  C   UNL     1      47.336   2.541   6.011  0.00  0.00    +0.000 C 
ATOM     34  C   UNL     1      46.607   3.638   6.786  0.00  0.00    +0.000 C 
ENDBRANCH  28  29
ENDBRANCH  26  28
ENDBRANCH  25  26
ENDBRANCH  22  25
ENDBRANCH  18  19
ENDBRANCH   3  18
TORSDOF 8
ENDMDL
MODEL 6
REMARK VINA RESULT:    -6.394      3.354      6.014
REMARK INTER + INTRA:         -10.563
REMARK INTER:                  -9.984
REMARK INTRA:                  -0.579
REMARK UNBOUND:                -1.179
REMARK  Name = 
REMARK  9 active torsions:
REMARK  status: ('A' for Active; 'I' for Inactive)
REMARK    1  A    between atoms: C_1  and  C_2
REMARK    2  A    between atoms: C_3  and  C_4
REMARK    3  A    between atoms: C_9  and  C_10
REMARK    4  A    between atoms: N_12  and  C_13
REMARK    5  A    between atoms: C_13  and  C_14
REMARK    6  A    between atoms: C_17  and  C_18
REMARK    7  A    between atoms: C_18  and  N_19
REMARK    8  A    between atoms: N_19  and  C_20
REMARK    9  A    between atoms: C_20  and  C_21
REMARK                            x       y       z     vdW  Elec       q    Type
REMARK                         _______ _______ _______ _____ _____    ______ ____
ROOT
ATOM      1  C   UNL     1      44.970   4.539  11.520  0.00  0.00    +0.000 C 
ATOM      2  O   UNL     1      43.846   4.113  11.768  0.00  0.00    +0.000 OA
ATOM      3  N   UNL     1      45.490   4.550  10.248  0.00  0.00    +0.000 N 
ATOM      4  H   UNL     1      46.296   5.129  10.063  0.00  0.00    +0.000 HD
ENDROOT
BRANCH   1  10
ATOM      5  C   UNL     1      48.335   7.299  14.033  0.00  0.00    +0.000 A 
ATOM      6  N   UNL     1      48.761   8.102  13.029  0.00  0.00    +0.000 NA
ATOM      7  C   UNL     1      48.244   7.950  11.794  0.00  0.00    +0.000 A 
ATOM      8  C   UNL     1      47.272   7.022  11.455  0.00  0.00    +0.000 A 
ATOM      9  C   UNL     1      46.793   6.191  12.482  0.00  0.00    +0.000 A 
ATOM     10  C   UNL     1      45.828   5.124  12.548  0.00  0.00    +0.000 A 
ATOM     11  C   UNL     1      45.859   4.657  13.854  0.00  0.00    +0.000 A 
ATOM     12  N   UNL     1      46.754   5.400  14.567  0.00  0.00    +0.000 N 
ATOM     13  C   UNL     1      47.350   6.342  13.759  0.00  0.00    +0.000 A 
ATOM     14  H   UNL     1      46.966   5.263  15.544  0.00  0.00    +0.000 HD
BRANCH   5  17
ATOM     15  C   UNL     1      50.284   6.626  17.304  0.00  0.00    +0.000 C 
ATOM     16  C   UNL     1      49.685   6.496  15.943  0.00  0.00    +0.000 C 
ATOM     17  C   UNL     1      48.923   7.442  15.369  0.00  0.00    +0.000 C 
ENDBRANCH   5  17
ENDBRANCH   1  10
BRANCH   3  18
ATOM     18  C   UNL     1      44.700   4.096   9.129  0.00  0.00    +0.000 C 
BRANCH  18  19
ATOM     19  C   UNL     1      45.553   3.317   8.166  0.00  0.00    +0.000 A 
ATOM     20  C   UNL     1      45.984   3.904   6.972  0.00  0.00    +0.000 A 
ATOM     21  C   UNL     1      46.697   3.154   6.035  0.00  0.00    +0.000 A 
ATOM     22  C   UNL     1      47.014   1.807   6.273  0.00  0.00    +0.000 A 
ATOM     23  C   UNL     1      46.585   1.224   7.473  0.00  0.00    +0.000 A 
ATOM     24  C   UNL     1      45.860   1.971   8.409  0.00  0.00    +0.000 A 
BRANCH  22  25
ATOM     25  C   UNL     1      47.731   0.968   5.230  0.00  0.00    +0.000 C 
BRANCH  25  26
ATOM     26  N   UNL     1      46.918  -0.169   4.818  0.00  0.00    +0.000 NA
ATOM     27  H   UNL     1      45.966  -0.035   5.154  0.00  0.00    +0.000 HD
BRANCH  26  28
ATOM     28  C   UNL     1      46.913  -0.406   3.380  0.00  0.00    +0.000 C 
BRANCH  28  29
ATOM     29  C   UNL     1      46.819  -1.927   3.134  0.00  0.00    +0.000 C 
ATOM     30  C   UNL     1      46.597  -2.701   4.449  0.00  0.00    +0.000 C 
ATOM     31  C   UNL     1      46.511  -4.205   4.208  0.00  0.00    +0.000 C 
ATOM     32  C   UNL     1      47.739  -4.725   3.470  0.00  0.00    +0.000 C 
ATOM     33  C   UNL     1      47.978  -3.960   2.172  0.00  0.00    +0.000 C 
ATOM     34  C   UNL     1      48.068  -2.452   2.411  0.00  0.00    +0.000 C 
ENDBRANCH  28  29
ENDBRANCH  26  28
ENDBRANCH  25  26
ENDBRANCH  22  25
ENDBRANCH  18  19
ENDBRANCH   3  18
TORSDOF 8
ENDMDL
MODEL 7
REMARK VINA RESULT:    -6.283      2.178      9.755
REMARK INTER + INTRA:         -10.400
REMARK INTER:                  -9.504
REMARK INTRA:                  -0.897
REMARK UNBOUND:                -1.179
REMARK  Name = 
REMARK  9 active torsions:
REMARK  status: ('A' for Active; 'I' for Inactive)
REMARK    1  A    between atoms: C_1  and  C_2
REMARK    2  A    between atoms: C_3  and  C_4
REMARK    3  A    between atoms: C_9  and  C_10
REMARK    4  A    between atoms: N_12  and  C_13
REMARK    5  A    between atoms: C_13  and  C_14
REMARK    6  A    between atoms: C_17  and  C_18
REMARK    7  A    between atoms: C_18  and  N_19
REMARK    8  A    between atoms: N_19  and  C_20
REMARK    9  A    between atoms: C_20  and  C_21
REMARK                            x       y       z     vdW  Elec       q    Type
REMARK                         _______ _______ _______ _____ _____    ______ ____
ROOT
ATOM      1  C   UNL     1      44.219   4.317  10.377  0.00  0.00    +0.000 C 
ATOM      2  O   UNL     1      43.164   4.138  10.977  0.00  0.00    +0.000 OA
ATOM      3  N   UNL     1      44.972   5.456  10.535  0.00  0.00    +0.000 N 
ATOM      4  H   UNL     1      45.933   5.445  10.224  0.00  0.00    +0.000 HD
ENDROOT
BRANCH   1  10
ATOM      5  C   UNL     1      46.843   1.910   6.831  0.00  0.00    +0.000 A 
ATOM      6  N   UNL     1      47.543   2.953   6.323  0.00  0.00    +0.000 NA
ATOM      7  C   UNL     1      47.357   4.186   6.832  0.00  0.00    +0.000 A 
ATOM      8  C   UNL     1      46.494   4.487   7.874  0.00  0.00    +0.000 A 
ATOM      9  C   UNL     1      45.771   3.422   8.437  0.00  0.00    +0.000 A 
ATOM     10  C   UNL     1      44.795   3.309   9.488  0.00  0.00    +0.000 A 
ATOM     11  C   UNL     1      44.410   1.977   9.517  0.00  0.00    +0.000 A 
ATOM     12  N   UNL     1      45.119   1.293   8.573  0.00  0.00    +0.000 N 
ATOM     13  C   UNL     1      45.956   2.145   7.888  0.00  0.00    +0.000 A 
ATOM     14  H   UNL     1      45.027   0.305   8.389  0.00  0.00    +0.000 HD
BRANCH   5  17
ATOM     15  C   UNL     1      47.126  -1.029   4.334  0.00  0.00    +0.000 C 
ATOM     16  C   UNL     1      46.955   0.327   4.934  0.00  0.00    +0.000 C 
ATOM     17  C   UNL     1      47.020   0.574   6.253  0.00  0.00    +0.000 C 
ENDBRANCH   5  17
ENDBRANCH   1  10
BRANCH   3  18
ATOM     18  C   UNL     1      44.564   6.481  11.466  0.00  0.00    +0.000 C 
BRANCH  18  19
ATOM     19  C   UNL     1      45.694   6.823  12.399  0.00  0.00    +0.000 A 
ATOM     20  C   UNL     1      45.944   8.155  12.744  0.00  0.00    +0.000 A 
ATOM     21  C   UNL     1      47.047   8.483  13.533  0.00  0.00    +0.000 A 
ATOM     22  C   UNL     1      47.917   7.491  14.014  0.00  0.00    +0.000 A 
ATOM     23  C   UNL     1      47.659   6.157  13.671  0.00  0.00    +0.000 A 
ATOM     24  C   UNL     1      46.560   5.827  12.870  0.00  0.00    +0.000 A 
BRANCH  22  25
ATOM     25  C   UNL     1      49.155   7.847  14.818  0.00  0.00    +0.000 C 
BRANCH  25  26
ATOM     26  N   UNL     1      49.637   6.701  15.579  0.00  0.00    +0.000 NA
ATOM     27  H   UNL     1      50.655   6.728  15.610  0.00  0.00    +0.000 HD
BRANCH  26  28
ATOM     28  C   UNL     1      49.096   6.615  16.930  0.00  0.00    +0.000 C 
BRANCH  28  29
ATOM     29  C   UNL     1      49.366   5.197  17.476  0.00  0.00    +0.000 C 
ATOM     30  C   UNL     1      50.840   4.786  17.285  0.00  0.00    +0.000 C 
ATOM     31  C   UNL     1      51.107   3.382  17.818  0.00  0.00    +0.000 C 
ATOM     32  C   UNL     1      50.171   2.358  17.188  0.00  0.00    +0.000 C 
ATOM     33  C   UNL     1      48.708   2.757  17.358  0.00  0.00    +0.000 C 
ATOM     34  C   UNL     1      48.437   4.163  16.823  0.00  0.00    +0.000 C 
ENDBRANCH  28  29
ENDBRANCH  26  28
ENDBRANCH  25  26
ENDBRANCH  22  25
ENDBRANCH  18  19
ENDBRANCH   3  18
TORSDOF 8
ENDMDL
MODEL 8
REMARK VINA RESULT:    -6.204      3.710      5.429
REMARK INTER + INTRA:         -10.284
REMARK INTER:                  -9.564
REMARK INTRA:                  -0.720
REMARK UNBOUND:                -1.179
REMARK  Name = 
REMARK  9 active torsions:
REMARK  status: ('A' for Active; 'I' for Inactive)
REMARK    1  A    between atoms: C_1  and  C_2
REMARK    2  A    between atoms: C_3  and  C_4
REMARK    3  A    between atoms: C_9  and  C_10
REMARK    4  A    between atoms: N_12  and  C_13
REMARK    5  A    between atoms: C_13  and  C_14
REMARK    6  A    between atoms: C_17  and  C_18
REMARK    7  A    between atoms: C_18  and  N_19
REMARK    8  A    between atoms: N_19  and  C_20
REMARK    9  A    between atoms: C_20  and  C_21
REMARK                            x       y       z     vdW  Elec       q    Type
REMARK                         _______ _______ _______ _____ _____    ______ ____
ROOT
ATOM      1  C   UNL     1      48.363   7.767  13.192  0.00  0.00    +0.000 C 
ATOM      2  O   UNL     1      48.249   7.332  14.333  0.00  0.00    +0.000 OA
ATOM      3  N   UNL     1      47.281   8.147  12.435  0.00  0.00    +0.000 N 
ATOM      4  H   UNL     1      47.441   8.721  11.620  0.00  0.00    +0.000 HD
ENDROOT
BRANCH   1  10
ATOM      5  C   UNL     1      53.145   8.971  12.220  0.00  0.00    +0.000 A 
ATOM      6  N   UNL     1      53.506   9.455  13.434  0.00  0.00    +0.000 NA
ATOM      7  C   UNL     1      52.599   9.488  14.429  0.00  0.00    +0.000 A 
ATOM      8  C   UNL     1      51.291   9.043  14.320  0.00  0.00    +0.000 A 
ATOM      9  C   UNL     1      50.895   8.513  13.080  0.00  0.00    +0.000 A 
ATOM     10  C   UNL     1      49.666   7.973  12.561  0.00  0.00    +0.000 A 
ATOM     11  C   UNL     1      49.908   7.679  11.227  0.00  0.00    +0.000 A 
ATOM     12  N   UNL     1      51.206   7.981  10.937  0.00  0.00    +0.000 N 
ATOM     13  C   UNL     1      51.839   8.500  12.044  0.00  0.00    +0.000 A 
ATOM     14  H   UNL     1      51.636   7.861  10.031  0.00  0.00    +0.000 HD
BRANCH   5  17
ATOM     15  C   UNL     1      54.790   9.259   8.733  0.00  0.00    +0.000 C 
ATOM     16  C   UNL     1      53.807   9.266   9.856  0.00  0.00    +0.000 C 
ATOM     17  C   UNL     1      54.122   8.967  11.127  0.00  0.00    +0.000 C 
ENDBRANCH   5  17
ENDBRANCH   1  10
BRANCH   3  18
ATOM     18  C   UNL     1      45.947   8.091  12.984  0.00  0.00    +0.000 C 
BRANCH  18  19
ATOM     19  C   UNL     1      45.265   6.814  12.576  0.00  0.00    +0.000 A 
ATOM     20  C   UNL     1      45.335   5.685  13.397  0.00  0.00    +0.000 A 
ATOM     21  C   UNL     1      44.782   4.473  12.978  0.00  0.00    +0.000 A 
ATOM     22  C   UNL     1      44.129   4.363  11.740  0.00  0.00    +0.000 A 
ATOM     23  C   UNL     1      44.055   5.500  10.923  0.00  0.00    +0.000 A 
ATOM     24  C   UNL     1      44.619   6.712  11.337  0.00  0.00    +0.000 A 
BRANCH  22  25
ATOM     25  C   UNL     1      43.583   3.034  11.249  0.00  0.00    +0.000 C 
BRANCH  25  26
ATOM     26  N   UNL     1      44.602   2.279  10.531  0.00  0.00    +0.000 NA
ATOM     27  H   UNL     1      44.670   1.346  10.934  0.00  0.00    +0.000 HD
BRANCH  26  28
ATOM     28  C   UNL     1      44.373   2.189   9.094  0.00  0.00    +0.000 C 
BRANCH  28  29
ATOM     29  C   UNL     1      45.718   2.402   8.368  0.00  0.00    +0.000 C 
ATOM     30  C   UNL     1      45.562   3.325   7.143  0.00  0.00    +0.000 C 
ATOM     31  C   UNL     1      46.889   3.531   6.421  0.00  0.00    +0.000 C 
ATOM     32  C   UNL     1      47.523   2.203   6.025  0.00  0.00    +0.000 C 
ATOM     33  C   UNL     1      47.673   1.274   7.226  0.00  0.00    +0.000 C 
ATOM     34  C   UNL     1      46.343   1.063   7.950  0.00  0.00    +0.000 C 
ENDBRANCH  28  29
ENDBRANCH  26  28
ENDBRANCH  25  26
ENDBRANCH  22  25
ENDBRANCH  18  19
ENDBRANCH   3  18
TORSDOF 8
ENDMDL
MODEL 9
REMARK VINA RESULT:    -5.931      3.745      6.074
REMARK INTER + INTRA:          -9.884
REMARK INTER:                  -8.786
REMARK INTRA:                  -1.098
REMARK UNBOUND:                -1.179
REMARK  Name = 
REMARK  9 active torsions:
REMARK  status: ('A' for Active; 'I' for Inactive)
REMARK    1  A    between atoms: C_1  and  C_2
REMARK    2  A    between atoms: C_3  and  C_4
REMARK    3  A    between atoms: C_9  and  C_10
REMARK    4  A    between atoms: N_12  and  C_13
REMARK    5  A    between atoms: C_13  and  C_14
REMARK    6  A    between atoms: C_17  and  C_18
REMARK    7  A    between atoms: C_18  and  N_19
REMARK    8  A    between atoms: N_19  and  C_20
REMARK    9  A    between atoms: C_20  and  C_21
REMARK                            x       y       z     vdW  Elec       q    Type
REMARK                         _______ _______ _______ _____ _____    ______ ____
ROOT
ATOM      1  C   UNL     1      50.339   4.167  17.615  0.00  0.00    +0.000 C 
ATOM      2  O   UNL     1      49.228   4.226  18.132  0.00  0.00    +0.000 OA
ATOM      3  N   UNL     1      50.936   5.255  17.025  0.00  0.00    +0.000 N 
ATOM      4  H   UNL     1      51.929   5.221  16.845  0.00  0.00    +0.000 HD
ENDROOT
BRANCH   1  10
ATOM      5  C   UNL     1      54.011   0.792  18.240  0.00  0.00    +0.000 A 
ATOM      6  N   UNL     1      54.938   1.578  18.839  0.00  0.00    +0.000 NA
ATOM      7  C   UNL     1      54.661   2.878  19.060  0.00  0.00    +0.000 A 
ATOM      8  C   UNL     1      53.467   3.497  18.729  0.00  0.00    +0.000 A 
ATOM      9  C   UNL     1      52.476   2.702  18.128  0.00  0.00    +0.000 A 
ATOM     10  C   UNL     1      51.147   2.948  17.635  0.00  0.00    +0.000 A 
ATOM     11  C   UNL     1      50.709   1.750  17.090  0.00  0.00    +0.000 A 
ATOM     12  N   UNL     1      51.681   0.808  17.260  0.00  0.00    +0.000 N 
ATOM     13  C   UNL     1      52.779   1.356  17.884  0.00  0.00    +0.000 A 
ATOM     14  H   UNL     1      51.613  -0.151  16.950  0.00  0.00    +0.000 HD
BRANCH   5  17
ATOM     15  C   UNL     1      54.484  -3.027  18.612  0.00  0.00    +0.000 C 
ATOM     16  C   UNL     1      54.162  -1.593  18.873  0.00  0.00    +0.000 C 
ATOM     17  C   UNL     1      54.325  -0.614  17.968  0.00  0.00    +0.000 C 
ENDBRANCH   5  17
ENDBRANCH   1  10
BRANCH   3  18
ATOM     18  C   UNL     1      50.285   6.543  17.034  0.00  0.00    +0.000 C 
BRANCH  18  19
ATOM     19  C   UNL     1      49.656   6.823  15.697  0.00  0.00    +0.000 A 
ATOM     20  C   UNL     1      48.435   6.233  15.356  0.00  0.00    +0.000 A 
ATOM     21  C   UNL     1      47.895   6.416  14.082  0.00  0.00    +0.000 A 
ATOM     22  C   UNL     1      48.549   7.207  13.123  0.00  0.00    +0.000 A 
ATOM     23  C   UNL     1      49.770   7.800  13.471  0.00  0.00    +0.000 A 
ATOM     24  C   UNL     1      50.318   7.609  14.744  0.00  0.00    +0.000 A 
BRANCH  22  25
ATOM     25  C   UNL     1      48.001   7.356  11.715  0.00  0.00    +0.000 C 
BRANCH  25  26
ATOM     26  N   UNL     1      46.574   7.063  11.671  0.00  0.00    +0.000 NA
ATOM     27  H   UNL     1      46.057   7.938  11.599  0.00  0.00    +0.000 HD
BRANCH  26  28
ATOM     28  C   UNL     1      46.186   6.160  10.594  0.00  0.00    +0.000 C 
BRANCH  28  29
ATOM     29  C   UNL     1      44.965   5.339  11.059  0.00  0.00    +0.000 C 
ATOM     30  C   UNL     1      43.855   6.244  11.630  0.00  0.00    +0.000 C 
ATOM     31  C   UNL     1      42.651   5.433  12.096  0.00  0.00    +0.000 C 
ATOM     32  C   UNL     1      43.053   4.363  13.105  0.00  0.00    +0.000 C 
ATOM     33  C   UNL     1      44.160   3.466  12.558  0.00  0.00    +0.000 C 
ATOM     34  C   UNL     1      45.369   4.277  12.092  0.00  0.00    +0.000 C 
ENDBRANCH  28  29
ENDBRANCH  26  28
ENDBRANCH  25  26
ENDBRANCH  22  25
ENDBRANCH  18  19
ENDBRANCH   3  18
TORSDOF 8
ENDMDL
