MODEL 1
REMARK VINA RESULT:    -7.206      0.000      0.000
REMARK INTER + INTRA:         -12.325
REMARK INTER:                 -10.365
REMARK INTRA:                  -1.960
REMARK UNBOUND:                -1.960
REMARK  Name = 
REMARK  10 active torsions:
REMARK  status: ('A' for Active; 'I' for Inactive)
REMARK    1  A    between atoms: C_1  and  C_2
REMARK    2  A    between atoms: C_6  and  C_7
REMARK    3  A    between atoms: C_7  and  N_8
REMARK    4  A    between atoms: N_8  and  C_9
REMARK    5  A    between atoms: N_8  and  C_10
REMARK    6  A    between atoms: C_10  and  C_11
REMARK    7  A    between atoms: C_14  and  C_15
REMARK    8  A    between atoms: C_15  and  N_16
REMARK    9  A    between atoms: C_17  and  C_19
REMARK   10  A    between atoms: C_26  and  O_27
REMARK                            x       y       z     vdW  Elec       q    Type
REMARK                         _______ _______ _______ _____ _____    ______ ____
ROOT
ATOM      1  C   UNL     1      48.919   8.010  16.206  0.00  0.00    +0.000 A 
ATOM      2  C   UNL     1      49.310   6.941  15.385  0.00  0.00    +0.000 A 
ATOM      3  C   UNL     1      48.955   6.910  14.036  0.00  0.00    +0.000 A 
ATOM      4  C   UNL     1      48.202   7.948  13.466  0.00  0.00    +0.000 A 
ATOM      5  C   UNL     1      47.811   9.013  14.284  0.00  0.00    +0.000 A 
ATOM      6  C   UNL     1      48.168   9.047  15.637  0.00  0.00    +0.000 A 
ENDROOT
BRANCH   1   7
ATOM      7  C   UNL     1      49.270   8.021  17.682  0.00  0.00    +0.000 C 
BRANCH   7   8
ATOM      8  N   UNL     1      48.186   7.548  18.565  0.00  0.00    +0.000 NA
ATOM      9  C   UNL     1      47.856   8.601  19.536  0.00  0.00    +0.000 C 
BRANCH   8  10
ATOM     10  C   UNL     1      48.582   6.306  19.259  0.00  0.00    +0.000 C 
BRANCH  10  16
ATOM     11  C   UNL     1      50.752   2.216  17.259  0.00  0.00    +0.000 C 
ATOM     12  C   UNL     1      49.531   3.065  17.455  0.00  0.00    +0.000 A 
ATOM     13  C   UNL     1      48.306   2.711  16.880  0.00  0.00    +0.000 A 
ATOM     14  C   UNL     1      47.187   3.528  17.045  0.00  0.00    +0.000 A 
ATOM     15  C   UNL     1      47.279   4.701  17.795  0.00  0.00    +0.000 A 
ATOM     16  C   UNL     1      48.492   5.064  18.395  0.00  0.00    +0.000 A 
ATOM     17  C   UNL     1      49.614   4.238  18.215  0.00  0.00    +0.000 A 
ENDBRANCH  10  16
ENDBRANCH   8  10
ENDBRANCH   7   8
ENDBRANCH   1   7
BRANCH   4  18
ATOM     18  C   UNL     1      47.781   7.888  12.019  0.00  0.00    +0.000 C 
BRANCH  18  19
ATOM     19  N   UNL     1      47.013   6.698  11.753  0.00  0.00    +0.000 N 
ATOM     20  C   UNL     1      45.652   6.655  11.923  0.00  0.00    +0.000 C 
ATOM     21  O   UNL     1      44.977   7.656  12.139  0.00  0.00    +0.000 OA
ATOM     22  H   UNL     1      47.527   5.831  11.656  0.00  0.00    +0.000 HD
BRANCH  20  23
ATOM     23  C   UNL     1      45.045   5.329  11.769  0.00  0.00    +0.000 A 
ATOM     24  C   UNL     1      44.468   4.682  12.848  0.00  0.00    +0.000 A 
ATOM     25  S   UNL     1      43.747   3.191  12.428  0.00  0.00    +0.000 S 
ATOM     26  C   UNL     1      44.248   3.345  10.810  0.00  0.00    +0.000 A 
ATOM     27  N   UNL     1      43.953   2.392   9.908  0.00  0.00    +0.000 NA
ATOM     28  C   UNL     1      44.450   2.656   8.695  0.00  0.00    +0.000 A 
ATOM     29  N   UNL     1      45.188   3.712   8.328  0.00  0.00    +0.000 NA
ATOM     30  C   UNL     1      45.441   4.622   9.273  0.00  0.00    +0.000 A 
ATOM     31  C   UNL     1      44.963   4.510  10.576  0.00  0.00    +0.000 A 
BRANCH  30  32
ATOM     32  O   UNL     1      46.199   5.670   8.841  0.00  0.00    +0.000 OA
ATOM     33  H   UNL     1      46.375   5.404   7.920  0.00  0.00    +0.000 HD
ENDBRANCH  30  32
ENDBRANCH  20  23
ENDBRANCH  18  19
ENDBRANCH   4  18
TORSDOF 8
ENDMDL
MODEL 2
REMARK VINA RESULT:    -6.670      1.963      2.342
REMARK INTER + INTRA:         -11.554
REMARK INTER:                  -9.467
REMARK INTRA:                  -2.087
REMARK UNBOUND:                -1.960
REMARK  Name = 
REMARK  10 active torsions:
REMARK  status: ('A' for Active; 'I' for Inactive)
REMARK    1  A    between atoms: C_1  and  C_2
REMARK    2  A    between atoms: C_6  and  C_7
REMARK    3  A    between atoms: C_7  and  N_8
REMARK    4  A    between atoms: N_8  and  C_9
REMARK    5  A    between atoms: N_8  and  C_10
REMARK    6  A    between atoms: C_10  and  C_11
REMARK    7  A    between atoms: C_14  and  C_15
REMARK    8  A    between atoms: C_15  and  N_16
REMARK    9  A    between atoms: C_17  and  C_19
REMARK   10  A    between atoms: C_26  and  O_27
REMARK                            x       y       z     vdW  Elec       q    Type
REMARK                         _______ _______ _______ _____ _____    ______ ____
ROOT
ATOM      1  C   UNL     1      49.318   7.914  17.915  0.00  0.00    +0.000 A 
ATOM      2  C   UNL     1      50.025   7.099  17.018  0.00  0.00    +0.000 A 
ATOM      3  C   UNL     1      49.873   7.257  15.640  0.00  0.00    +0.000 A 
ATOM      4  C   UNL     1      49.013   8.234  15.117  0.00  0.00    +0.000 A 
ATOM      5  C   UNL     1      48.307   9.046  16.011  0.00  0.00    +0.000 A 
ATOM      6  C   UNL     1      48.460   8.891  17.394  0.00  0.00    +0.000 A 
ENDROOT
BRANCH   1   7
ATOM      7  C   UNL     1      49.452   7.714  19.413  0.00  0.00    +0.000 C 
BRANCH   7   8
ATOM      8  N   UNL     1      48.316   7.006  20.034  0.00  0.00    +0.000 NA
ATOM      9  C   UNL     1      47.996   7.636  21.322  0.00  0.00    +0.000 C 
BRANCH   8  10
ATOM     10  C   UNL     1      48.629   5.574  20.216  0.00  0.00    +0.000 C 
BRANCH  10  16
ATOM     11  C   UNL     1      50.309   2.015  17.064  0.00  0.00    +0.000 C 
ATOM     12  C   UNL     1      49.242   2.993  17.457  0.00  0.00    +0.000 A 
ATOM     13  C   UNL     1      48.070   3.123  16.704  0.00  0.00    +0.000 A 
ATOM     14  C   UNL     1      47.100   4.059  17.065  0.00  0.00    +0.000 A 
ATOM     15  C   UNL     1      47.289   4.867  18.186  0.00  0.00    +0.000 A 
ATOM     16  C   UNL     1      48.447   4.741  18.964  0.00  0.00    +0.000 A 
ATOM     17  C   UNL     1      49.419   3.800  18.587  0.00  0.00    +0.000 A 
ENDBRANCH  10  16
ENDBRANCH   8  10
ENDBRANCH   7   8
ENDBRANCH   1   7
BRANCH   4  18
ATOM     18  C   UNL     1      48.816   8.370  13.628  0.00  0.00    +0.000 C 
BRANCH  18  19
ATOM     19  N   UNL     1      47.508   7.910  13.236  0.00  0.00    +0.000 N 
ATOM     20  C   UNL     1      47.278   6.615  12.841  0.00  0.00    +0.000 C 
ATOM     21  O   UNL     1      48.114   5.726  12.958  0.00  0.00    +0.000 OA
ATOM     22  H   UNL     1      46.810   8.617  13.043  0.00  0.00    +0.000 HD
BRANCH  20  23
ATOM     23  C   UNL     1      45.934   6.352  12.319  0.00  0.00    +0.000 A 
ATOM     24  C   UNL     1      45.177   7.366  11.758  0.00  0.00    +0.000 A 
ATOM     25  S   UNL     1      43.681   6.823  11.137  0.00  0.00    +0.000 S 
ATOM     26  C   UNL     1      43.981   5.234  11.664  0.00  0.00    +0.000 A 
ATOM     27  N   UNL     1      43.080   4.259  11.447  0.00  0.00    +0.000 NA
ATOM     28  C   UNL     1      43.460   3.082  11.953  0.00  0.00    +0.000 A 
ATOM     29  N   UNL     1      44.581   2.810  12.635  0.00  0.00    +0.000 NA
ATOM     30  C   UNL     1      45.433   3.823  12.812  0.00  0.00    +0.000 A 
ATOM     31  C   UNL     1      45.199   5.102  12.313  0.00  0.00    +0.000 A 
BRANCH  30  32
ATOM     32  O   UNL     1      46.552   3.487  13.515  0.00  0.00    +0.000 OA
ATOM     33  H   UNL     1      47.229   3.528  12.815  0.00  0.00    +0.000 HD
ENDBRANCH  30  32
ENDBRANCH  20  23
ENDBRANCH  18  19
ENDBRANCH   4  18
TORSDOF 8
ENDMDL
MODEL 3
REMARK VINA RESULT:    -6.554      3.088      4.886
REMARK INTER + INTRA:         -11.388
REMARK INTER:                  -9.622
REMARK INTRA:                  -1.766
REMARK UNBOUND:                -1.960
REMARK  Name = 
REMARK  10 active torsions:
REMARK  status: ('A' for Active; 'I' for Inactive)
REMARK    1  A    between atoms: C_1  and  C_2
REMARK    2  A    between atoms: C_6  and  C_7
REMARK    3  A    between atoms: C_7  and  N_8
REMARK    4  A    between atoms: N_8  and  C_9
REMARK    5  A    between atoms: N_8  and  C_10
REMARK    6  A    between atoms: C_10  and  C_11
REMARK    7  A    between atoms: C_14  and  C_15
REMARK    8  A    between atoms: C_15  and  N_16
REMARK    9  A    between atoms: C_17  and  C_19
REMARK   10  A    between atoms: C_26  and  O_27
REMARK                            x       y       z     vdW  Elec       q    Type
REMARK                         _______ _______ _______ _____ _____    ______ ____
ROOT
ATOM      1  C   UNL     1      51.461   4.128  17.637  0.00  0.00    +0.000 A 
ATOM      2  C   UNL     1      50.795   2.894  17.645  0.00  0.00    +0.000 A 
ATOM      3  C   UNL     1      49.419   2.824  17.426  0.00  0.00    +0.000 A 
ATOM      4  C   UNL     1      48.668   3.985  17.188  0.00  0.00    +0.000 A 
ATOM      5  C   UNL     1      49.332   5.217  17.181  0.00  0.00    +0.000 A 
ATOM      6  C   UNL     1      50.712   5.288  17.399  0.00  0.00    +0.000 A 
ENDROOT
BRANCH   1   7
ATOM      7  C   UNL     1      52.951   4.206  17.918  0.00  0.00    +0.000 C 
BRANCH   7   8
ATOM      8  N   UNL     1      53.301   4.999  19.112  0.00  0.00    +0.000 NA
ATOM      9  C   UNL     1      54.757   4.973  19.302  0.00  0.00    +0.000 C 
BRANCH   8  10
ATOM     10  C   UNL     1      52.609   4.477  20.308  0.00  0.00    +0.000 C 
BRANCH  10  16
ATOM     11  C   UNL     1      47.847   5.238  21.782  0.00  0.00    +0.000 C 
ATOM     12  C   UNL     1      49.240   5.760  21.597  0.00  0.00    +0.000 A 
ATOM     13  C   UNL     1      49.572   7.074  21.947  0.00  0.00    +0.000 A 
ATOM     14  C   UNL     1      50.865   7.555  21.739  0.00  0.00    +0.000 A 
ATOM     15  C   UNL     1      51.842   6.724  21.190  0.00  0.00    +0.000 A 
ATOM     16  C   UNL     1      51.537   5.400  20.850  0.00  0.00    +0.000 A 
ATOM     17  C   UNL     1      50.229   4.929  21.056  0.00  0.00    +0.000 A 
ENDBRANCH  10  16
ENDBRANCH   8  10
ENDBRANCH   7   8
ENDBRANCH   1   7
BRANCH   4  18
ATOM     18  C   UNL     1      47.173   3.910  16.998  0.00  0.00    +0.000 C 
BRANCH  18  19
ATOM     19  N   UNL     1      46.770   4.604  15.802  0.00  0.00    +0.000 N 
ATOM     20  C   UNL     1      46.992   4.088  14.550  0.00  0.00    +0.000 C 
ATOM     21  O   UNL     1      47.384   2.942  14.362  0.00  0.00    +0.000 OA
ATOM     22  H   UNL     1      46.522   5.581  15.897  0.00  0.00    +0.000 HD
BRANCH  20  23
ATOM     23  C   UNL     1      46.672   4.989  13.438  0.00  0.00    +0.000 A 
ATOM     24  C   UNL     1      47.146   6.289  13.416  0.00  0.00    +0.000 A 
ATOM     25  S   UNL     1      46.726   7.133  11.991  0.00  0.00    +0.000 S 
ATOM     26  C   UNL     1      45.845   5.803  11.401  0.00  0.00    +0.000 A 
ATOM     27  N   UNL     1      45.222   5.868  10.212  0.00  0.00    +0.000 NA
ATOM     28  C   UNL     1      44.551   4.750   9.917  0.00  0.00    +0.000 A 
ATOM     29  N   UNL     1      44.435   3.646  10.668  0.00  0.00    +0.000 NA
ATOM     30  C   UNL     1      45.082   3.647  11.836  0.00  0.00    +0.000 A 
ATOM     31  C   UNL     1      45.855   4.722  12.270  0.00  0.00    +0.000 A 
BRANCH  30  32
ATOM     32  O   UNL     1      44.925   2.500  12.557  0.00  0.00    +0.000 OA
ATOM     33  H   UNL     1      45.827   2.132  12.517  0.00  0.00    +0.000 HD
ENDBRANCH  30  32
ENDBRANCH  20  23
ENDBRANCH  18  19
ENDBRANCH   4  18
TORSDOF 8
ENDMDL
MODEL 4
REMARK VINA RESULT:    -6.394      2.506      4.575
REMARK INTER + INTRA:         -11.158
REMARK INTER:                  -8.959
REMARK INTRA:                  -2.199
REMARK UNBOUND:                -1.960
REMARK  Name = 
REMARK  10 active torsions:
REMARK  status: ('A' for Active; 'I' for Inactive)
REMARK    1  A    between atoms: C_1  and  C_2
REMARK    2  A    between atoms: C_6  and  C_7
REMARK    3  A    between atoms: C_7  and  N_8
REMARK    4  A    between atoms: N_8  and  C_9
REMARK    5  A    between atoms: N_8  and  C_10
REMARK    6  A    between atoms: C_10  and  C_11
REMARK    7  A    between atoms: C_14  and  C_15
REMARK    8  A    between atoms: C_15  and  N_16
REMARK    9  A    between atoms: C_17  and  C_19
REMARK   10  A    between atoms: C_26  and  O_27
REMARK                            x       y       z     vdW  Elec       q    Type
REMARK                         _______ _______ _______ _____ _____    ______ ____
ROOT
ATOM      1  C   UNL     1      49.158   5.986  19.904  0.00  0.00    +0.000 A 
ATOM      2  C   UNL     1      47.818   6.092  19.501  0.00  0.00    +0.000 A 
ATOM      3  C   UNL     1      47.309   5.272  18.494  0.00  0.00    +0.000 A 
ATOM      4  C   UNL     1      48.121   4.319  17.862  0.00  0.00    +0.000 A 
ATOM      5  C   UNL     1      49.458   4.213  18.261  0.00  0.00    +0.000 A 
ATOM      6  C   UNL     1      49.970   5.034  19.273  0.00  0.00    +0.000 A 
ENDROOT
BRANCH   1   7
ATOM      7  C   UNL     1      49.722   6.907  20.970  0.00  0.00    +0.000 C 
BRANCH   7   8
ATOM      8  N   UNL     1      50.963   7.600  20.576  0.00  0.00    +0.000 NA
ATOM      9  C   UNL     1      51.850   7.708  21.741  0.00  0.00    +0.000 C 
BRANCH   8  10
ATOM     10  C   UNL     1      50.663   8.937  20.024  0.00  0.00    +0.000 C 
BRANCH  10  16
ATOM     11  C   UNL     1      50.261   7.182  15.313  0.00  0.00    +0.000 C 
ATOM     12  C   UNL     1      49.719   8.029  16.427  0.00  0.00    +0.000 A 
ATOM     13  C   UNL     1      48.538   8.762  16.267  0.00  0.00    +0.000 A 
ATOM     14  C   UNL     1      48.064   9.569  17.302  0.00  0.00    +0.000 A 
ATOM     15  C   UNL     1      48.760   9.644  18.508  0.00  0.00    +0.000 A 
ATOM     16  C   UNL     1      49.935   8.905  18.695  0.00  0.00    +0.000 A 
ATOM     17  C   UNL     1      50.407   8.101  17.644  0.00  0.00    +0.000 A 
ENDBRANCH  10  16
ENDBRANCH   8  10
ENDBRANCH   7   8
ENDBRANCH   1   7
BRANCH   4  18
ATOM     18  C   UNL     1      47.579   3.466  16.741  0.00  0.00    +0.000 C 
BRANCH  18  19
ATOM     19  N   UNL     1      46.878   4.271  15.773  0.00  0.00    +0.000 N 
ATOM     20  C   UNL     1      46.910   3.989  14.430  0.00  0.00    +0.000 C 
ATOM     21  O   UNL     1      47.383   2.953  13.979  0.00  0.00    +0.000 OA
ATOM     22  H   UNL     1      46.546   5.177  16.081  0.00  0.00    +0.000 HD
BRANCH  20  23
ATOM     23  C   UNL     1      46.283   4.995  13.567  0.00  0.00    +0.000 A 
ATOM     24  C   UNL     1      46.665   6.324  13.629  0.00  0.00    +0.000 A 
ATOM     25  S   UNL     1      45.870   7.305  12.479  0.00  0.00    +0.000 S 
ATOM     26  C   UNL     1      44.949   5.991  11.918  0.00  0.00    +0.000 A 
ATOM     27  N   UNL     1      44.056   6.155  10.925  0.00  0.00    +0.000 NA
ATOM     28  C   UNL     1      43.397   5.029  10.631  0.00  0.00    +0.000 A 
ATOM     29  N   UNL     1      43.527   3.831  11.217  0.00  0.00    +0.000 NA
ATOM     30  C   UNL     1      44.434   3.738  12.193  0.00  0.00    +0.000 A 
ATOM     31  C   UNL     1      45.226   4.811  12.592  0.00  0.00    +0.000 A 
BRANCH  30  32
ATOM     32  O   UNL     1      44.518   2.497  12.752  0.00  0.00    +0.000 OA
ATOM     33  H   UNL     1      45.376   2.558  13.209  0.00  0.00    +0.000 HD
ENDBRANCH  30  32
ENDBRANCH  20  23
ENDBRANCH  18  19
ENDBRANCH   4  18
TORSDOF 8
ENDMDL
MODEL 5
REMARK VINA RESULT:    -6.364      2.834      5.079
REMARK INTER + INTRA:         -11.114
REMARK INTER:                  -8.844
REMARK INTRA:                  -2.271
REMARK UNBOUND:                -1.960
REMARK  Name = 
REMARK  10 active torsions:
REMARK  status: ('A' for Active; 'I' for Inactive)
REMARK    1  A    between atoms: C_1  and  C_2
REMARK    2  A    between atoms: C_6  and  C_7
REMARK    3  A    between atoms: C_7  and  N_8
REMARK    4  A    between atoms: N_8  and  C_9
REMARK    5  A    between atoms: N_8  and  C_10
REMARK    6  A    between atoms: C_10  and  C_11
REMARK    7  A    between atoms: C_14  and  C_15
REMARK    8  A    between atoms: C_15  and  N_16
REMARK    9  A    between atoms: C_17  and  C_19
REMARK   10  A    between atoms: C_26  and  O_27
REMARK                            x       y       z     vdW  Elec       q    Type
REMARK                         _______ _______ _______ _____ _____    ______ ____
ROOT
ATOM      1  C   UNL     1      51.030   4.780  18.968  0.00  0.00    +0.000 A 
ATOM      2  C   UNL     1      49.820   5.295  19.456  0.00  0.00    +0.000 A 
ATOM      3  C   UNL     1      48.600   4.863  18.937  0.00  0.00    +0.000 A 
ATOM      4  C   UNL     1      48.551   3.900  17.918  0.00  0.00    +0.000 A 
ATOM      5  C   UNL     1      49.758   3.386  17.430  0.00  0.00    +0.000 A 
ATOM      6  C   UNL     1      50.983   3.817  17.951  0.00  0.00    +0.000 A 
ENDROOT
BRANCH   1   7
ATOM      7  C   UNL     1      52.358   5.282  19.504  0.00  0.00    +0.000 C 
BRANCH   7   8
ATOM      8  N   UNL     1      53.288   5.763  18.464  0.00  0.00    +0.000 NA
ATOM      9  C   UNL     1      54.669   5.498  18.886  0.00  0.00    +0.000 C 
BRANCH   8  10
ATOM     10  C   UNL     1      53.088   7.205  18.211  0.00  0.00    +0.000 C 
BRANCH  10  16
ATOM     11  C   UNL     1      48.635   9.525  17.742  0.00  0.00    +0.000 C 
ATOM     12  C   UNL     1      49.715   8.671  17.147  0.00  0.00    +0.000 A 
ATOM     13  C   UNL     1      49.616   8.189  15.838  0.00  0.00    +0.000 A 
ATOM     14  C   UNL     1      50.614   7.369  15.310  0.00  0.00    +0.000 A 
ATOM     15  C   UNL     1      51.725   7.033  16.082  0.00  0.00    +0.000 A 
ATOM     16  C   UNL     1      51.854   7.520  17.389  0.00  0.00    +0.000 A 
ATOM     17  C   UNL     1      50.839   8.337  17.913  0.00  0.00    +0.000 A 
ENDBRANCH  10  16
ENDBRANCH   8  10
ENDBRANCH   7   8
ENDBRANCH   1   7
BRANCH   4  18
ATOM     18  C   UNL     1      47.231   3.469  17.327  0.00  0.00    +0.000 C 
BRANCH  18  19
ATOM     19  N   UNL     1      46.881   4.288  16.195  0.00  0.00    +0.000 N 
ATOM     20  C   UNL     1      47.161   3.909  14.906  0.00  0.00    +0.000 C 
ATOM     21  O   UNL     1      47.565   2.789  14.615  0.00  0.00    +0.000 OA
ATOM     22  H   UNL     1      46.626   5.250  16.384  0.00  0.00    +0.000 HD
BRANCH  20  23
ATOM     23  C   UNL     1      46.890   4.925  13.884  0.00  0.00    +0.000 A 
ATOM     24  C   UNL     1      47.405   6.204  13.997  0.00  0.00    +0.000 A 
ATOM     25  S   UNL     1      47.038   7.197  12.657  0.00  0.00    +0.000 S 
ATOM     26  C   UNL     1      46.125   5.963  11.927  0.00  0.00    +0.000 A 
ATOM     27  N   UNL     1      45.524   6.165  10.741  0.00  0.00    +0.000 NA
ATOM     28  C   UNL     1      44.823   5.104  10.328  0.00  0.00    +0.000 A 
ATOM     29  N   UNL     1      44.659   3.937  10.965  0.00  0.00    +0.000 NA
ATOM     30  C   UNL     1      45.285   3.802  12.137  0.00  0.00    +0.000 A 
ATOM     31  C   UNL     1      46.084   4.802  12.685  0.00  0.00    +0.000 A 
BRANCH  30  32
ATOM     32  O   UNL     1      45.079   2.595  12.738  0.00  0.00    +0.000 OA
ATOM     33  H   UNL     1      45.182   1.991  11.980  0.00  0.00    +0.000 HD
ENDBRANCH  30  32
ENDBRANCH  20  23
ENDBRANCH  18  19
ENDBRANCH   4  18
TORSDOF 8
ENDMDL
MODEL 6
REMARK VINA RESULT:    -5.974      2.216      3.273
REMARK INTER + INTRA:         -10.553
REMARK INTER:                  -8.541
REMARK INTRA:                  -2.012
REMARK UNBOUND:                -1.960
REMARK  Name = 
REMARK  10 active torsions:
REMARK  status: ('A' for Active; 'I' for Inactive)
REMARK    1  A    between atoms: C_1  and  C_2
REMARK    2  A    between atoms: C_6  and  C_7
REMARK    3  A    between atoms: C_7  and  N_8
REMARK    4  A    between atoms: N_8  and  C_9
REMARK    5  A    between atoms: N_8  and  C_10
REMARK    6  A    between atoms: C_10  and  C_11
REMARK    7  A    between atoms: C_14  and  C_15
REMARK    8  A    between atoms: C_15  and  N_16
REMARK    9  A    between atoms: C_17  and  C_19
REMARK   10  A    between atoms: C_26  and  O_27
REMARK                            x       y       z     vdW  Elec       q    Type
REMARK                         _______ _______ _______ _____ _____    ______ ____
ROOT
ATOM      1  C   UNL     1      50.427   7.913  18.146  0.00  0.00    +0.000 A 
ATOM      2  C   UNL     1      50.802   7.701  16.811  0.00  0.00    +0.000 A 
ATOM      3  C   UNL     1      50.024   8.197  15.764  0.00  0.00    +0.000 A 
ATOM      4  C   UNL     1      48.851   8.922  16.020  0.00  0.00    +0.000 A 
ATOM      5  C   UNL     1      48.475   9.133  17.351  0.00  0.00    +0.000 A 
ATOM      6  C   UNL     1      49.255   8.638  18.402  0.00  0.00    +0.000 A 
ENDROOT
BRANCH   1   7
ATOM      7  C   UNL     1      51.251   7.338  19.283  0.00  0.00    +0.000 C 
BRANCH   7   8
ATOM      8  N   UNL     1      50.783   6.024  19.765  0.00  0.00    +0.000 NA
ATOM      9  C   UNL     1      50.933   5.961  21.225  0.00  0.00    +0.000 C 
BRANCH   8  10
ATOM     10  C   UNL     1      51.535   4.931  19.115  0.00  0.00    +0.000 C 
BRANCH  10  16
ATOM     11  C   UNL     1      47.030   3.674  17.229  0.00  0.00    +0.000 C 
ATOM     12  C   UNL     1      48.496   3.391  17.369  0.00  0.00    +0.000 A 
ATOM     13  C   UNL     1      49.081   2.284  16.743  0.00  0.00    +0.000 A 
ATOM     14  C   UNL     1      50.440   2.016  16.909  0.00  0.00    +0.000 A 
ATOM     15  C   UNL     1      51.230   2.858  17.692  0.00  0.00    +0.000 A 
ATOM     16  C   UNL     1      50.669   3.982  18.312  0.00  0.00    +0.000 A 
ATOM     17  C   UNL     1      49.298   4.237  18.145  0.00  0.00    +0.000 A 
ENDBRANCH  10  16
ENDBRANCH   8  10
ENDBRANCH   7   8
ENDBRANCH   1   7
BRANCH   4  18
ATOM     18  C   UNL     1      47.987   9.416  14.885  0.00  0.00    +0.000 C 
BRANCH  18  19
ATOM     19  N   UNL     1      47.229   8.337  14.306  0.00  0.00    +0.000 N 
ATOM     20  C   UNL     1      46.995   8.252  12.956  0.00  0.00    +0.000 C 
ATOM     21  O   UNL     1      47.550   8.976  12.138  0.00  0.00    +0.000 OA
ATOM     22  H   UNL     1      46.683   7.766  14.940  0.00  0.00    +0.000 HD
BRANCH  20  23
ATOM     23  C   UNL     1      46.071   7.189  12.549  0.00  0.00    +0.000 A 
ATOM     24  C   UNL     1      44.933   7.477  11.815  0.00  0.00    +0.000 A 
ATOM     25  S   UNL     1      44.047   6.084  11.376  0.00  0.00    +0.000 S 
ATOM     26  C   UNL     1      45.125   5.070  12.213  0.00  0.00    +0.000 A 
ATOM     27  N   UNL     1      44.936   3.739  12.237  0.00  0.00    +0.000 NA
ATOM     28  C   UNL     1      45.856   3.098  12.965  0.00  0.00    +0.000 A 
ATOM     29  N   UNL     1      46.875   3.636  13.648  0.00  0.00    +0.000 NA
ATOM     30  C   UNL     1      47.008   4.963  13.578  0.00  0.00    +0.000 A 
ATOM     31  C   UNL     1      46.152   5.769  12.831  0.00  0.00    +0.000 A 
BRANCH  30  32
ATOM     32  O   UNL     1      48.060   5.452  14.296  0.00  0.00    +0.000 OA
ATOM     33  H   UNL     1      47.594   5.957  14.987  0.00  0.00    +0.000 HD
ENDBRANCH  30  32
ENDBRANCH  20  23
ENDBRANCH  18  19
ENDBRANCH   4  18
TORSDOF 8
ENDMDL
MODEL 7
REMARK VINA RESULT:    -5.900      1.794      2.732
REMARK INTER + INTRA:         -10.447
REMARK INTER:                  -9.087
REMARK INTRA:                  -1.360
REMARK UNBOUND:                -1.960
REMARK  Name = 
REMARK  10 active torsions:
REMARK  status: ('A' for Active; 'I' for Inactive)
REMARK    1  A    between atoms: C_1  and  C_2
REMARK    2  A    between atoms: C_6  and  C_7
REMARK    3  A    between atoms: C_7  and  N_8
REMARK    4  A    between atoms: N_8  and  C_9
REMARK    5  A    between atoms: N_8  and  C_10
REMARK    6  A    between atoms: C_10  and  C_11
REMARK    7  A    between atoms: C_14  and  C_15
REMARK    8  A    between atoms: C_15  and  N_16
REMARK    9  A    between atoms: C_17  and  C_19
REMARK   10  A    between atoms: C_26  and  O_27
REMARK                            x       y       z     vdW  Elec       q    Type
REMARK                         _______ _______ _______ _____ _____    ______ ____
ROOT
ATOM      1  C   UNL     1      50.063   7.743  15.486  0.00  0.00    +0.000 A 
ATOM      2  C   UNL     1      48.844   7.053  15.565  0.00  0.00    +0.000 A 
ATOM      3  C   UNL     1      47.786   7.373  14.713  0.00  0.00    +0.000 A 
ATOM      4  C   UNL     1      47.916   8.389  13.755  0.00  0.00    +0.000 A 
ATOM      5  C   UNL     1      49.131   9.079  13.676  0.00  0.00    +0.000 A 
ATOM      6  C   UNL     1      50.194   8.757  14.528  0.00  0.00    +0.000 A 
ENDROOT
BRANCH   1   7
ATOM      7  C   UNL     1      51.198   7.421  16.441  0.00  0.00    +0.000 C 
BRANCH   7   8
ATOM      8  N   UNL     1      50.758   7.029  17.793  0.00  0.00    +0.000 NA
ATOM      9  C   UNL     1      50.988   8.145  18.721  0.00  0.00    +0.000 C 
BRANCH   8  10
ATOM     10  C   UNL     1      51.474   5.819  18.246  0.00  0.00    +0.000 C 
BRANCH  10  16
ATOM     11  C   UNL     1      47.256   3.225  17.292  0.00  0.00    +0.000 C 
ATOM     12  C   UNL     1      48.753   3.274  17.365  0.00  0.00    +0.000 A 
ATOM     13  C   UNL     1      49.528   2.152  17.053  0.00  0.00    +0.000 A 
ATOM     14  C   UNL     1      50.918   2.204  17.157  0.00  0.00    +0.000 A 
ATOM     15  C   UNL     1      51.548   3.381  17.562  0.00  0.00    +0.000 A 
ATOM     16  C   UNL     1      50.792   4.522  17.861  0.00  0.00    +0.000 A 
ATOM     17  C   UNL     1      49.392   4.455  17.761  0.00  0.00    +0.000 A 
ENDBRANCH  10  16
ENDBRANCH   8  10
ENDBRANCH   7   8
ENDBRANCH   1   7
BRANCH   4  18
ATOM     18  C   UNL     1      46.755   8.765  12.868  0.00  0.00    +0.000 C 
BRANCH  18  19
ATOM     19  N   UNL     1      46.123   7.591  12.320  0.00  0.00    +0.000 N 
ATOM     20  C   UNL     1      46.757   6.778  11.414  0.00  0.00    +0.000 C 
ATOM     21  O   UNL     1      47.947   6.886  11.141  0.00  0.00    +0.000 OA
ATOM     22  H   UNL     1      45.122   7.506  12.446  0.00  0.00    +0.000 HD
BRANCH  20  23
ATOM     23  C   UNL     1      45.921   5.723  10.831  0.00  0.00    +0.000 A 
ATOM     24  C   UNL     1      45.873   5.528   9.462  0.00  0.00    +0.000 A 
ATOM     25  S   UNL     1      44.908   4.195   9.007  0.00  0.00    +0.000 S 
ATOM     26  C   UNL     1      44.477   3.889  10.623  0.00  0.00    +0.000 A 
ATOM     27  N   UNL     1      43.656   2.870  10.932  0.00  0.00    +0.000 NA
ATOM     28  C   UNL     1      43.396   2.793  12.241  0.00  0.00    +0.000 A 
ATOM     29  N   UNL     1      43.840   3.606  13.210  0.00  0.00    +0.000 NA
ATOM     30  C   UNL     1      44.654   4.595  12.834  0.00  0.00    +0.000 A 
ATOM     31  C   UNL     1      45.049   4.787  11.513  0.00  0.00    +0.000 A 
BRANCH  30  32
ATOM     32  O   UNL     1      45.070   5.390  13.862  0.00  0.00    +0.000 OA
ATOM     33  H   UNL     1      45.354   6.186  13.377  0.00  0.00    +0.000 HD
ENDBRANCH  30  32
ENDBRANCH  20  23
ENDBRANCH  18  19
ENDBRANCH   4  18
TORSDOF 8
ENDMDL
MODEL 8
REMARK VINA RESULT:    -5.801      3.530      8.019
REMARK INTER + INTRA:         -10.304
REMARK INTER:                  -8.655
REMARK INTRA:                  -1.649
REMARK UNBOUND:                -1.960
REMARK  Name = 
REMARK  10 active torsions:
REMARK  status: ('A' for Active; 'I' for Inactive)
REMARK    1  A    between atoms: C_1  and  C_2
REMARK    2  A    between atoms: C_6  and  C_7
REMARK    3  A    between atoms: C_7  and  N_8
REMARK    4  A    between atoms: N_8  and  C_9
REMARK    5  A    between atoms: N_8  and  C_10
REMARK    6  A    between atoms: C_10  and  C_11
REMARK    7  A    between atoms: C_14  and  C_15
REMARK    8  A    between atoms: C_15  and  N_16
REMARK    9  A    between atoms: C_17  and  C_19
REMARK   10  A    between atoms: C_26  and  O_27
REMARK                            x       y       z     vdW  Elec       q    Type
REMARK                         _______ _______ _______ _____ _____    ______ ____
ROOT
ATOM      1  C   UNL     1      45.119   9.351  11.713  0.00  0.00    +0.000 A 
ATOM      2  C   UNL     1      44.412   8.270  11.167  0.00  0.00    +0.000 A 
ATOM      3  C   UNL     1      44.601   6.976  11.652  0.00  0.00    +0.000 A 
ATOM      4  C   UNL     1      45.500   6.723  12.699  0.00  0.00    +0.000 A 
ATOM      5  C   UNL     1      46.207   7.801  13.244  0.00  0.00    +0.000 A 
ATOM      6  C   UNL     1      46.017   9.101  12.759  0.00  0.00    +0.000 A 
ENDROOT
BRANCH   1   7
ATOM      7  C   UNL     1      44.943  10.752  11.156  0.00  0.00    +0.000 C 
BRANCH   7   8
ATOM      8  N   UNL     1      46.041  11.679  11.491  0.00  0.00    +0.000 NA
ATOM      9  C   UNL     1      45.482  12.904  12.077  0.00  0.00    +0.000 C 
BRANCH   8  10
ATOM     10  C   UNL     1      46.843  11.994  10.291  0.00  0.00    +0.000 C 
BRANCH  10  16
ATOM     11  C   UNL     1      50.416   9.139  12.417  0.00  0.00    +0.000 C 
ATOM     12  C   UNL     1      50.019  10.165  11.397  0.00  0.00    +0.000 A 
ATOM     13  C   UNL     1      50.961  10.712  10.519  0.00  0.00    +0.000 A 
ATOM     14  C   UNL     1      50.583  11.687   9.597  0.00  0.00    +0.000 A 
ATOM     15  C   UNL     1      49.258  12.119   9.536  0.00  0.00    +0.000 A 
ATOM     16  C   UNL     1      48.295  11.572  10.393  0.00  0.00    +0.000 A 
ATOM     17  C   UNL     1      48.689  10.595  11.323  0.00  0.00    +0.000 A 
ENDBRANCH  10  16
ENDBRANCH   8  10
ENDBRANCH   7   8
ENDBRANCH   1   7
BRANCH   4  18
ATOM     18  C   UNL     1      45.737   5.317  13.189  0.00  0.00    +0.000 C 
BRANCH  18  19
ATOM     19  N   UNL     1      46.494   5.317  14.415  0.00  0.00    +0.000 N 
ATOM     20  C   UNL     1      47.138   4.196  14.876  0.00  0.00    +0.000 C 
ATOM     21  O   UNL     1      47.262   3.177  14.205  0.00  0.00    +0.000 OA
ATOM     22  H   UNL     1      46.354   6.100  15.042  0.00  0.00    +0.000 HD
BRANCH  20  23
ATOM     23  C   UNL     1      47.723   4.318  16.215  0.00  0.00    +0.000 A 
ATOM     24  C   UNL     1      47.302   3.504  17.252  0.00  0.00    +0.000 A 
ATOM     25  S   UNL     1      48.175   3.756  18.699  0.00  0.00    +0.000 S 
ATOM     26  C   UNL     1      49.088   5.004  17.992  0.00  0.00    +0.000 A 
ATOM     27  N   UNL     1      50.027   5.653  18.703  0.00  0.00    +0.000 NA
ATOM     28  C   UNL     1      50.625   6.624  18.006  0.00  0.00    +0.000 A 
ATOM     29  N   UNL     1      50.372   6.997  16.744  0.00  0.00    +0.000 NA
ATOM     30  C   UNL     1      49.430   6.308  16.094  0.00  0.00    +0.000 A 
ATOM     31  C   UNL     1      48.741   5.244  16.671  0.00  0.00    +0.000 A 
BRANCH  30  32
ATOM     32  O   UNL     1      49.215   6.735  14.817  0.00  0.00    +0.000 OA
ATOM     33  H   UNL     1      49.203   5.887  14.338  0.00  0.00    +0.000 HD
ENDBRANCH  30  32
ENDBRANCH  20  23
ENDBRANCH  18  19
ENDBRANCH   4  18
TORSDOF 8
ENDMDL
MODEL 9
REMARK VINA RESULT:    -5.495      4.046      7.627
REMARK INTER + INTRA:          -9.864
REMARK INTER:                  -8.457
REMARK INTRA:                  -1.407
REMARK UNBOUND:                -1.960
REMARK  Name = 
REMARK  10 active torsions:
REMARK  status: ('A' for Active; 'I' for Inactive)
REMARK    1  A    between atoms: C_1  and  C_2
REMARK    2  A    between atoms: C_6  and  C_7
REMARK    3  A    between atoms: C_7  and  N_8
REMARK    4  A    between atoms: N_8  and  C_9
REMARK    5  A    between atoms: N_8  and  C_10
REMARK    6  A    between atoms: C_10  and  C_11
REMARK    7  A    between atoms: C_14  and  C_15
REMARK    8  A    between atoms: C_15  and  N_16
REMARK    9  A    between atoms: C_17  and  C_19
REMARK   10  A    between atoms: C_26  and  O_27
REMARK                            x       y       z     vdW  Elec       q    Type
REMARK                         _______ _______ _______ _____ _____    ______ ____
ROOT
ATOM      1  C   UNL     1      49.948   9.691  11.921  0.00  0.00    +0.000 A 
ATOM      2  C   UNL     1      48.919  10.643  11.911  0.00  0.00    +0.000 A 
ATOM      3  C   UNL     1      47.625  10.300  12.304  0.00  0.00    +0.000 A 
ATOM      4  C   UNL     1      47.321   8.995  12.721  0.00  0.00    +0.000 A 
ATOM      5  C   UNL     1      48.347   8.044  12.730  0.00  0.00    +0.000 A 
ATOM      6  C   UNL     1      49.647   8.387  12.339  0.00  0.00    +0.000 A 
ENDROOT
BRANCH   1   7
ATOM      7  C   UNL     1      51.346  10.055  11.455  0.00  0.00    +0.000 C 
BRANCH   7   8
ATOM      8  N   UNL     1      51.507  10.077   9.988  0.00  0.00    +0.000 NA
ATOM      9  C   UNL     1      52.660   9.248   9.614  0.00  0.00    +0.000 C 
BRANCH   8  10
ATOM     10  C   UNL     1      51.681  11.462   9.502  0.00  0.00    +0.000 C 
BRANCH  10  16
ATOM     11  C   UNL     1      50.393  12.075   4.665  0.00  0.00    +0.000 C 
ATOM     12  C   UNL     1      50.026  12.144   6.118  0.00  0.00    +0.000 A 
ATOM     13  C   UNL     1      48.752  12.557   6.523  0.00  0.00    +0.000 A 
ATOM     14  C   UNL     1      48.437  12.645   7.879  0.00  0.00    +0.000 A 
ATOM     15  C   UNL     1      49.388  12.313   8.843  0.00  0.00    +0.000 A 
ATOM     16  C   UNL     1      50.664  11.880   8.460  0.00  0.00    +0.000 A 
ATOM     17  C   UNL     1      50.973  11.802   7.092  0.00  0.00    +0.000 A 
ENDBRANCH  10  16
ENDBRANCH   8  10
ENDBRANCH   7   8
ENDBRANCH   1   7
BRANCH   4  18
ATOM     18  C   UNL     1      45.911   8.616  13.099  0.00  0.00    +0.000 C 
BRANCH  18  19
ATOM     19  N   UNL     1      45.641   7.240  12.769  0.00  0.00    +0.000 N 
ATOM     20  C   UNL     1      44.800   6.887  11.743  0.00  0.00    +0.000 C 
ATOM     21  O   UNL     1      44.363   7.697  10.934  0.00  0.00    +0.000 OA
ATOM     22  H   UNL     1      45.906   6.542  13.453  0.00  0.00    +0.000 HD
BRANCH  20  23
ATOM     23  C   UNL     1      44.503   5.455  11.644  0.00  0.00    +0.000 A 
ATOM     24  C   UNL     1      43.957   4.765  12.713  0.00  0.00    +0.000 A 
ATOM     25  S   UNL     1      43.612   3.132  12.353  0.00  0.00    +0.000 S 
ATOM     26  C   UNL     1      44.246   3.290  10.783  0.00  0.00    +0.000 A 
ATOM     27  N   UNL     1      44.257   2.243   9.939  0.00  0.00    +0.000 NA
ATOM     28  C   UNL     1      44.819   2.532   8.761  0.00  0.00    +0.000 A 
ATOM     29  N   UNL     1      45.358   3.698   8.379  0.00  0.00    +0.000 NA
ATOM     30  C   UNL     1      45.310   4.697   9.264  0.00  0.00    +0.000 A 
ATOM     31  C   UNL     1      44.725   4.565  10.521  0.00  0.00    +0.000 A 
BRANCH  30  32
ATOM     32  O   UNL     1      45.877   5.856   8.820  0.00  0.00    +0.000 OA
ATOM     33  H   UNL     1      45.547   5.883   7.903  0.00  0.00    +0.000 HD
ENDBRANCH  30  32
ENDBRANCH  20  23
ENDBRANCH  18  19
ENDBRANCH   4  18
TORSDOF 8
ENDMDL
