MODEL 1
REMARK VINA RESULT:    -7.618      0.000      0.000
REMARK INTER + INTRA:         -12.463
REMARK INTER:                 -10.958
REMARK INTRA:                  -1.504
REMARK UNBOUND:                -1.504
REMARK  Name = 
REMARK  8 active torsions:
REMARK  status: ('A' for Active; 'I' for Inactive)
REMARK    1  A    between atoms: C_2  and  C_21
REMARK    2  A    between atoms: N_3  and  CA_4
REMARK    3  A    between atoms: CA_4  and  C_5
REMARK    4  A    between atoms: CA_4  and  C_7
REMARK    5  A    between atoms: C_5  and  O_6
REMARK    6  A    between atoms: C_11  and  C_12
REMARK    7  A    between atoms: C_12  and  O_13
REMARK    8  A    between atoms: O_13  and  C_14
REMARK                            x       y       z     vdW  Elec       q    Type
REMARK                         _______ _______ _______ _____ _____    ______ ____
ROOT
ATOM      1  CA  UNL     1      47.393   5.013  14.254  0.00  0.00    +0.000 C 
ENDROOT
BRANCH   1   2
ATOM      2  C   UNL     1      46.387   5.638  13.310  0.00  0.00    +0.000 A 
ATOM      3  C   UNL     1      46.413   7.003  12.980  0.00  0.00    +0.000 A 
ATOM      4  C   UNL     1      45.514   7.538  12.061  0.00  0.00    +0.000 A 
ATOM      5  C   UNL     1      44.579   6.711  11.450  0.00  0.00    +0.000 A 
ATOM      6  C   UNL     1      44.543   5.344  11.750  0.00  0.00    +0.000 A 
ATOM      7  C   UNL     1      45.424   4.821  12.705  0.00  0.00    +0.000 A 
BRANCH   6   8
ATOM      8  C   UNL     1      43.583   4.437  11.028  0.00  0.00    +0.000 C 
BRANCH   8   9
ATOM      9  O   UNL     1      43.659   4.711   9.637  0.00  0.00    +0.000 OA
BRANCH   9  10
ATOM     10  C   UNL     1      44.559   3.862   9.031  0.00  0.00    +0.000 A 
ATOM     11  N   UNL     1      45.365   4.437   8.130  0.00  0.00    +0.000 NA
ATOM     12  C   UNL     1      46.242   3.615   7.524  0.00  0.00    +0.000 A 
ATOM     13  C   UNL     1      46.344   2.270   7.796  0.00  0.00    +0.000 A 
ATOM     14  C   UNL     1      45.480   1.794   8.750  0.00  0.00    +0.000 A 
ATOM     15  N   UNL     1      44.577   2.564   9.380  0.00  0.00    +0.000 NA
ENDBRANCH   9  10
ENDBRANCH   8   9
ENDBRANCH   6   8
ENDBRANCH   1   2
BRANCH   1  18
ATOM     16  O   UNL     1      49.800   6.122  15.450  0.00  0.00    +0.000 OA
ATOM     17  C   UNL     1      48.709   6.250  15.987  0.00  0.00    +0.000 C 
ATOM     18  N   UNL     1      47.520   5.782  15.474  0.00  0.00    +0.000 N 
ATOM     19  H   UNL     1      46.681   5.827  16.032  0.00  0.00    +0.000 HD
BRANCH  17  20
ATOM     20  C   UNL     1      48.513   6.696  17.358  0.00  0.00    +0.000 A 
ATOM     21  C   UNL     1      48.560   8.029  17.717  0.00  0.00    +0.000 A 
ATOM     22  S   UNL     1      48.969   8.210  19.376  0.00  0.00    +0.000 S 
ATOM     23  C   UNL     1      48.911   6.524  19.634  0.00  0.00    +0.000 A 
ATOM     24  N   UNL     1      49.310   5.943  20.796  0.00  0.00    +0.000 NA
ATOM     25  C   UNL     1      49.141   4.661  20.834  0.00  0.00    +0.000 A 
ATOM     26  N   UNL     1      48.555   3.914  19.841  0.00  0.00    +0.000 N 
ATOM     27  C   UNL     1      48.131   4.458  18.654  0.00  0.00    +0.000 A 
ATOM     28  O   UNL     1      47.547   3.791  17.809  0.00  0.00    +0.000 OA
ATOM     29  C   UNL     1      48.430   5.868  18.523  0.00  0.00    +0.000 A 
ATOM     30  H   UNL     1      48.366   2.931  19.971  0.00  0.00    +0.000 HD
ENDBRANCH  17  20
ENDBRANCH   1  18
BRANCH   1  31
ATOM     31  C   UNL     1      47.021   3.562  14.640  0.00  0.00    +0.000 C 
BRANCH  31  32
ATOM     32  O   UNL     1      48.141   2.872  15.215  0.00  0.00    +0.000 OA
ATOM     33  H   UNL     1      48.939   3.361  14.938  0.00  0.00    +0.000 HD
ENDBRANCH  31  32
ENDBRANCH   1  31
TORSDOF 8
ENDMDL
MODEL 2
REMARK VINA RESULT:    -7.183      2.158      2.575
REMARK INTER + INTRA:         -11.837
REMARK INTER:                 -10.318
REMARK INTRA:                  -1.519
REMARK UNBOUND:                -1.504
REMARK  Name = 
REMARK  8 active torsions:
REMARK  status: ('A' for Active; 'I' for Inactive)
REMARK    1  A    between atoms: C_2  and  C_21
REMARK    2  A    between atoms: N_3  and  CA_4
REMARK    3  A    between atoms: CA_4  and  C_5
REMARK    4  A    between atoms: CA_4  and  C_7
REMARK    5  A    between atoms: C_5  and  O_6
REMARK    6  A    between atoms: C_11  and  C_12
REMARK    7  A    between atoms: C_12  and  O_13
REMARK    8  A    between atoms: O_13  and  C_14
REMARK                            x       y       z     vdW  Elec       q    Type
REMARK                         _______ _______ _______ _____ _____    ______ ____
ROOT
ATOM      1  CA  UNL     1      46.962   4.700  13.353  0.00  0.00    +0.000 C 
ENDROOT
BRANCH   1   2
ATOM      2  C   UNL     1      45.617   4.782  12.662  0.00  0.00    +0.000 A 
ATOM      3  C   UNL     1      44.486   5.338  13.284  0.00  0.00    +0.000 A 
ATOM      4  C   UNL     1      43.277   5.456  12.604  0.00  0.00    +0.000 A 
ATOM      5  C   UNL     1      43.183   5.028  11.285  0.00  0.00    +0.000 A 
ATOM      6  C   UNL     1      44.299   4.484  10.639  0.00  0.00    +0.000 A 
ATOM      7  C   UNL     1      45.500   4.331  11.342  0.00  0.00    +0.000 A 
BRANCH   6   8
ATOM      8  C   UNL     1      44.216   4.094   9.187  0.00  0.00    +0.000 C 
BRANCH   8   9
ATOM      9  O   UNL     1      44.383   2.687   9.086  0.00  0.00    +0.000 OA
BRANCH   9  10
ATOM     10  C   UNL     1      45.496   2.389   8.332  0.00  0.00    +0.000 A 
ATOM     11  N   UNL     1      45.996   3.411   7.627  0.00  0.00    +0.000 NA
ATOM     12  C   UNL     1      47.079   3.130   6.879  0.00  0.00    +0.000 A 
ATOM     13  C   UNL     1      47.671   1.889   6.826  0.00  0.00    +0.000 A 
ATOM     14  C   UNL     1      47.083   0.921   7.602  0.00  0.00    +0.000 A 
ATOM     15  N   UNL     1      45.996   1.142   8.362  0.00  0.00    +0.000 NA
ENDBRANCH   9  10
ENDBRANCH   8   9
ENDBRANCH   6   8
ENDBRANCH   1   2
BRANCH   1  18
ATOM     16  O   UNL     1      49.150   6.572  12.958  0.00  0.00    +0.000 OA
ATOM     17  C   UNL     1      48.333   6.734  13.852  0.00  0.00    +0.000 C 
ATOM     18  N   UNL     1      47.253   5.912  14.088  0.00  0.00    +0.000 N 
ATOM     19  H   UNL     1      46.691   6.048  14.914  0.00  0.00    +0.000 HD
BRANCH  17  20
ATOM     20  C   UNL     1      48.493   7.666  14.956  0.00  0.00    +0.000 A 
ATOM     21  C   UNL     1      48.070   8.980  14.884  0.00  0.00    +0.000 A 
ATOM     22  S   UNL     1      48.948   9.975  15.975  0.00  0.00    +0.000 S 
ATOM     23  C   UNL     1      49.754   8.628  16.646  0.00  0.00    +0.000 A 
ATOM     24  N   UNL     1      50.778   8.749  17.532  0.00  0.00    +0.000 NA
ATOM     25  C   UNL     1      51.229   7.622  17.978  0.00  0.00    +0.000 A 
ATOM     26  N   UNL     1      50.714   6.388  17.666  0.00  0.00    +0.000 N 
ATOM     27  C   UNL     1      49.677   6.217  16.782  0.00  0.00    +0.000 A 
ATOM     28  O   UNL     1      49.183   5.117  16.569  0.00  0.00    +0.000 OA
ATOM     29  C   UNL     1      49.238   7.448  16.160  0.00  0.00    +0.000 A 
ATOM     30  H   UNL     1      51.050   5.552  18.122  0.00  0.00    +0.000 HD
ENDBRANCH  17  20
ENDBRANCH   1  18
BRANCH   1  31
ATOM     31  C   UNL     1      47.050   3.511  14.338  0.00  0.00    +0.000 C 
BRANCH  31  32
ATOM     32  O   UNL     1      46.741   3.921  15.679  0.00  0.00    +0.000 OA
ATOM     33  H   UNL     1      46.038   4.594  15.608  0.00  0.00    +0.000 HD
ENDBRANCH  31  32
ENDBRANCH   1  31
TORSDOF 8
ENDMDL
MODEL 3
REMARK VINA RESULT:    -6.980      4.657      6.119
REMARK INTER + INTRA:         -11.544
REMARK INTER:                 -10.035
REMARK INTRA:                  -1.510
REMARK UNBOUND:                -1.504
REMARK  Name = 
REMARK  8 active torsions:
REMARK  status: ('A' for Active; 'I' for Inactive)
REMARK    1  A    between atoms: C_2  and  C_21
REMARK    2  A    between atoms: N_3  and  CA_4
REMARK    3  A    between atoms: CA_4  and  C_5
REMARK    4  A    between atoms: CA_4  and  C_7
REMARK    5  A    between atoms: C_5  and  O_6
REMARK    6  A    between atoms: C_11  and  C_12
REMARK    7  A    between atoms: C_12  and  O_13
REMARK    8  A    between atoms: O_13  and  C_14
REMARK                            x       y       z     vdW  Elec       q    Type
REMARK                         _______ _______ _______ _____ _____    ______ ____
ROOT
ATOM      1  CA  UNL     1      45.629   7.144  12.391  0.00  0.00    +0.000 C 
ENDROOT
BRANCH   1   2
ATOM      2  C   UNL     1      45.197   5.767  11.930  0.00  0.00    +0.000 A 
ATOM      3  C   UNL     1      44.754   4.780  12.827  0.00  0.00    +0.000 A 
ATOM      4  C   UNL     1      44.304   3.545  12.371  0.00  0.00    +0.000 A 
ATOM      5  C   UNL     1      44.282   3.279  11.007  0.00  0.00    +0.000 A 
ATOM      6  C   UNL     1      44.704   4.251  10.092  0.00  0.00    +0.000 A 
ATOM      7  C   UNL     1      45.193   5.477  10.561  0.00  0.00    +0.000 A 
BRANCH   6   8
ATOM      8  C   UNL     1      44.604   3.991   8.613  0.00  0.00    +0.000 C 
BRANCH   8   9
ATOM      9  O   UNL     1      45.822   4.390   8.000  0.00  0.00    +0.000 OA
BRANCH   9  10
ATOM     10  C   UNL     1      46.370   3.340   7.298  0.00  0.00    +0.000 A 
ATOM     11  N   UNL     1      46.664   3.601   6.019  0.00  0.00    +0.000 NA
ATOM     12  C   UNL     1      47.191   2.579   5.320  0.00  0.00    +0.000 A 
ATOM     13  C   UNL     1      47.441   1.336   5.854  0.00  0.00    +0.000 A 
ATOM     14  C   UNL     1      47.117   1.187   7.180  0.00  0.00    +0.000 A 
ATOM     15  N   UNL     1      46.580   2.168   7.924  0.00  0.00    +0.000 NA
ENDBRANCH   9  10
ENDBRANCH   8   9
ENDBRANCH   6   8
ENDBRANCH   1   2
BRANCH   1  18
ATOM     16  O   UNL     1      48.048   7.715  13.896  0.00  0.00    +0.000 OA
ATOM     17  C   UNL     1      48.037   7.765  12.674  0.00  0.00    +0.000 C 
ATOM     18  N   UNL     1      46.943   7.481  11.887  0.00  0.00    +0.000 N 
ATOM     19  H   UNL     1      46.981   7.657  10.895  0.00  0.00    +0.000 HD
BRANCH  17  20
ATOM     20  C   UNL     1      49.086   8.361  11.863  0.00  0.00    +0.000 A 
ATOM     21  C   UNL     1      50.201   7.652  11.457  0.00  0.00    +0.000 A 
ATOM     22  S   UNL     1      51.520   8.704  11.134  0.00  0.00    +0.000 S 
ATOM     23  C   UNL     1      50.551  10.088  11.372  0.00  0.00    +0.000 A 
ATOM     24  N   UNL     1      51.062  11.347  11.410  0.00  0.00    +0.000 NA
ATOM     25  C   UNL     1      50.171  12.277  11.540  0.00  0.00    +0.000 A 
ATOM     26  N   UNL     1      48.814  12.070  11.577  0.00  0.00    +0.000 N 
ATOM     27  C   UNL     1      48.253  10.817  11.535  0.00  0.00    +0.000 A 
ATOM     28  O   UNL     1      47.040  10.653  11.498  0.00  0.00    +0.000 OA
ATOM     29  C   UNL     1      49.226   9.746  11.527  0.00  0.00    +0.000 A 
ATOM     30  H   UNL     1      48.168  12.845  11.585  0.00  0.00    +0.000 HD
ENDBRANCH  17  20
ENDBRANCH   1  18
BRANCH   1  31
ATOM     31  C   UNL     1      44.646   8.252  11.943  0.00  0.00    +0.000 C 
BRANCH  31  32
ATOM     32  O   UNL     1      44.743   9.408  12.789  0.00  0.00    +0.000 OA
ATOM     33  H   UNL     1      45.682   9.673  12.789  0.00  0.00    +0.000 HD
ENDBRANCH  31  32
ENDBRANCH   1  31
TORSDOF 8
ENDMDL
MODEL 4
REMARK VINA RESULT:    -6.927      4.549      6.720
REMARK INTER + INTRA:         -11.469
REMARK INTER:                 -10.478
REMARK INTRA:                  -0.991
REMARK UNBOUND:                -1.504
REMARK  Name = 
REMARK  8 active torsions:
REMARK  status: ('A' for Active; 'I' for Inactive)
REMARK    1  A    between atoms: C_2  and  C_21
REMARK    2  A    between atoms: N_3  and  CA_4
REMARK    3  A    between atoms: CA_4  and  C_5
REMARK    4  A    between atoms: CA_4  and  C_7
REMARK    5  A    between atoms: C_5  and  O_6
REMARK    6  A    between atoms: C_11  and  C_12
REMARK    7  A    between atoms: C_12  and  O_13
REMARK    8  A    between atoms: O_13  and  C_14
REMARK                            x       y       z     vdW  Elec       q    Type
REMARK                         _______ _______ _______ _____ _____    ______ ____
ROOT
ATOM      1  CA  UNL     1      47.614   7.316  11.984  0.00  0.00    +0.000 C 
ENDROOT
BRANCH   1   2
ATOM      2  C   UNL     1      46.636   6.163  12.082  0.00  0.00    +0.000 A 
ATOM      3  C   UNL     1      46.353   5.519  13.297  0.00  0.00    +0.000 A 
ATOM      4  C   UNL     1      45.404   4.503  13.369  0.00  0.00    +0.000 A 
ATOM      5  C   UNL     1      44.715   4.121  12.224  0.00  0.00    +0.000 A 
ATOM      6  C   UNL     1      44.968   4.758  11.003  0.00  0.00    +0.000 A 
ATOM      7  C   UNL     1      45.953   5.751  10.931  0.00  0.00    +0.000 A 
BRANCH   6   8
ATOM      8  C   UNL     1      44.164   4.398   9.782  0.00  0.00    +0.000 C 
BRANCH   8   9
ATOM      9  O   UNL     1      44.325   3.010   9.527  0.00  0.00    +0.000 OA
BRANCH   9  10
ATOM     10  C   UNL     1      45.300   2.807   8.577  0.00  0.00    +0.000 A 
ATOM     11  N   UNL     1      45.867   1.595   8.592  0.00  0.00    +0.000 NA
ATOM     12  C   UNL     1      46.829   1.389   7.674  0.00  0.00    +0.000 A 
ATOM     13  C   UNL     1      47.223   2.332   6.753  0.00  0.00    +0.000 A 
ATOM     14  C   UNL     1      46.562   3.533   6.820  0.00  0.00    +0.000 A 
ATOM     15  N   UNL     1      45.600   3.799   7.720  0.00  0.00    +0.000 NA
ENDBRANCH   9  10
ENDBRANCH   8   9
ENDBRANCH   6   8
ENDBRANCH   1   2
BRANCH   1  18
ATOM     16  O   UNL     1      45.575   8.739  13.489  0.00  0.00    +0.000 OA
ATOM     17  C   UNL     1      45.961   9.149  12.404  0.00  0.00    +0.000 C 
ATOM     18  N   UNL     1      46.942   8.551  11.643  0.00  0.00    +0.000 N 
ATOM     19  H   UNL     1      47.123   8.884  10.708  0.00  0.00    +0.000 HD
BRANCH  17  20
ATOM     20  C   UNL     1      45.294  10.180  11.627  0.00  0.00    +0.000 A 
ATOM     21  C   UNL     1      45.876  11.407  11.370  0.00  0.00    +0.000 A 
ATOM     22  S   UNL     1      44.684  12.605  11.059  0.00  0.00    +0.000 S 
ATOM     23  C   UNL     1      43.428  11.450  11.101  0.00  0.00    +0.000 A 
ATOM     24  N   UNL     1      42.113  11.791  11.068  0.00  0.00    +0.000 NA
ATOM     25  C   UNL     1      41.304  10.781  11.049  0.00  0.00    +0.000 A 
ATOM     26  N   UNL     1      41.687   9.464  11.001  0.00  0.00    +0.000 N 
ATOM     27  C   UNL     1      43.003   9.072  11.024  0.00  0.00    +0.000 A 
ATOM     28  O   UNL     1      43.331   7.898  10.909  0.00  0.00    +0.000 OA
ATOM     29  C   UNL     1      43.932  10.171  11.183  0.00  0.00    +0.000 A 
ATOM     30  H   UNL     1      41.007   8.726  10.891  0.00  0.00    +0.000 HD
ENDBRANCH  17  20
ENDBRANCH   1  18
BRANCH   1  31
ATOM     31  C   UNL     1      48.393   7.543  13.301  0.00  0.00    +0.000 C 
BRANCH  31  32
ATOM     32  O   UNL     1      49.595   6.757  13.337  0.00  0.00    +0.000 OA
ATOM     33  H   UNL     1      50.183   7.119  12.647  0.00  0.00    +0.000 HD
ENDBRANCH  31  32
ENDBRANCH   1  31
TORSDOF 8
ENDMDL
MODEL 5
REMARK VINA RESULT:    -6.833      1.456      2.127
REMARK INTER + INTRA:         -11.333
REMARK INTER:                 -10.458
REMARK INTRA:                  -0.875
REMARK UNBOUND:                -1.504
REMARK  Name = 
REMARK  8 active torsions:
REMARK  status: ('A' for Active; 'I' for Inactive)
REMARK    1  A    between atoms: C_2  and  C_21
REMARK    2  A    between atoms: N_3  and  CA_4
REMARK    3  A    between atoms: CA_4  and  C_5
REMARK    4  A    between atoms: CA_4  and  C_7
REMARK    5  A    between atoms: C_5  and  O_6
REMARK    6  A    between atoms: C_11  and  C_12
REMARK    7  A    between atoms: C_12  and  O_13
REMARK    8  A    between atoms: O_13  and  C_14
REMARK                            x       y       z     vdW  Elec       q    Type
REMARK                         _______ _______ _______ _____ _____    ______ ____
ROOT
ATOM      1  CA  UNL     1      47.791   7.280  13.078  0.00  0.00    +0.000 C 
ENDROOT
BRANCH   1   2
ATOM      2  C   UNL     1      46.417   7.026  12.492  0.00  0.00    +0.000 A 
ATOM      3  C   UNL     1      45.501   8.063  12.248  0.00  0.00    +0.000 A 
ATOM      4  C   UNL     1      44.270   7.808  11.652  0.00  0.00    +0.000 A 
ATOM      5  C   UNL     1      43.938   6.511  11.280  0.00  0.00    +0.000 A 
ATOM      6  C   UNL     1      44.840   5.462  11.498  0.00  0.00    +0.000 A 
ATOM      7  C   UNL     1      46.061   5.720  12.136  0.00  0.00    +0.000 A 
BRANCH   6   8
ATOM      8  C   UNL     1      44.513   4.072  11.023  0.00  0.00    +0.000 C 
BRANCH   8   9
ATOM      9  O   UNL     1      44.126   4.138   9.658  0.00  0.00    +0.000 OA
BRANCH   9  10
ATOM     10  C   UNL     1      45.066   3.522   8.863  0.00  0.00    +0.000 A 
ATOM     11  N   UNL     1      45.741   4.336   8.043  0.00  0.00    +0.000 NA
ATOM     12  C   UNL     1      46.656   3.742   7.254  0.00  0.00    +0.000 A 
ATOM     13  C   UNL     1      46.920   2.392   7.271  0.00  0.00    +0.000 A 
ATOM     14  C   UNL     1      46.180   1.657   8.164  0.00  0.00    +0.000 A 
ATOM     15  N   UNL     1      45.247   2.194   8.969  0.00  0.00    +0.000 NA
ENDBRANCH   9  10
ENDBRANCH   8   9
ENDBRANCH   6   8
ENDBRANCH   1   2
BRANCH   1  18
ATOM     16  O   UNL     1      50.064   6.962  14.861  0.00  0.00    +0.000 OA
ATOM     17  C   UNL     1      48.918   6.942  15.287  0.00  0.00    +0.000 C 
ATOM     18  N   UNL     1      47.790   7.114  14.515  0.00  0.00    +0.000 N 
ATOM     19  H   UNL     1      46.878   6.970  14.922  0.00  0.00    +0.000 HD
BRANCH  17  20
ATOM     20  C   UNL     1      48.541   6.495  16.618  0.00  0.00    +0.000 A 
ATOM     21  C   UNL     1      48.800   7.243  17.751  0.00  0.00    +0.000 A 
ATOM     22  S   UNL     1      48.882   6.244  19.147  0.00  0.00    +0.000 S 
ATOM     23  C   UNL     1      48.406   4.866  18.260  0.00  0.00    +0.000 A 
ATOM     24  N   UNL     1      48.418   3.613  18.786  0.00  0.00    +0.000 NA
ATOM     25  C   UNL     1      47.969   2.699  17.987  0.00  0.00    +0.000 A 
ATOM     26  N   UNL     1      47.457   2.928  16.735  0.00  0.00    +0.000 N 
ATOM     27  C   UNL     1      47.419   4.178  16.165  0.00  0.00    +0.000 A 
ATOM     28  O   UNL     1      46.895   4.377  15.077  0.00  0.00    +0.000 OA
ATOM     29  C   UNL     1      48.038   5.204  16.978  0.00  0.00    +0.000 A 
ATOM     30  H   UNL     1      47.036   2.184  16.199  0.00  0.00    +0.000 HD
ENDBRANCH  17  20
ENDBRANCH   1  18
BRANCH   1  31
ATOM     31  C   UNL     1      48.869   6.340  12.488  0.00  0.00    +0.000 C 
BRANCH  31  32
ATOM     32  O   UNL     1      50.018   7.078  12.045  0.00  0.00    +0.000 OA
ATOM     33  H   UNL     1      49.727   7.612  11.282  0.00  0.00    +0.000 HD
ENDBRANCH  31  32
ENDBRANCH   1  31
TORSDOF 8
ENDMDL
MODEL 6
REMARK VINA RESULT:    -6.721      1.899      3.022
REMARK INTER + INTRA:         -11.173
REMARK INTER:                 -10.152
REMARK INTRA:                  -1.021
REMARK UNBOUND:                -1.504
REMARK  Name = 
REMARK  8 active torsions:
REMARK  status: ('A' for Active; 'I' for Inactive)
REMARK    1  A    between atoms: C_2  and  C_21
REMARK    2  A    between atoms: N_3  and  CA_4
REMARK    3  A    between atoms: CA_4  and  C_5
REMARK    4  A    between atoms: CA_4  and  C_7
REMARK    5  A    between atoms: C_5  and  O_6
REMARK    6  A    between atoms: C_11  and  C_12
REMARK    7  A    between atoms: C_12  and  O_13
REMARK    8  A    between atoms: O_13  and  C_14
REMARK                            x       y       z     vdW  Elec       q    Type
REMARK                         _______ _______ _______ _____ _____    ______ ____
ROOT
ATOM      1  CA  UNL     1      47.299   5.028  13.624  0.00  0.00    +0.000 C 
ENDROOT
BRANCH   1   2
ATOM      2  C   UNL     1      46.171   5.599  12.791  0.00  0.00    +0.000 A 
ATOM      3  C   UNL     1      45.759   6.938  12.901  0.00  0.00    +0.000 A 
ATOM      4  C   UNL     1      44.761   7.454  12.079  0.00  0.00    +0.000 A 
ATOM      5  C   UNL     1      44.163   6.638  11.126  0.00  0.00    +0.000 A 
ATOM      6  C   UNL     1      44.565   5.304  10.987  0.00  0.00    +0.000 A 
ATOM      7  C   UNL     1      45.542   4.782  11.844  0.00  0.00    +0.000 A 
BRANCH   6   8
ATOM      8  C   UNL     1      43.973   4.445   9.902  0.00  0.00    +0.000 C 
BRANCH   8   9
ATOM      9  O   UNL     1      44.547   3.149   9.985  0.00  0.00    +0.000 OA
BRANCH   9  10
ATOM     10  C   UNL     1      45.332   2.901   8.881  0.00  0.00    +0.000 A 
ATOM     11  N   UNL     1      45.826   1.660   8.800  0.00  0.00    +0.000 NA
ATOM     12  C   UNL     1      46.603   1.409   7.730  0.00  0.00    +0.000 A 
ATOM     13  C   UNL     1      46.884   2.337   6.754  0.00  0.00    +0.000 A 
ATOM     14  C   UNL     1      46.310   3.572   6.932  0.00  0.00    +0.000 A 
ATOM     15  N   UNL     1      45.534   3.882   7.984  0.00  0.00    +0.000 NA
ENDBRANCH   9  10
ENDBRANCH   8   9
ENDBRANCH   6   8
ENDBRANCH   1   2
BRANCH   1  18
ATOM     16  O   UNL     1      49.522   6.859  14.012  0.00  0.00    +0.000 OA
ATOM     17  C   UNL     1      48.683   6.689  14.885  0.00  0.00    +0.000 C 
ATOM     18  N   UNL     1      47.586   5.864  14.769  0.00  0.00    +0.000 N 
ATOM     19  H   UNL     1      47.004   5.690  15.574  0.00  0.00    +0.000 HD
BRANCH  17  20
ATOM     20  C   UNL     1      48.825   7.130  16.263  0.00  0.00    +0.000 A 
ATOM     21  C   UNL     1      48.930   6.243  17.317  0.00  0.00    +0.000 A 
ATOM     22  S   UNL     1      48.415   6.966  18.789  0.00  0.00    +0.000 S 
ATOM     23  C   UNL     1      48.224   8.488  18.042  0.00  0.00    +0.000 A 
ATOM     24  N   UNL     1      47.657   9.551  18.671  0.00  0.00    +0.000 NA
ATOM     25  C   UNL     1      47.649  10.639  17.971  0.00  0.00    +0.000 A 
ATOM     26  N   UNL     1      48.207  10.779  16.725  0.00  0.00    +0.000 N 
ATOM     27  C   UNL     1      48.796   9.736  16.053  0.00  0.00    +0.000 A 
ATOM     28  O   UNL     1      49.351   9.893  14.973  0.00  0.00    +0.000 OA
ATOM     29  C   UNL     1      48.701   8.471  16.751  0.00  0.00    +0.000 A 
ATOM     30  H   UNL     1      48.251  11.679  16.271  0.00  0.00    +0.000 HD
ENDBRANCH  17  20
ENDBRANCH   1  18
BRANCH   1  31
ATOM     31  C   UNL     1      46.991   3.602  14.138  0.00  0.00    +0.000 C 
BRANCH  31  32
ATOM     32  O   UNL     1      47.002   3.552  15.573  0.00  0.00    +0.000 OA
ATOM     33  H   UNL     1      46.262   4.112  15.875  0.00  0.00    +0.000 HD
ENDBRANCH  31  32
ENDBRANCH   1  31
TORSDOF 8
ENDMDL
MODEL 7
REMARK VINA RESULT:    -6.594      4.533      5.630
REMARK INTER + INTRA:         -10.990
REMARK INTER:                  -9.943
REMARK INTRA:                  -1.047
REMARK UNBOUND:                -1.504
REMARK  Name = 
REMARK  8 active torsions:
REMARK  status: ('A' for Active; 'I' for Inactive)
REMARK    1  A    between atoms: C_2  and  C_21
REMARK    2  A    between atoms: N_3  and  CA_4
REMARK    3  A    between atoms: CA_4  and  C_5
REMARK    4  A    between atoms: CA_4  and  C_7
REMARK    5  A    between atoms: C_5  and  O_6
REMARK    6  A    between atoms: C_11  and  C_12
REMARK    7  A    between atoms: C_12  and  O_13
REMARK    8  A    between atoms: O_13  and  C_14
REMARK                            x       y       z     vdW  Elec       q    Type
REMARK                         _______ _______ _______ _____ _____    ______ ____
ROOT
ATOM      1  CA  UNL     1      45.489   7.992  12.525  0.00  0.00    +0.000 C 
ENDROOT
BRANCH   1   2
ATOM      2  C   UNL     1      45.457   6.492  12.315  0.00  0.00    +0.000 A 
ATOM      3  C   UNL     1      45.869   5.586  13.307  0.00  0.00    +0.000 A 
ATOM      4  C   UNL     1      45.770   4.212  13.110  0.00  0.00    +0.000 A 
ATOM      5  C   UNL     1      45.248   3.721  11.919  0.00  0.00    +0.000 A 
ATOM      6  C   UNL     1      44.817   4.604  10.921  0.00  0.00    +0.000 A 
ATOM      7  C   UNL     1      44.957   5.984  11.110  0.00  0.00    +0.000 A 
BRANCH   6   8
ATOM      8  C   UNL     1      44.179   4.072   9.665  0.00  0.00    +0.000 C 
BRANCH   8   9
ATOM      9  O   UNL     1      44.519   2.699   9.531  0.00  0.00    +0.000 OA
BRANCH   9  10
ATOM     10  C   UNL     1      45.450   2.532   8.530  0.00  0.00    +0.000 A 
ATOM     11  N   UNL     1      45.623   3.592   7.731  0.00  0.00    +0.000 NA
ATOM     12  C   UNL     1      46.524   3.436   6.743  0.00  0.00    +0.000 A 
ATOM     13  C   UNL     1      47.249   2.285   6.543  0.00  0.00    +0.000 A 
ATOM     14  C   UNL     1      47.002   1.270   7.434  0.00  0.00    +0.000 A 
ATOM     15  N   UNL     1      46.108   1.364   8.433  0.00  0.00    +0.000 NA
ENDBRANCH   9  10
ENDBRANCH   8   9
ENDBRANCH   6   8
ENDBRANCH   1   2
BRANCH   1  18
ATOM     16  O   UNL     1      47.526   8.868  14.404  0.00  0.00    +0.000 OA
ATOM     17  C   UNL     1      47.700   8.955  13.197  0.00  0.00    +0.000 C 
ATOM     18  N   UNL     1      46.800   8.536  12.242  0.00  0.00    +0.000 N 
ATOM     19  H   UNL     1      46.967   8.747  11.270  0.00  0.00    +0.000 HD
BRANCH  17  20
ATOM     20  C   UNL     1      48.761   9.726  12.570  0.00  0.00    +0.000 A 
ATOM     21  C   UNL     1      48.521  10.913  11.906  0.00  0.00    +0.000 A 
ATOM     22  S   UNL     1      49.744  11.231  10.742  0.00  0.00    +0.000 S 
ATOM     23  C   UNL     1      50.660   9.885  11.251  0.00  0.00    +0.000 A 
ATOM     24  N   UNL     1      51.765   9.452  10.587  0.00  0.00    +0.000 NA
ATOM     25  C   UNL     1      52.365   8.454  11.150  0.00  0.00    +0.000 A 
ATOM     26  N   UNL     1      51.997   7.885  12.345  0.00  0.00    +0.000 N 
ATOM     27  C   UNL     1      50.894   8.293  13.053  0.00  0.00    +0.000 A 
ATOM     28  O   UNL     1      50.620   7.823  14.151  0.00  0.00    +0.000 OA
ATOM     29  C   UNL     1      50.121   9.317  12.384  0.00  0.00    +0.000 A 
ATOM     30  H   UNL     1      52.563   7.171  12.778  0.00  0.00    +0.000 HD
ENDBRANCH  17  20
ENDBRANCH   1  18
BRANCH   1  31
ATOM     31  C   UNL     1      44.461   8.735  11.640  0.00  0.00    +0.000 C 
BRANCH  31  32
ATOM     32  O   UNL     1      44.030   9.958  12.257  0.00  0.00    +0.000 OA
ATOM     33  H   UNL     1      44.818  10.345  12.685  0.00  0.00    +0.000 HD
ENDBRANCH  31  32
ENDBRANCH   1  31
TORSDOF 8
ENDMDL
MODEL 8
REMARK VINA RESULT:    -6.309      3.524      4.867
REMARK INTER + INTRA:         -10.579
REMARK INTER:                  -9.539
REMARK INTRA:                  -1.040
REMARK UNBOUND:                -1.504
REMARK  Name = 
REMARK  8 active torsions:
REMARK  status: ('A' for Active; 'I' for Inactive)
REMARK    1  A    between atoms: C_2  and  C_21
REMARK    2  A    between atoms: N_3  and  CA_4
REMARK    3  A    between atoms: CA_4  and  C_5
REMARK    4  A    between atoms: CA_4  and  C_7
REMARK    5  A    between atoms: C_5  and  O_6
REMARK    6  A    between atoms: C_11  and  C_12
REMARK    7  A    between atoms: C_12  and  O_13
REMARK    8  A    between atoms: O_13  and  C_14
REMARK                            x       y       z     vdW  Elec       q    Type
REMARK                         _______ _______ _______ _____ _____    ______ ____
ROOT
ATOM      1  CA  UNL     1      46.773   5.333  13.478  0.00  0.00    +0.000 C 
ENDROOT
BRANCH   1   2
ATOM      2  C   UNL     1      47.036   6.739  12.980  0.00  0.00    +0.000 A 
ATOM      3  C   UNL     1      48.303   7.155  12.538  0.00  0.00    +0.000 A 
ATOM      4  C   UNL     1      48.502   8.434  12.027  0.00  0.00    +0.000 A 
ATOM      5  C   UNL     1      47.432   9.317  11.941  0.00  0.00    +0.000 A 
ATOM      6  C   UNL     1      46.157   8.922  12.362  0.00  0.00    +0.000 A 
ATOM      7  C   UNL     1      45.973   7.647  12.912  0.00  0.00    +0.000 A 
BRANCH   6   8
ATOM      8  C   UNL     1      44.984   9.851  12.195  0.00  0.00    +0.000 C 
BRANCH   8   9
ATOM      9  O   UNL     1      45.412  10.996  11.472  0.00  0.00    +0.000 OA
BRANCH   9  10
ATOM     10  C   UNL     1      44.659  11.151  10.330  0.00  0.00    +0.000 A 
ATOM     11  N   UNL     1      45.230  11.882   9.366  0.00  0.00    +0.000 NA
ATOM     12  C   UNL     1      44.498  12.048   8.248  0.00  0.00    +0.000 A 
ATOM     13  C   UNL     1      43.247  11.506   8.065  0.00  0.00    +0.000 A 
ATOM     14  C   UNL     1      42.769  10.760   9.114  0.00  0.00    +0.000 A 
ATOM     15  N   UNL     1      43.450  10.568  10.256  0.00  0.00    +0.000 NA
ENDBRANCH   9  10
ENDBRANCH   8   9
ENDBRANCH   6   8
ENDBRANCH   1   2
BRANCH   1  18
ATOM     16  O   UNL     1      47.502   2.821  14.746  0.00  0.00    +0.000 OA
ATOM     17  C   UNL     1      47.644   3.887  15.327  0.00  0.00    +0.000 C 
ATOM     18  N   UNL     1      47.351   5.120  14.787  0.00  0.00    +0.000 N 
ATOM     19  H   UNL     1      47.387   5.943  15.370  0.00  0.00    +0.000 HD
BRANCH  17  20
ATOM     20  C   UNL     1      47.908   4.022  16.750  0.00  0.00    +0.000 A 
ATOM     21  C   UNL     1      47.077   4.733  17.594  0.00  0.00    +0.000 A 
ATOM     22  S   UNL     1      47.928   5.286  18.981  0.00  0.00    +0.000 S 
ATOM     23  C   UNL     1      49.335   4.433  18.529  0.00  0.00    +0.000 A 
ATOM     24  N   UNL     1      50.521   4.575  19.177  0.00  0.00    +0.000 NA
ATOM     25  C   UNL     1      51.463   3.807  18.733  0.00  0.00    +0.000 A 
ATOM     26  N   UNL     1      51.314   2.869  17.741  0.00  0.00    +0.000 N 
ATOM     27  C   UNL     1      50.134   2.686  17.064  0.00  0.00    +0.000 A 
ATOM     28  O   UNL     1      49.997   1.799  16.231  0.00  0.00    +0.000 OA
ATOM     29  C   UNL     1      49.097   3.623  17.442  0.00  0.00    +0.000 A 
ATOM     30  H   UNL     1      52.063   2.235  17.506  0.00  0.00    +0.000 HD
ENDBRANCH  17  20
ENDBRANCH   1  18
BRANCH   1  31
ATOM     31  C   UNL     1      45.263   5.009  13.564  0.00  0.00    +0.000 C 
BRANCH  31  32
ATOM     32  O   UNL     1      44.992   3.669  13.123  0.00  0.00    +0.000 OA
ATOM     33  H   UNL     1      45.204   3.083  13.874  0.00  0.00    +0.000 HD
ENDBRANCH  31  32
ENDBRANCH   1  31
TORSDOF 8
ENDMDL
MODEL 9
REMARK VINA RESULT:    -6.054      3.863      5.382
REMARK INTER + INTRA:         -10.213
REMARK INTER:                  -9.209
REMARK INTRA:                  -1.004
REMARK UNBOUND:                -1.504
REMARK  Name = 
REMARK  8 active torsions:
REMARK  status: ('A' for Active; 'I' for Inactive)
REMARK    1  A    between atoms: C_2  and  C_21
REMARK    2  A    between atoms: N_3  and  CA_4
REMARK    3  A    between atoms: CA_4  and  C_5
REMARK    4  A    between atoms: CA_4  and  C_7
REMARK    5  A    between atoms: C_5  and  O_6
REMARK    6  A    between atoms: C_11  and  C_12
REMARK    7  A    between atoms: C_12  and  O_13
REMARK    8  A    between atoms: O_13  and  C_14
REMARK                            x       y       z     vdW  Elec       q    Type
REMARK                         _______ _______ _______ _____ _____    ______ ____
ROOT
ATOM      1  CA  UNL     1      46.578   5.311  13.370  0.00  0.00    +0.000 C 
ENDROOT
BRANCH   1   2
ATOM      2  C   UNL     1      46.778   6.724  12.861  0.00  0.00    +0.000 A 
ATOM      3  C   UNL     1      45.749   7.681  12.880  0.00  0.00    +0.000 A 
ATOM      4  C   UNL     1      45.977   8.989  12.464  0.00  0.00    +0.000 A 
ATOM      5  C   UNL     1      47.243   9.364  12.030  0.00  0.00    +0.000 A 
ATOM      6  C   UNL     1      48.288   8.433  12.015  0.00  0.00    +0.000 A 
ATOM      7  C   UNL     1      48.041   7.108  12.397  0.00  0.00    +0.000 A 
BRANCH   6   8
ATOM      8  C   UNL     1      49.677   8.861  11.620  0.00  0.00    +0.000 C 
BRANCH   8   9
ATOM      9  O   UNL     1      50.403   7.713  11.205  0.00  0.00    +0.000 OA
BRANCH   9  10
ATOM     10  C   UNL     1      51.739   8.018  11.062  0.00  0.00    +0.000 A 
ATOM     11  N   UNL     1      52.224   7.882   9.822  0.00  0.00    +0.000 NA
ATOM     12  C   UNL     1      53.531   8.168   9.673  0.00  0.00    +0.000 A 
ATOM     13  C   UNL     1      54.345   8.589  10.700  0.00  0.00    +0.000 A 
ATOM     14  C   UNL     1      53.735   8.709  11.924  0.00  0.00    +0.000 A 
ATOM     15  N   UNL     1      52.437   8.429  12.135  0.00  0.00    +0.000 NA
ENDBRANCH   9  10
ENDBRANCH   8   9
ENDBRANCH   6   8
ENDBRANCH   1   2
BRANCH   1  18
ATOM     16  O   UNL     1      47.475   2.846  14.621  0.00  0.00    +0.000 OA
ATOM     17  C   UNL     1      47.552   3.916  15.206  0.00  0.00    +0.000 C 
ATOM     18  N   UNL     1      47.177   5.130  14.675  0.00  0.00    +0.000 N 
ATOM     19  H   UNL     1      47.163   5.951  15.261  0.00  0.00    +0.000 HD
BRANCH  17  20
ATOM     20  C   UNL     1      47.816   4.061  16.629  0.00  0.00    +0.000 A 
ATOM     21  C   UNL     1      47.005   4.809  17.460  0.00  0.00    +0.000 A 
ATOM     22  S   UNL     1      47.869   5.353  18.843  0.00  0.00    +0.000 S 
ATOM     23  C   UNL     1      49.250   4.451  18.407  0.00  0.00    +0.000 A 
ATOM     24  N   UNL     1      50.438   4.564  19.057  0.00  0.00    +0.000 NA
ATOM     25  C   UNL     1      51.357   3.761  18.626  0.00  0.00    +0.000 A 
ATOM     26  N   UNL     1      51.181   2.815  17.646  0.00  0.00    +0.000 N 
ATOM     27  C   UNL     1      49.998   2.660  16.967  0.00  0.00    +0.000 A 
ATOM     28  O   UNL     1      49.835   1.767  16.146  0.00  0.00    +0.000 OA
ATOM     29  C   UNL     1      48.990   3.634  17.329  0.00  0.00    +0.000 A 
ATOM     30  H   UNL     1      51.911   2.155  17.422  0.00  0.00    +0.000 HD
ENDBRANCH  17  20
ENDBRANCH   1  18
BRANCH   1  31
ATOM     31  C   UNL     1      45.084   4.925  13.472  0.00  0.00    +0.000 C 
BRANCH  31  32
ATOM     32  O   UNL     1      44.861   3.581  13.019  0.00  0.00    +0.000 OA
ATOM     33  H   UNL     1      44.777   3.626  12.047  0.00  0.00    +0.000 HD
ENDBRANCH  31  32
ENDBRANCH   1  31
TORSDOF 8
ENDMDL
