MODEL 1
REMARK VINA RESULT:    -9.249      0.000      0.000
REMARK INTER + INTRA:         -13.287
REMARK INTER:                 -12.493
REMARK INTRA:                  -0.795
REMARK UNBOUND:                -0.795
REMARK  Name = 
REMARK  6 active torsions:
REMARK  status: ('A' for Active; 'I' for Inactive)
REMARK    1  A    between atoms: C_2  and  C_3
REMARK    2  A    between atoms: C_2  and  C_19
REMARK    3  A    between atoms: C_3  and  C_4
REMARK    4  A    between atoms: C_4  and  C_5
REMARK    5  A    between atoms: C_9  and  C_10
REMARK    6  A    between atoms: C_10  and  N_11
REMARK                            x       y       z     vdW  Elec       q    Type
REMARK                         _______ _______ _______ _____ _____    ______ ____
ROOT
ATOM      1  C   UNL     1      46.783   3.804  14.292  0.00  0.00    +0.000 C 
ENDROOT
BRANCH   1   2
ATOM      2  C   UNL     1      46.249   4.471  13.046  0.00  0.00    +0.000 A 
ATOM      3  C   UNL     1      46.615   5.766  12.658  0.00  0.00    +0.000 A 
ATOM      4  C   UNL     1      46.160   6.303  11.455  0.00  0.00    +0.000 A 
ATOM      5  C   UNL     1      45.358   5.543  10.606  0.00  0.00    +0.000 A 
ATOM      6  C   UNL     1      45.007   4.232  10.950  0.00  0.00    +0.000 A 
ATOM      7  C   UNL     1      45.433   3.719  12.185  0.00  0.00    +0.000 A 
BRANCH   6   8
ATOM      8  C   UNL     1      44.240   3.356   9.986  0.00  0.00    +0.000 C 
BRANCH   8   9
ATOM      9  N   UNL     1      44.991   2.149   9.674  0.00  0.00    +0.000 N 
ATOM     10  C   UNL     1      45.708   2.256   8.466  0.00  0.00    +0.000 A 
ATOM     11  C   UNL     1      46.456   1.162   8.037  0.00  0.00    +0.000 A 
ATOM     12  C   UNL     1      47.180   1.248   6.848  0.00  0.00    +0.000 A 
ATOM     13  C   UNL     1      47.145   2.427   6.117  0.00  0.00    +0.000 A 
ATOM     14  C   UNL     1      46.395   3.473   6.616  0.00  0.00    +0.000 A 
ATOM     15  N   UNL     1      45.688   3.410   7.765  0.00  0.00    +0.000 NA
ATOM     16  H   UNL     1      44.387   1.332   9.630  0.00  0.00    +0.000 HD
ENDBRANCH   8   9
ENDBRANCH   6   8
ENDBRANCH   1   2
BRANCH   1  17
ATOM     17  C   UNL     1      47.003   4.711  15.500  0.00  0.00    +0.000 C 
BRANCH  17  19
ATOM     18  N   UNL     1      46.748   3.167  17.434  0.00  0.00    +0.000 NA
ATOM     19  C   UNL     1      47.471   3.993  16.755  0.00  0.00    +0.000 C 
ATOM     20  H   UNL     1      45.837   2.982  17.015  0.00  0.00    +0.000 HD
BRANCH  19  21
ATOM     21  C   UNL     1      48.808   4.250  17.284  0.00  0.00    +0.000 A 
ATOM     22  C   UNL     1      49.174   5.453  17.866  0.00  0.00    +0.000 A 
ATOM     23  S   UNL     1      50.754   5.423  18.522  0.00  0.00    +0.000 S 
ATOM     24  C   UNL     1      50.998   3.816  18.015  0.00  0.00    +0.000 A 
ATOM     25  N   UNL     1      52.156   3.157  18.293  0.00  0.00    +0.000 NA
ATOM     26  C   UNL     1      52.183   1.940  17.862  0.00  0.00    +0.000 A 
ATOM     27  N   UNL     1      51.177   1.330  17.158  0.00  0.00    +0.000 N 
ATOM     28  C   UNL     1      50.055   2.005  16.725  0.00  0.00    +0.000 A 
ATOM     29  O   UNL     1      49.348   1.526  15.844  0.00  0.00    +0.000 OA
ATOM     30  C   UNL     1      49.915   3.329  17.307  0.00  0.00    +0.000 A 
ATOM     31  H   UNL     1      51.304   0.411  16.764  0.00  0.00    +0.000 HD
ENDBRANCH  19  21
ENDBRANCH  17  19
ENDBRANCH   1  17
TORSDOF 6
ENDMDL
MODEL 2
REMARK VINA RESULT:    -8.947      2.282      3.269
REMARK INTER + INTRA:         -12.880
REMARK INTER:                 -11.530
REMARK INTRA:                  -1.350
REMARK UNBOUND:                -0.795
REMARK  Name = 
REMARK  6 active torsions:
REMARK  status: ('A' for Active; 'I' for Inactive)
REMARK    1  A    between atoms: C_2  and  C_3
REMARK    2  A    between atoms: C_2  and  C_19
REMARK    3  A    between atoms: C_3  and  C_4
REMARK    4  A    between atoms: C_4  and  C_5
REMARK    5  A    between atoms: C_9  and  C_10
REMARK    6  A    between atoms: C_10  and  N_11
REMARK                            x       y       z     vdW  Elec       q    Type
REMARK                         _______ _______ _______ _____ _____    ______ ____
ROOT
ATOM      1  C   UNL     1      46.441   7.144  11.776  0.00  0.00    +0.000 C 
ENDROOT
BRANCH   1   2
ATOM      2  C   UNL     1      45.462   5.997  11.886  0.00  0.00    +0.000 A 
ATOM      3  C   UNL     1      44.552   5.873  12.942  0.00  0.00    +0.000 A 
ATOM      4  C   UNL     1      43.612   4.842  12.953  0.00  0.00    +0.000 A 
ATOM      5  C   UNL     1      43.547   3.941  11.892  0.00  0.00    +0.000 A 
ATOM      6  C   UNL     1      44.420   4.065  10.804  0.00  0.00    +0.000 A 
ATOM      7  C   UNL     1      45.392   5.077  10.827  0.00  0.00    +0.000 A 
BRANCH   6   8
ATOM      8  C   UNL     1      44.282   3.171   9.593  0.00  0.00    +0.000 C 
BRANCH   8   9
ATOM      9  N   UNL     1      44.908   3.777   8.427  0.00  0.00    +0.000 N 
ATOM     10  C   UNL     1      45.828   2.915   7.799  0.00  0.00    +0.000 A 
ATOM     11  C   UNL     1      46.515   3.378   6.679  0.00  0.00    +0.000 A 
ATOM     12  C   UNL     1      47.425   2.539   6.035  0.00  0.00    +0.000 A 
ATOM     13  C   UNL     1      47.624   1.255   6.521  0.00  0.00    +0.000 A 
ATOM     14  C   UNL     1      46.893   0.863   7.625  0.00  0.00    +0.000 A 
ATOM     15  N   UNL     1      46.007   1.659   8.261  0.00  0.00    +0.000 NA
ATOM     16  H   UNL     1      45.377   4.647   8.663  0.00  0.00    +0.000 HD
ENDBRANCH   8   9
ENDBRANCH   6   8
ENDBRANCH   1   2
BRANCH   1  17
ATOM     17  C   UNL     1      47.045   7.641  13.086  0.00  0.00    +0.000 C 
BRANCH  17  19
ATOM     18  N   UNL     1      49.223   6.507  12.687  0.00  0.00    +0.000 NA
ATOM     19  C   UNL     1      48.319   6.929  13.507  0.00  0.00    +0.000 C 
ATOM     20  H   UNL     1      49.038   6.753  11.715  0.00  0.00    +0.000 HD
BRANCH  19  21
ATOM     21  C   UNL     1      48.564   6.650  14.920  0.00  0.00    +0.000 A 
ATOM     22  C   UNL     1      49.302   7.487  15.741  0.00  0.00    +0.000 A 
ATOM     23  S   UNL     1      49.307   6.984  17.376  0.00  0.00    +0.000 S 
ATOM     24  C   UNL     1      48.353   5.620  17.020  0.00  0.00    +0.000 A 
ATOM     25  N   UNL     1      47.955   4.762  18.000  0.00  0.00    +0.000 NA
ATOM     26  C   UNL     1      47.220   3.788  17.578  0.00  0.00    +0.000 A 
ATOM     27  N   UNL     1      46.868   3.575  16.270  0.00  0.00    +0.000 N 
ATOM     28  C   UNL     1      47.372   4.329  15.231  0.00  0.00    +0.000 A 
ATOM     29  O   UNL     1      47.294   3.919  14.077  0.00  0.00    +0.000 OA
ATOM     30  C   UNL     1      48.083   5.517  15.668  0.00  0.00    +0.000 A 
ATOM     31  H   UNL     1      46.376   2.739  15.996  0.00  0.00    +0.000 HD
ENDBRANCH  19  21
ENDBRANCH  17  19
ENDBRANCH   1  17
TORSDOF 6
ENDMDL
MODEL 3
REMARK VINA RESULT:    -8.145      2.490      3.505
REMARK INTER + INTRA:         -11.797
REMARK INTER:                 -10.626
REMARK INTRA:                  -1.171
REMARK UNBOUND:                -0.795
REMARK  Name = 
REMARK  6 active torsions:
REMARK  status: ('A' for Active; 'I' for Inactive)
REMARK    1  A    between atoms: C_2  and  C_3
REMARK    2  A    between atoms: C_2  and  C_19
REMARK    3  A    between atoms: C_3  and  C_4
REMARK    4  A    between atoms: C_4  and  C_5
REMARK    5  A    between atoms: C_9  and  C_10
REMARK    6  A    between atoms: C_10  and  N_11
REMARK                            x       y       z     vdW  Elec       q    Type
REMARK                         _______ _______ _______ _____ _____    ______ ____
ROOT
ATOM      1  C   UNL     1      46.548   7.177  11.875  0.00  0.00    +0.000 C 
ENDROOT
BRANCH   1   2
ATOM      2  C   UNL     1      45.466   6.123  11.937  0.00  0.00    +0.000 A 
ATOM      3  C   UNL     1      44.461   6.120  12.912  0.00  0.00    +0.000 A 
ATOM      4  C   UNL     1      43.437   5.174  12.874  0.00  0.00    +0.000 A 
ATOM      5  C   UNL     1      43.385   4.237  11.843  0.00  0.00    +0.000 A 
ATOM      6  C   UNL     1      44.355   4.242  10.834  0.00  0.00    +0.000 A 
ATOM      7  C   UNL     1      45.406   5.168  10.909  0.00  0.00    +0.000 A 
BRANCH   6   8
ATOM      8  C   UNL     1      44.243   3.312   9.647  0.00  0.00    +0.000 C 
BRANCH   8   9
ATOM      9  N   UNL     1      44.875   3.894   8.472  0.00  0.00    +0.000 N 
ATOM     10  C   UNL     1      45.787   3.013   7.857  0.00  0.00    +0.000 A 
ATOM     11  C   UNL     1      46.478   3.451   6.730  0.00  0.00    +0.000 A 
ATOM     12  C   UNL     1      47.379   2.594   6.101  0.00  0.00    +0.000 A 
ATOM     13  C   UNL     1      47.566   1.315   6.606  0.00  0.00    +0.000 A 
ATOM     14  C   UNL     1      46.831   0.948   7.716  0.00  0.00    +0.000 A 
ATOM     15  N   UNL     1      45.953   1.763   8.340  0.00  0.00    +0.000 NA
ATOM     16  H   UNL     1      45.353   4.762   8.695  0.00  0.00    +0.000 HD
ENDBRANCH   8   9
ENDBRANCH   6   8
ENDBRANCH   1   2
BRANCH   1  17
ATOM     17  C   UNL     1      47.117   7.636  13.215  0.00  0.00    +0.000 C 
BRANCH  17  19
ATOM     18  N   UNL     1      49.438   6.740  13.201  0.00  0.00    +0.000 NA
ATOM     19  C   UNL     1      48.265   6.790  13.739  0.00  0.00    +0.000 C 
ATOM     20  H   UNL     1      49.553   7.378  12.415  0.00  0.00    +0.000 HD
BRANCH  19  21
ATOM     21  C   UNL     1      48.065   5.934  14.905  0.00  0.00    +0.000 A 
ATOM     22  C   UNL     1      47.237   4.823  14.897  0.00  0.00    +0.000 A 
ATOM     23  S   UNL     1      47.303   3.930  16.355  0.00  0.00    +0.000 S 
ATOM     24  C   UNL     1      48.412   5.024  17.043  0.00  0.00    +0.000 A 
ATOM     25  N   UNL     1      48.916   4.825  18.291  0.00  0.00    +0.000 NA
ATOM     26  C   UNL     1      49.760   5.727  18.667  0.00  0.00    +0.000 A 
ATOM     27  N   UNL     1      50.127   6.820  17.925  0.00  0.00    +0.000 N 
ATOM     28  C   UNL     1      49.530   7.140  16.724  0.00  0.00    +0.000 A 
ATOM     29  O   UNL     1      49.649   8.269  16.256  0.00  0.00    +0.000 OA
ATOM     30  C   UNL     1      48.683   6.083  16.198  0.00  0.00    +0.000 A 
ATOM     31  H   UNL     1      50.714   7.539  18.318  0.00  0.00    +0.000 HD
ENDBRANCH  19  21
ENDBRANCH  17  19
ENDBRANCH   1  17
TORSDOF 6
ENDMDL
MODEL 4
REMARK VINA RESULT:    -8.138      1.473      2.392
REMARK INTER + INTRA:         -11.787
REMARK INTER:                 -10.998
REMARK INTRA:                  -0.789
REMARK UNBOUND:                -0.795
REMARK  Name = 
REMARK  6 active torsions:
REMARK  status: ('A' for Active; 'I' for Inactive)
REMARK    1  A    between atoms: C_2  and  C_3
REMARK    2  A    between atoms: C_2  and  C_19
REMARK    3  A    between atoms: C_3  and  C_4
REMARK    4  A    between atoms: C_4  and  C_5
REMARK    5  A    between atoms: C_9  and  C_10
REMARK    6  A    between atoms: C_10  and  N_11
REMARK                            x       y       z     vdW  Elec       q    Type
REMARK                         _______ _______ _______ _____ _____    ______ ____
ROOT
ATOM      1  C   UNL     1      48.130   5.914  15.488  0.00  0.00    +0.000 C 
ENDROOT
BRANCH   1   2
ATOM      2  C   UNL     1      47.972   6.457  14.086  0.00  0.00    +0.000 A 
ATOM      3  C   UNL     1      49.031   7.020  13.364  0.00  0.00    +0.000 A 
ATOM      4  C   UNL     1      48.853   7.429  12.043  0.00  0.00    +0.000 A 
ATOM      5  C   UNL     1      47.622   7.251  11.413  0.00  0.00    +0.000 A 
ATOM      6  C   UNL     1      46.556   6.656  12.100  0.00  0.00    +0.000 A 
ATOM      7  C   UNL     1      46.734   6.292  13.443  0.00  0.00    +0.000 A 
BRANCH   6   8
ATOM      8  C   UNL     1      45.255   6.348  11.394  0.00  0.00    +0.000 C 
BRANCH   8   9
ATOM      9  N   UNL     1      45.488   6.032   9.993  0.00  0.00    +0.000 N 
ATOM     10  C   UNL     1      45.204   4.686   9.688  0.00  0.00    +0.000 A 
ATOM     11  C   UNL     1      45.403   4.243   8.383  0.00  0.00    +0.000 A 
ATOM     12  C   UNL     1      45.121   2.917   8.057  0.00  0.00    +0.000 A 
ATOM     13  C   UNL     1      44.641   2.064   9.040  0.00  0.00    +0.000 A 
ATOM     14  C   UNL     1      44.453   2.582  10.306  0.00  0.00    +0.000 A 
ATOM     15  N   UNL     1      44.719   3.862  10.642  0.00  0.00    +0.000 NA
ATOM     16  H   UNL     1      46.443   6.240   9.715  0.00  0.00    +0.000 HD
ENDBRANCH   8   9
ENDBRANCH   6   8
ENDBRANCH   1   2
BRANCH   1  17
ATOM     17  C   UNL     1      47.397   4.609  15.789  0.00  0.00    +0.000 C 
BRANCH  17  19
ATOM     18  N   UNL     1      46.944   3.296  17.854  0.00  0.00    +0.000 NA
ATOM     19  C   UNL     1      47.764   3.969  17.118  0.00  0.00    +0.000 C 
ATOM     20  H   UNL     1      46.026   3.171  17.431  0.00  0.00    +0.000 HD
BRANCH  19  21
ATOM     21  C   UNL     1      49.114   4.131  17.655  0.00  0.00    +0.000 A 
ATOM     22  C   UNL     1      49.513   5.241  18.380  0.00  0.00    +0.000 A 
ATOM     23  S   UNL     1      51.101   5.097  19.002  0.00  0.00    +0.000 S 
ATOM     24  C   UNL     1      51.303   3.564  18.289  0.00  0.00    +0.000 A 
ATOM     25  N   UNL     1      52.450   2.852  18.462  0.00  0.00    +0.000 NA
ATOM     26  C   UNL     1      52.446   1.700  17.878  0.00  0.00    +0.000 A 
ATOM     27  N   UNL     1      51.418   1.205  17.118  0.00  0.00    +0.000 N 
ATOM     28  C   UNL     1      50.305   1.952  16.793  0.00  0.00    +0.000 A 
ATOM     29  O   UNL     1      49.576   1.604  15.870  0.00  0.00    +0.000 OA
ATOM     30  C   UNL     1      50.201   3.193  17.542  0.00  0.00    +0.000 A 
ATOM     31  H   UNL     1      51.520   0.342  16.608  0.00  0.00    +0.000 HD
ENDBRANCH  19  21
ENDBRANCH  17  19
ENDBRANCH   1  17
TORSDOF 6
ENDMDL
MODEL 5
REMARK VINA RESULT:    -8.003      3.805      5.811
REMARK INTER + INTRA:         -11.605
REMARK INTER:                 -10.512
REMARK INTRA:                  -1.093
REMARK UNBOUND:                -0.795
REMARK  Name = 
REMARK  6 active torsions:
REMARK  status: ('A' for Active; 'I' for Inactive)
REMARK    1  A    between atoms: C_2  and  C_3
REMARK    2  A    between atoms: C_2  and  C_19
REMARK    3  A    between atoms: C_3  and  C_4
REMARK    4  A    between atoms: C_4  and  C_5
REMARK    5  A    between atoms: C_9  and  C_10
REMARK    6  A    between atoms: C_10  and  N_11
REMARK                            x       y       z     vdW  Elec       q    Type
REMARK                         _______ _______ _______ _____ _____    ______ ____
ROOT
ATOM      1  C   UNL     1      44.486   2.411  10.327  0.00  0.00    +0.000 C 
ENDROOT
BRANCH   1   2
ATOM      2  C   UNL     1      45.254   2.830   9.094  0.00  0.00    +0.000 A 
ATOM      3  C   UNL     1      45.521   4.169   8.782  0.00  0.00    +0.000 A 
ATOM      4  C   UNL     1      46.307   4.498   7.678  0.00  0.00    +0.000 A 
ATOM      5  C   UNL     1      46.865   3.493   6.889  0.00  0.00    +0.000 A 
ATOM      6  C   UNL     1      46.646   2.146   7.201  0.00  0.00    +0.000 A 
ATOM      7  C   UNL     1      45.815   1.828   8.286  0.00  0.00    +0.000 A 
BRANCH   6   8
ATOM      8  C   UNL     1      47.342   1.049   6.428  0.00  0.00    +0.000 C 
BRANCH   8   9
ATOM      9  N   UNL     1      47.212   1.263   4.994  0.00  0.00    +0.000 N 
ATOM     10  C   UNL     1      46.950   0.071   4.291  0.00  0.00    +0.000 A 
ATOM     11  C   UNL     1      46.822   0.131   2.905  0.00  0.00    +0.000 A 
ATOM     12  C   UNL     1      46.555  -1.036   2.189  0.00  0.00    +0.000 A 
ATOM     13  C   UNL     1      46.415  -2.235   2.873  0.00  0.00    +0.000 A 
ATOM     14  C   UNL     1      46.538  -2.210   4.248  0.00  0.00    +0.000 A 
ATOM     15  N   UNL     1      46.796  -1.091   4.960  0.00  0.00    +0.000 NA
ATOM     16  H   UNL     1      48.041   1.703   4.604  0.00  0.00    +0.000 HD
ENDBRANCH   8   9
ENDBRANCH   6   8
ENDBRANCH   1   2
BRANCH   1  17
ATOM     17  C   UNL     1      43.499   3.433  10.885  0.00  0.00    +0.000 C 
BRANCH  17  19
ATOM     18  N   UNL     1      43.587   3.563  13.368  0.00  0.00    +0.000 NA
ATOM     19  C   UNL     1      43.907   4.046  12.214  0.00  0.00    +0.000 C 
ATOM     20  H   UNL     1      43.081   2.681  13.314  0.00  0.00    +0.000 HD
BRANCH  19  21
ATOM     21  C   UNL     1      44.683   5.284  12.237  0.00  0.00    +0.000 A 
ATOM     22  C   UNL     1      44.342   6.406  11.500  0.00  0.00    +0.000 A 
ATOM     23  S   UNL     1      45.346   7.751  11.828  0.00  0.00    +0.000 S 
ATOM     24  C   UNL     1      46.280   6.858  12.936  0.00  0.00    +0.000 A 
ATOM     25  N   UNL     1      47.308   7.435  13.618  0.00  0.00    +0.000 NA
ATOM     26  C   UNL     1      47.908   6.636  14.437  0.00  0.00    +0.000 A 
ATOM     27  N   UNL     1      47.595   5.313  14.618  0.00  0.00    +0.000 N 
ATOM     28  C   UNL     1      46.666   4.653  13.842  0.00  0.00    +0.000 A 
ATOM     29  O   UNL     1      46.645   3.426  13.814  0.00  0.00    +0.000 OA
ATOM     30  C   UNL     1      45.870   5.540  13.012  0.00  0.00    +0.000 A 
ATOM     31  H   UNL     1      48.169   4.721  15.199  0.00  0.00    +0.000 HD
ENDBRANCH  19  21
ENDBRANCH  17  19
ENDBRANCH   1  17
TORSDOF 6
ENDMDL
MODEL 6
REMARK VINA RESULT:    -7.922      3.486      8.591
REMARK INTER + INTRA:         -11.495
REMARK INTER:                 -10.410
REMARK INTRA:                  -1.085
REMARK UNBOUND:                -0.795
REMARK  Name = 
REMARK  6 active torsions:
REMARK  status: ('A' for Active; 'I' for Inactive)
REMARK    1  A    between atoms: C_2  and  C_3
REMARK    2  A    between atoms: C_2  and  C_19
REMARK    3  A    between atoms: C_3  and  C_4
REMARK    4  A    between atoms: C_4  and  C_5
REMARK    5  A    between atoms: C_9  and  C_10
REMARK    6  A    between atoms: C_10  and  N_11
REMARK                            x       y       z     vdW  Elec       q    Type
REMARK                         _______ _______ _______ _____ _____    ______ ____
ROOT
ATOM      1  C   UNL     1      47.218   6.860  11.751  0.00  0.00    +0.000 C 
ENDROOT
BRANCH   1   2
ATOM      2  C   UNL     1      48.456   7.217  12.542  0.00  0.00    +0.000 A 
ATOM      3  C   UNL     1      49.533   7.923  11.994  0.00  0.00    +0.000 A 
ATOM      4  C   UNL     1      50.614   8.301  12.789  0.00  0.00    +0.000 A 
ATOM      5  C   UNL     1      50.618   8.009  14.152  0.00  0.00    +0.000 A 
ATOM      6  C   UNL     1      49.536   7.339  14.735  0.00  0.00    +0.000 A 
ATOM      7  C   UNL     1      48.477   6.921  13.915  0.00  0.00    +0.000 A 
BRANCH   6   8
ATOM      8  C   UNL     1      49.472   7.122  16.230  0.00  0.00    +0.000 C 
BRANCH   8   9
ATOM      9  N   UNL     1      48.217   6.491  16.608  0.00  0.00    +0.000 N 
ATOM     10  C   UNL     1      48.375   5.132  16.943  0.00  0.00    +0.000 A 
ATOM     11  C   UNL     1      47.246   4.401  17.306  0.00  0.00    +0.000 A 
ATOM     12  C   UNL     1      47.380   3.055  17.649  0.00  0.00    +0.000 A 
ATOM     13  C   UNL     1      48.639   2.471  17.627  0.00  0.00    +0.000 A 
ATOM     14  C   UNL     1      49.711   3.266  17.273  0.00  0.00    +0.000 A 
ATOM     15  N   UNL     1      49.603   4.570  16.939  0.00  0.00    +0.000 NA
ATOM     16  H   UNL     1      47.519   6.573  15.874  0.00  0.00    +0.000 HD
ENDBRANCH   8   9
ENDBRANCH   6   8
ENDBRANCH   1   2
BRANCH   1  17
ATOM     17  C   UNL     1      45.926   7.552  12.175  0.00  0.00    +0.000 C 
BRANCH  17  19
ATOM     18  N   UNL     1      43.731   7.673  11.009  0.00  0.00    +0.000 NA
ATOM     19  C   UNL     1      44.664   6.970  11.559  0.00  0.00    +0.000 C 
ATOM     20  H   UNL     1      43.944   8.668  10.964  0.00  0.00    +0.000 HD
BRANCH  19  21
ATOM     21  C   UNL     1      44.433   5.528  11.599  0.00  0.00    +0.000 A 
ATOM     22  C   UNL     1      43.923   4.873  12.708  0.00  0.00    +0.000 A 
ATOM     23  S   UNL     1      43.626   3.212  12.424  0.00  0.00    +0.000 S 
ATOM     24  C   UNL     1      44.203   3.322  10.826  0.00  0.00    +0.000 A 
ATOM     25  N   UNL     1      44.195   2.242   9.998  0.00  0.00    +0.000 NA
ATOM     26  C   UNL     1      44.645   2.486   8.812  0.00  0.00    +0.000 A 
ATOM     27  N   UNL     1      45.124   3.698   8.385  0.00  0.00    +0.000 N 
ATOM     28  C   UNL     1      45.291   4.774   9.232  0.00  0.00    +0.000 A 
ATOM     29  O   UNL     1      46.006   5.715   8.901  0.00  0.00    +0.000 OA
ATOM     30  C   UNL     1      44.668   4.590  10.532  0.00  0.00    +0.000 A 
ATOM     31  H   UNL     1      45.553   3.795   7.478  0.00  0.00    +0.000 HD
ENDBRANCH  19  21
ENDBRANCH  17  19
ENDBRANCH   1  17
TORSDOF 6
ENDMDL
MODEL 7
REMARK VINA RESULT:    -7.782      5.146      7.018
REMARK INTER + INTRA:         -11.307
REMARK INTER:                  -9.971
REMARK INTRA:                  -1.336
REMARK UNBOUND:                -0.795
REMARK  Name = 
REMARK  6 active torsions:
REMARK  status: ('A' for Active; 'I' for Inactive)
REMARK    1  A    between atoms: C_2  and  C_3
REMARK    2  A    between atoms: C_2  and  C_19
REMARK    3  A    between atoms: C_3  and  C_4
REMARK    4  A    between atoms: C_4  and  C_5
REMARK    5  A    between atoms: C_9  and  C_10
REMARK    6  A    between atoms: C_10  and  N_11
REMARK                            x       y       z     vdW  Elec       q    Type
REMARK                         _______ _______ _______ _____ _____    ______ ____
ROOT
ATOM      1  C   UNL     1      47.379   7.133  11.598  0.00  0.00    +0.000 C 
ENDROOT
BRANCH   1   2
ATOM      2  C   UNL     1      46.115   6.318  11.743  0.00  0.00    +0.000 A 
ATOM      3  C   UNL     1      45.271   6.413  12.856  0.00  0.00    +0.000 A 
ATOM      4  C   UNL     1      44.073   5.701  12.903  0.00  0.00    +0.000 A 
ATOM      5  C   UNL     1      43.685   4.909  11.824  0.00  0.00    +0.000 A 
ATOM      6  C   UNL     1      44.491   4.826  10.682  0.00  0.00    +0.000 A 
ATOM      7  C   UNL     1      45.716   5.509  10.666  0.00  0.00    +0.000 A 
BRANCH   6   8
ATOM      8  C   UNL     1      44.026   4.068   9.459  0.00  0.00    +0.000 C 
BRANCH   8   9
ATOM      9  N   UNL     1      44.652   2.756   9.394  0.00  0.00    +0.000 N 
ATOM     10  C   UNL     1      45.580   2.652   8.339  0.00  0.00    +0.000 A 
ATOM     11  C   UNL     1      46.239   1.439   8.150  0.00  0.00    +0.000 A 
ATOM     12  C   UNL     1      47.167   1.315   7.117  0.00  0.00    +0.000 A 
ATOM     13  C   UNL     1      47.422   2.407   6.299  0.00  0.00    +0.000 A 
ATOM     14  C   UNL     1      46.742   3.580   6.560  0.00  0.00    +0.000 A 
ATOM     15  N   UNL     1      45.840   3.720   7.555  0.00  0.00    +0.000 NA
ATOM     16  H   UNL     1      43.962   2.016   9.302  0.00  0.00    +0.000 HD
ENDBRANCH   8   9
ENDBRANCH   6   8
ENDBRANCH   1   2
BRANCH   1  17
ATOM     17  C   UNL     1      48.062   7.553  12.896  0.00  0.00    +0.000 C 
BRANCH  17  19
ATOM     18  N   UNL     1      47.153   9.142  14.582  0.00  0.00    +0.000 NA
ATOM     19  C   UNL     1      47.655   8.923  13.412  0.00  0.00    +0.000 C 
ATOM     20  H   UNL     1      47.111   8.310  15.169  0.00  0.00    +0.000 HD
BRANCH  19  21
ATOM     21  C   UNL     1      47.788  10.095  12.549  0.00  0.00    +0.000 A 
ATOM     22  C   UNL     1      48.988  10.759  12.354  0.00  0.00    +0.000 A 
ATOM     23  S   UNL     1      48.879  12.005  11.187  0.00  0.00    +0.000 S 
ATOM     24  C   UNL     1      47.221  11.708  10.939  0.00  0.00    +0.000 A 
ATOM     25  N   UNL     1      46.507  12.418  10.023  0.00  0.00    +0.000 NA
ATOM     26  C   UNL     1      45.268  12.064   9.935  0.00  0.00    +0.000 A 
ATOM     27  N   UNL     1      44.671  11.089  10.692  0.00  0.00    +0.000 N 
ATOM     28  C   UNL     1      45.316  10.453  11.732  0.00  0.00    +0.000 A 
ATOM     29  O   UNL     1      44.671   9.836  12.574  0.00  0.00    +0.000 OA
ATOM     30  C   UNL     1      46.745  10.715  11.774  0.00  0.00    +0.000 A 
ATOM     31  H   UNL     1      43.676  10.932  10.643  0.00  0.00    +0.000 HD
ENDBRANCH  19  21
ENDBRANCH  17  19
ENDBRANCH   1  17
TORSDOF 6
ENDMDL
MODEL 8
REMARK VINA RESULT:    -7.720      3.405      4.516
REMARK INTER + INTRA:         -11.223
REMARK INTER:                  -9.841
REMARK INTRA:                  -1.381
REMARK UNBOUND:                -0.795
REMARK  Name = 
REMARK  6 active torsions:
REMARK  status: ('A' for Active; 'I' for Inactive)
REMARK    1  A    between atoms: C_2  and  C_3
REMARK    2  A    between atoms: C_2  and  C_19
REMARK    3  A    between atoms: C_3  and  C_4
REMARK    4  A    between atoms: C_4  and  C_5
REMARK    5  A    between atoms: C_9  and  C_10
REMARK    6  A    between atoms: C_10  and  N_11
REMARK                            x       y       z     vdW  Elec       q    Type
REMARK                         _______ _______ _______ _____ _____    ______ ____
ROOT
ATOM      1  C   UNL     1      46.589   7.603  12.164  0.00  0.00    +0.000 C 
ENDROOT
BRANCH   1   2
ATOM      2  C   UNL     1      46.201   6.146  12.274  0.00  0.00    +0.000 A 
ATOM      3  C   UNL     1      46.308   5.417  13.464  0.00  0.00    +0.000 A 
ATOM      4  C   UNL     1      45.857   4.100  13.534  0.00  0.00    +0.000 A 
ATOM      5  C   UNL     1      45.262   3.502  12.424  0.00  0.00    +0.000 A 
ATOM      6  C   UNL     1      45.108   4.220  11.232  0.00  0.00    +0.000 A 
ATOM      7  C   UNL     1      45.608   5.528  11.160  0.00  0.00    +0.000 A 
BRANCH   6   8
ATOM      8  C   UNL     1      44.358   3.626  10.061  0.00  0.00    +0.000 C 
BRANCH   8   9
ATOM      9  N   UNL     1      44.897   2.321   9.710  0.00  0.00    +0.000 N 
ATOM     10  C   UNL     1      45.700   2.361   8.553  0.00  0.00    +0.000 A 
ATOM     11  C   UNL     1      46.265   1.174   8.093  0.00  0.00    +0.000 A 
ATOM     12  C   UNL     1      47.070   1.192   6.954  0.00  0.00    +0.000 A 
ATOM     13  C   UNL     1      47.298   2.395   6.304  0.00  0.00    +0.000 A 
ATOM     14  C   UNL     1      46.718   3.532   6.830  0.00  0.00    +0.000 A 
ATOM     15  N   UNL     1      45.937   3.536   7.932  0.00  0.00    +0.000 NA
ATOM     16  H   UNL     1      44.160   1.634   9.577  0.00  0.00    +0.000 HD
ENDBRANCH   8   9
ENDBRANCH   6   8
ENDBRANCH   1   2
BRANCH   1  17
ATOM     17  C   UNL     1      47.940   7.892  11.513  0.00  0.00    +0.000 C 
BRANCH  17  19
ATOM     18  N   UNL     1      50.117   7.072  12.397  0.00  0.00    +0.000 NA
ATOM     19  C   UNL     1      49.118   7.887  12.473  0.00  0.00    +0.000 C 
ATOM     20  H   UNL     1      50.080   6.458  11.583  0.00  0.00    +0.000 HD
BRANCH  19  21
ATOM     21  C   UNL     1      49.149   8.826  13.592  0.00  0.00    +0.000 A 
ATOM     22  C   UNL     1      49.365  10.185  13.434  0.00  0.00    +0.000 A 
ATOM     23  S   UNL     1      49.209  11.060  14.896  0.00  0.00    +0.000 S 
ATOM     24  C   UNL     1      48.882   9.641  15.779  0.00  0.00    +0.000 A 
ATOM     25  N   UNL     1      48.614   9.686  17.112  0.00  0.00    +0.000 NA
ATOM     26  C   UNL     1      48.366   8.532  17.637  0.00  0.00    +0.000 A 
ATOM     27  N   UNL     1      48.386   7.338  16.962  0.00  0.00    +0.000 N 
ATOM     28  C   UNL     1      48.799   7.230  15.651  0.00  0.00    +0.000 A 
ATOM     29  O   UNL     1      49.107   6.136  15.188  0.00  0.00    +0.000 OA
ATOM     30  C   UNL     1      48.948   8.512  14.983  0.00  0.00    +0.000 A 
ATOM     31  H   UNL     1      48.282   6.464  17.453  0.00  0.00    +0.000 HD
ENDBRANCH  19  21
ENDBRANCH  17  19
ENDBRANCH   1  17
TORSDOF 6
ENDMDL
MODEL 9
REMARK VINA RESULT:    -7.227      2.544      3.753
REMARK INTER + INTRA:         -10.556
REMARK INTER:                  -9.596
REMARK INTRA:                  -0.960
REMARK UNBOUND:                -0.795
REMARK  Name = 
REMARK  6 active torsions:
REMARK  status: ('A' for Active; 'I' for Inactive)
REMARK    1  A    between atoms: C_2  and  C_3
REMARK    2  A    between atoms: C_2  and  C_19
REMARK    3  A    between atoms: C_3  and  C_4
REMARK    4  A    between atoms: C_4  and  C_5
REMARK    5  A    between atoms: C_9  and  C_10
REMARK    6  A    between atoms: C_10  and  N_11
REMARK                            x       y       z     vdW  Elec       q    Type
REMARK                         _______ _______ _______ _____ _____    ______ ____
ROOT
ATOM      1  C   UNL     1      48.902   8.766  13.240  0.00  0.00    +0.000 C 
ENDROOT
BRANCH   1   2
ATOM      2  C   UNL     1      47.485   8.844  12.719  0.00  0.00    +0.000 A 
ATOM      3  C   UNL     1      46.842  10.055  12.439  0.00  0.00    +0.000 A 
ATOM      4  C   UNL     1      45.564  10.069  11.880  0.00  0.00    +0.000 A 
ATOM      5  C   UNL     1      44.925   8.872  11.562  0.00  0.00    +0.000 A 
ATOM      6  C   UNL     1      45.561   7.647  11.795  0.00  0.00    +0.000 A 
ATOM      7  C   UNL     1      46.826   7.645  12.401  0.00  0.00    +0.000 A 
BRANCH   6   8
ATOM      8  C   UNL     1      44.931   6.349  11.344  0.00  0.00    +0.000 C 
BRANCH   8   9
ATOM      9  N   UNL     1      45.367   6.000  10.001  0.00  0.00    +0.000 N 
ATOM     10  C   UNL     1      45.132   4.646   9.690  0.00  0.00    +0.000 A 
ATOM     11  C   UNL     1      45.521   4.173   8.439  0.00  0.00    +0.000 A 
ATOM     12  C   UNL     1      45.290   2.838   8.108  0.00  0.00    +0.000 A 
ATOM     13  C   UNL     1      44.671   2.007   9.030  0.00  0.00    +0.000 A 
ATOM     14  C   UNL     1      44.299   2.554  10.242  0.00  0.00    +0.000 A 
ATOM     15  N   UNL     1      44.512   3.843  10.582  0.00  0.00    +0.000 NA
ATOM     16  H   UNL     1      46.353   6.205   9.861  0.00  0.00    +0.000 HD
ENDBRANCH   8   9
ENDBRANCH   6   8
ENDBRANCH   1   2
BRANCH   1  17
ATOM     17  C   UNL     1      49.256   7.517  14.042  0.00  0.00    +0.000 C 
BRANCH  17  19
ATOM     18  N   UNL     1      48.072   8.479  16.008  0.00  0.00    +0.000 NA
ATOM     19  C   UNL     1      48.794   7.542  15.490  0.00  0.00    +0.000 C 
ATOM     20  H   UNL     1      47.777   9.185  15.334  0.00  0.00    +0.000 HD
BRANCH  19  21
ATOM     21  C   UNL     1      49.198   6.475  16.401  0.00  0.00    +0.000 A 
ATOM     22  C   UNL     1      50.301   6.567  17.235  0.00  0.00    +0.000 A 
ATOM     23  S   UNL     1      50.453   5.230  18.291  0.00  0.00    +0.000 S 
ATOM     24  C   UNL     1      49.070   4.482  17.638  0.00  0.00    +0.000 A 
ATOM     25  N   UNL     1      48.614   3.295  18.125  0.00  0.00    +0.000 NA
ATOM     26  C   UNL     1      47.546   2.865  17.541  0.00  0.00    +0.000 A 
ATOM     27  N   UNL     1      46.907   3.493  16.503  0.00  0.00    +0.000 N 
ATOM     28  C   UNL     1      47.418   4.613  15.882  0.00  0.00    +0.000 A 
ATOM     29  O   UNL     1      47.001   4.951  14.778  0.00  0.00    +0.000 OA
ATOM     30  C   UNL     1      48.535   5.211  16.593  0.00  0.00    +0.000 A 
ATOM     31  H   UNL     1      46.135   3.052  16.028  0.00  0.00    +0.000 HD
ENDBRANCH  19  21
ENDBRANCH  17  19
ENDBRANCH   1  17
TORSDOF 6
ENDMDL
