MODEL 1
REMARK VINA RESULT:    -8.519      0.000      0.000
REMARK INTER + INTRA:         -11.856
REMARK INTER:                 -11.010
REMARK INTRA:                  -0.846
REMARK UNBOUND:                -0.846
REMARK  Name = 
REMARK  6 active torsions:
REMARK  status: ('A' for Active; 'I' for Inactive)
REMARK    1  A    between atoms: C_1  and  N_2
REMARK    2  A    between atoms: C_4  and  C_5
REMARK    3  A    between atoms: N_7  and  C_8
REMARK    4  A    between atoms: C_8  and  C_9
REMARK    5  A    between atoms: N_13  and  C_14
REMARK    6  A    between atoms: C_14  and  C_15
REMARK                            x       y       z     vdW  Elec       q    Type
REMARK                         _______ _______ _______ _____ _____    ______ ____
ROOT
ATOM      1  C   UNL     1      47.345   8.363  13.656  0.00  0.00    +0.000 C 
ENDROOT
BRANCH   1   2
ATOM      2  C   UNL     1      46.513   7.536  12.726  0.00  0.00    +0.000 A 
ATOM      3  C   UNL     1      46.983   6.336  12.197  0.00  0.00    +0.000 A 
ATOM      4  C   UNL     1      46.169   5.585  11.348  0.00  0.00    +0.000 A 
ATOM      5  C   UNL     1      44.903   6.054  11.020  0.00  0.00    +0.000 A 
ATOM      6  N   UNL     1      44.070   5.430  10.114  0.00  0.00    +0.000 N 
ATOM      7  N   UNL     1      44.434   7.214  11.518  0.00  0.00    +0.000 NA
ATOM      8  C   UNL     1      45.232   7.920  12.356  0.00  0.00    +0.000 A 
ATOM      9  H   UNL     1      43.189   5.931  10.088  0.00  0.00    +0.000 HD
BRANCH   6  10
ATOM     10  C   UNL     1      43.961   3.984  10.071  0.00  0.00    +0.000 C 
BRANCH  10  11
ATOM     11  C   UNL     1      44.952   3.387   9.092  0.00  0.00    +0.000 A 
ATOM     12  C   UNL     1      45.211   2.005   9.115  0.00  0.00    +0.000 A 
ATOM     13  C   UNL     1      46.119   1.444   8.213  0.00  0.00    +0.000 A 
ATOM     14  C   UNL     1      46.756   2.255   7.283  0.00  0.00    +0.000 A 
ATOM     15  F   UNL     1      47.634   1.715   6.427  0.00  0.00    +0.000 F 
ATOM     16  C   UNL     1      46.499   3.618   7.225  0.00  0.00    +0.000 A 
ATOM     17  C   UNL     1      45.591   4.179   8.122  0.00  0.00    +0.000 A 
ENDBRANCH  10  11
ENDBRANCH   6  10
ENDBRANCH   1   2
BRANCH   1  20
ATOM     18  C   UNL     1      48.999   7.107  14.934  0.00  0.00    +0.000 C 
ATOM     19  O   UNL     1      49.776   7.144  13.989  0.00  0.00    +0.000 OA
ATOM     20  N   UNL     1      47.732   7.653  14.858  0.00  0.00    +0.000 N 
ATOM     21  H   UNL     1      47.138   7.684  15.674  0.00  0.00    +0.000 HD
BRANCH  18  25
ATOM     22  C   UNL     1      51.068   6.358  19.415  0.00  0.00    +0.000 C 
ATOM     23  N   UNL     1      50.269   6.165  18.226  0.00  0.00    +0.000 N 
ATOM     24  C   UNL     1      50.254   6.983  17.129  0.00  0.00    +0.000 A 
ATOM     25  C   UNL     1      49.339   6.479  16.211  0.00  0.00    +0.000 A 
ATOM     26  C   UNL     1      48.786   5.280  16.801  0.00  0.00    +0.000 A 
ATOM     27  C   UNL     1      47.875   4.269  16.500  0.00  0.00    +0.000 A 
ATOM     28 CL   UNL     1      47.076   4.207  15.008  0.00  0.00    +0.000 Cl
ATOM     29  N   UNL     1      47.624   3.251  17.343  0.00  0.00    +0.000 NA
ATOM     30  C   UNL     1      48.286   3.246  18.505  0.00  0.00    +0.000 A 
ATOM     31  N   UNL     1      49.187   4.141  18.935  0.00  0.00    +0.000 NA
ATOM     32  C   UNL     1      49.396   5.127  18.045  0.00  0.00    +0.000 A 
ENDBRANCH  18  25
ENDBRANCH   1  20
TORSDOF 5
ENDMDL
MODEL 2
REMARK VINA RESULT:    -8.450      2.312      2.998
REMARK INTER + INTRA:         -11.766
REMARK INTER:                 -10.853
REMARK INTRA:                  -0.913
REMARK UNBOUND:                -0.846
REMARK  Name = 
REMARK  6 active torsions:
REMARK  status: ('A' for Active; 'I' for Inactive)
REMARK    1  A    between atoms: C_1  and  N_2
REMARK    2  A    between atoms: C_4  and  C_5
REMARK    3  A    between atoms: N_7  and  C_8
REMARK    4  A    between atoms: C_8  and  C_9
REMARK    5  A    between atoms: N_13  and  C_14
REMARK    6  A    between atoms: C_14  and  C_15
REMARK                            x       y       z     vdW  Elec       q    Type
REMARK                         _______ _______ _______ _____ _____    ______ ____
ROOT
ATOM      1  C   UNL     1      48.299   6.511  14.079  0.00  0.00    +0.000 C 
ENDROOT
BRANCH   1   2
ATOM      2  C   UNL     1      47.228   5.911  13.222  0.00  0.00    +0.000 A 
ATOM      3  C   UNL     1      46.634   6.630  12.187  0.00  0.00    +0.000 A 
ATOM      4  C   UNL     1      45.652   6.028  11.398  0.00  0.00    +0.000 A 
ATOM      5  C   UNL     1      45.260   4.722  11.669  0.00  0.00    +0.000 A 
ATOM      6  N   UNL     1      44.232   4.083  11.006  0.00  0.00    +0.000 N 
ATOM      7  N   UNL     1      45.820   4.015  12.668  0.00  0.00    +0.000 NA
ATOM      8  C   UNL     1      46.786   4.610  13.411  0.00  0.00    +0.000 A 
ATOM      9  H   UNL     1      44.176   3.128  11.345  0.00  0.00    +0.000 HD
BRANCH   6  10
ATOM     10  C   UNL     1      44.047   4.245   9.577  0.00  0.00    +0.000 C 
BRANCH  10  11
ATOM     11  C   UNL     1      45.064   3.437   8.796  0.00  0.00    +0.000 A 
ATOM     12  C   UNL     1      45.934   4.086   7.901  0.00  0.00    +0.000 A 
ATOM     13  C   UNL     1      46.879   3.350   7.181  0.00  0.00    +0.000 A 
ATOM     14  C   UNL     1      46.966   1.976   7.362  0.00  0.00    +0.000 A 
ATOM     15  F   UNL     1      47.866   1.274   6.661  0.00  0.00    +0.000 F 
ATOM     16  C   UNL     1      46.134   1.317   8.257  0.00  0.00    +0.000 A 
ATOM     17  C   UNL     1      45.194   2.049   8.979  0.00  0.00    +0.000 A 
ENDBRANCH  10  11
ENDBRANCH   6  10
ENDBRANCH   1   2
BRANCH   1  20
ATOM     18  C   UNL     1      49.102   6.286  16.371  0.00  0.00    +0.000 C 
ATOM     19  O   UNL     1      50.259   6.248  15.975  0.00  0.00    +0.000 OA
ATOM     20  N   UNL     1      48.035   6.374  15.497  0.00  0.00    +0.000 N 
ATOM     21  H   UNL     1      47.095   6.487  15.847  0.00  0.00    +0.000 HD
BRANCH  18  25
ATOM     22  C   UNL     1      48.575   4.586  21.035  0.00  0.00    +0.000 C 
ATOM     23  N   UNL     1      48.533   5.456  19.882  0.00  0.00    +0.000 N 
ATOM     24  C   UNL     1      48.909   5.121  18.609  0.00  0.00    +0.000 A 
ATOM     25  C   UNL     1      48.752   6.233  17.790  0.00  0.00    +0.000 A 
ATOM     26  C   UNL     1      48.240   7.291  18.632  0.00  0.00    +0.000 A 
ATOM     27  C   UNL     1      47.835   8.621  18.540  0.00  0.00    +0.000 A 
ATOM     28 CL   UNL     1      47.820   9.447  17.061  0.00  0.00    +0.000 Cl
ATOM     29  N   UNL     1      47.374   9.309  19.601  0.00  0.00    +0.000 NA
ATOM     30  C   UNL     1      47.321   8.661  20.770  0.00  0.00    +0.000 A 
ATOM     31  N   UNL     1      47.673   7.391  21.015  0.00  0.00    +0.000 NA
ATOM     32  C   UNL     1      48.118   6.760  19.915  0.00  0.00    +0.000 A 
ENDBRANCH  18  25
ENDBRANCH   1  20
TORSDOF 5
ENDMDL
MODEL 3
REMARK VINA RESULT:    -8.320      2.018      2.294
REMARK INTER + INTRA:         -11.598
REMARK INTER:                 -10.729
REMARK INTRA:                  -0.869
REMARK UNBOUND:                -0.846
REMARK  Name = 
REMARK  6 active torsions:
REMARK  status: ('A' for Active; 'I' for Inactive)
REMARK    1  A    between atoms: C_1  and  N_2
REMARK    2  A    between atoms: C_4  and  C_5
REMARK    3  A    between atoms: N_7  and  C_8
REMARK    4  A    between atoms: C_8  and  C_9
REMARK    5  A    between atoms: N_13  and  C_14
REMARK    6  A    between atoms: C_14  and  C_15
REMARK                            x       y       z     vdW  Elec       q    Type
REMARK                         _______ _______ _______ _____ _____    ______ ____
ROOT
ATOM      1  C   UNL     1      48.431   6.731  13.921  0.00  0.00    +0.000 C 
ENDROOT
BRANCH   1   2
ATOM      2  C   UNL     1      47.323   6.106  13.131  0.00  0.00    +0.000 A 
ATOM      3  C   UNL     1      46.696   6.787  12.090  0.00  0.00    +0.000 A 
ATOM      4  C   UNL     1      45.679   6.162  11.365  0.00  0.00    +0.000 A 
ATOM      5  C   UNL     1      45.287   4.873  11.706  0.00  0.00    +0.000 A 
ATOM      6  N   UNL     1      44.229   4.218  11.111  0.00  0.00    +0.000 N 
ATOM      7  N   UNL     1      45.878   4.203  12.713  0.00  0.00    +0.000 NA
ATOM      8  C   UNL     1      46.877   4.819  13.393  0.00  0.00    +0.000 A 
ATOM      9  H   UNL     1      44.177   3.278  11.492  0.00  0.00    +0.000 HD
BRANCH   6  10
ATOM     10  C   UNL     1      43.990   4.321   9.684  0.00  0.00    +0.000 C 
BRANCH  10  11
ATOM     11  C   UNL     1      45.009   3.520   8.898  0.00  0.00    +0.000 A 
ATOM     12  C   UNL     1      45.097   2.128   9.081  0.00  0.00    +0.000 A 
ATOM     13  C   UNL     1      46.028   1.381   8.356  0.00  0.00    +0.000 A 
ATOM     14  C   UNL     1      46.861   2.015   7.443  0.00  0.00    +0.000 A 
ATOM     15  F   UNL     1      47.760   1.296   6.758  0.00  0.00    +0.000 F 
ATOM     16  C   UNL     1      46.777   3.384   7.228  0.00  0.00    +0.000 A 
ATOM     17  C   UNL     1      45.845   4.131   7.946  0.00  0.00    +0.000 A 
ENDBRANCH  10  11
ENDBRANCH   6  10
ENDBRANCH   1   2
BRANCH   1  20
ATOM     18  C   UNL     1      49.040   6.601  16.279  0.00  0.00    +0.000 C 
ATOM     19  O   UNL     1      50.119   6.102  15.985  0.00  0.00    +0.000 OA
ATOM     20  N   UNL     1      48.098   6.917  15.319  0.00  0.00    +0.000 N 
ATOM     21  H   UNL     1      47.251   7.402  15.574  0.00  0.00    +0.000 HD
BRANCH  18  25
ATOM     22  C   UNL     1      47.346   9.061  20.278  0.00  0.00    +0.000 C 
ATOM     23  N   UNL     1      47.882   8.012  19.442  0.00  0.00    +0.000 N 
ATOM     24  C   UNL     1      48.199   8.126  18.115  0.00  0.00    +0.000 A 
ATOM     25  C   UNL     1      48.657   6.894  17.659  0.00  0.00    +0.000 A 
ATOM     26  C   UNL     1      48.617   5.999  18.794  0.00  0.00    +0.000 A 
ATOM     27  C   UNL     1      48.920   4.677  19.116  0.00  0.00    +0.000 A 
ATOM     28 CL   UNL     1      49.596   3.616  17.981  0.00  0.00    +0.000 Cl
ATOM     29  N   UNL     1      48.756   4.182  20.356  0.00  0.00    +0.000 NA
ATOM     30  C   UNL     1      48.277   5.016  21.286  0.00  0.00    +0.000 A 
ATOM     31  N   UNL     1      47.942   6.305  21.130  0.00  0.00    +0.000 NA
ATOM     32  C   UNL     1      48.135   6.738  19.872  0.00  0.00    +0.000 A 
ENDBRANCH  18  25
ENDBRANCH   1  20
TORSDOF 5
ENDMDL
MODEL 4
REMARK VINA RESULT:    -7.691      1.592      2.075
REMARK INTER + INTRA:         -10.785
REMARK INTER:                  -9.776
REMARK INTRA:                  -1.010
REMARK UNBOUND:                -0.846
REMARK  Name = 
REMARK  6 active torsions:
REMARK  status: ('A' for Active; 'I' for Inactive)
REMARK    1  A    between atoms: C_1  and  N_2
REMARK    2  A    between atoms: C_4  and  C_5
REMARK    3  A    between atoms: N_7  and  C_8
REMARK    4  A    between atoms: C_8  and  C_9
REMARK    5  A    between atoms: N_13  and  C_14
REMARK    6  A    between atoms: C_14  and  C_15
REMARK                            x       y       z     vdW  Elec       q    Type
REMARK                         _______ _______ _______ _____ _____    ______ ____
ROOT
ATOM      1  C   UNL     1      47.360   7.719  13.517  0.00  0.00    +0.000 C 
ENDROOT
BRANCH   1   2
ATOM      2  C   UNL     1      46.539   6.678  12.821  0.00  0.00    +0.000 A 
ATOM      3  C   UNL     1      45.589   7.020  11.861  0.00  0.00    +0.000 A 
ATOM      4  C   UNL     1      44.856   6.019  11.221  0.00  0.00    +0.000 A 
ATOM      5  C   UNL     1      45.067   4.689  11.566  0.00  0.00    +0.000 A 
ATOM      6  N   UNL     1      44.322   3.645  11.059  0.00  0.00    +0.000 N 
ATOM      7  N   UNL     1      45.976   4.341  12.496  0.00  0.00    +0.000 NA
ATOM      8  C   UNL     1      46.692   5.327  13.092  0.00  0.00    +0.000 A 
ATOM      9  H   UNL     1      44.700   2.775  11.420  0.00  0.00    +0.000 HD
BRANCH   6  10
ATOM     10  C   UNL     1      43.926   3.615   9.664  0.00  0.00    +0.000 C 
BRANCH  10  11
ATOM     11  C   UNL     1      45.056   3.124   8.782  0.00  0.00    +0.000 A 
ATOM     12  C   UNL     1      45.770   4.037   7.986  0.00  0.00    +0.000 A 
ATOM     13  C   UNL     1      46.817   3.594   7.174  0.00  0.00    +0.000 A 
ATOM     14  C   UNL     1      47.160   2.249   7.165  0.00  0.00    +0.000 A 
ATOM     15  F   UNL     1      48.158   1.827   6.376  0.00  0.00    +0.000 F 
ATOM     16  C   UNL     1      46.486   1.332   7.959  0.00  0.00    +0.000 A 
ATOM     17  C   UNL     1      45.444   1.772   8.773  0.00  0.00    +0.000 A 
ENDBRANCH  10  11
ENDBRANCH   6  10
ENDBRANCH   1   2
BRANCH   1  20
ATOM     18  C   UNL     1      48.973   7.698  15.347  0.00  0.00    +0.000 C 
ATOM     19  O   UNL     1      48.404   8.645  15.875  0.00  0.00    +0.000 OA
ATOM     20  N   UNL     1      48.554   7.181  14.136  0.00  0.00    +0.000 N 
ATOM     21  H   UNL     1      48.986   6.349  13.759  0.00  0.00    +0.000 HD
BRANCH  18  25
ATOM     22  C   UNL     1      53.659   6.892  16.866  0.00  0.00    +0.000 C 
ATOM     23  N   UNL     1      52.246   6.706  16.627  0.00  0.00    +0.000 N 
ATOM     24  C   UNL     1      51.432   7.554  15.925  0.00  0.00    +0.000 A 
ATOM     25  C   UNL     1      50.138   7.046  15.943  0.00  0.00    +0.000 A 
ATOM     26  C   UNL     1      50.194   5.813  16.696  0.00  0.00    +0.000 A 
ATOM     27  C   UNL     1      49.353   4.781  17.110  0.00  0.00    +0.000 A 
ATOM     28 CL   UNL     1      47.718   4.735  16.670  0.00  0.00    +0.000 Cl
ATOM     29  N   UNL     1      49.799   3.731  17.823  0.00  0.00    +0.000 NA
ATOM     30  C   UNL     1      51.100   3.715  18.134  0.00  0.00    +0.000 A 
ATOM     31  N   UNL     1      52.027   4.628  17.811  0.00  0.00    +0.000 NA
ATOM     32  C   UNL     1      51.519   5.645  17.094  0.00  0.00    +0.000 A 
ENDBRANCH  18  25
ENDBRANCH   1  20
TORSDOF 5
ENDMDL
MODEL 5
REMARK VINA RESULT:    -7.588      2.460      2.727
REMARK INTER + INTRA:         -10.652
REMARK INTER:                  -9.833
REMARK INTRA:                  -0.819
REMARK UNBOUND:                -0.846
REMARK  Name = 
REMARK  6 active torsions:
REMARK  status: ('A' for Active; 'I' for Inactive)
REMARK    1  A    between atoms: C_1  and  N_2
REMARK    2  A    between atoms: C_4  and  C_5
REMARK    3  A    between atoms: N_7  and  C_8
REMARK    4  A    between atoms: C_8  and  C_9
REMARK    5  A    between atoms: N_13  and  C_14
REMARK    6  A    between atoms: C_14  and  C_15
REMARK                            x       y       z     vdW  Elec       q    Type
REMARK                         _______ _______ _______ _____ _____    ______ ____
ROOT
ATOM      1  C   UNL     1      47.743   9.138  14.149  0.00  0.00    +0.000 C 
ENDROOT
BRANCH   1   2
ATOM      2  C   UNL     1      46.926   8.304  13.212  0.00  0.00    +0.000 A 
ATOM      3  C   UNL     1      47.267   6.984  12.924  0.00  0.00    +0.000 A 
ATOM      4  C   UNL     1      46.468   6.233  12.059  0.00  0.00    +0.000 A 
ATOM      5  C   UNL     1      45.351   6.819  11.475  0.00  0.00    +0.000 A 
ATOM      6  N   UNL     1      44.563   6.187  10.536  0.00  0.00    +0.000 N 
ATOM      7  N   UNL     1      45.010   8.095  11.738  0.00  0.00    +0.000 NA
ATOM      8  C   UNL     1      45.787   8.802  12.596  0.00  0.00    +0.000 A 
ATOM      9  H   UNL     1      43.786   6.797  10.305  0.00  0.00    +0.000 HD
BRANCH   6  10
ATOM     10  C   UNL     1      44.230   4.781  10.662  0.00  0.00    +0.000 C 
BRANCH  10  11
ATOM     11  C   UNL     1      44.929   3.953   9.602  0.00  0.00    +0.000 A 
ATOM     12  C   UNL     1      45.649   4.594   8.577  0.00  0.00    +0.000 A 
ATOM     13  C   UNL     1      46.302   3.840   7.599  0.00  0.00    +0.000 A 
ATOM     14  C   UNL     1      46.248   2.453   7.649  0.00  0.00    +0.000 A 
ATOM     15  F   UNL     1      46.867   1.734   6.702  0.00  0.00    +0.000 F 
ATOM     16  C   UNL     1      45.564   1.797   8.663  0.00  0.00    +0.000 A 
ATOM     17  C   UNL     1      44.917   2.548   9.643  0.00  0.00    +0.000 A 
ENDBRANCH  10  11
ENDBRANCH   6  10
ENDBRANCH   1   2
BRANCH   1  20
ATOM     18  C   UNL     1      48.315   9.414  16.503  0.00  0.00    +0.000 C 
ATOM     19  O   UNL     1      49.213  10.191  16.207  0.00  0.00    +0.000 OA
ATOM     20  N   UNL     1      47.541   8.794  15.541  0.00  0.00    +0.000 N 
ATOM     21  H   UNL     1      46.754   8.221  15.809  0.00  0.00    +0.000 HD
BRANCH  18  25
ATOM     22  C   UNL     1      46.767   9.853  21.229  0.00  0.00    +0.000 C 
ATOM     23  N   UNL     1      47.284   9.285  20.004  0.00  0.00    +0.000 N 
ATOM     24  C   UNL     1      47.533   9.969  18.845  0.00  0.00    +0.000 A 
ATOM     25  C   UNL     1      47.994   9.072  17.888  0.00  0.00    +0.000 A 
ATOM     26  C   UNL     1      48.028   7.775  18.528  0.00  0.00    +0.000 A 
ATOM     27  C   UNL     1      48.373   6.456  18.239  0.00  0.00    +0.000 A 
ATOM     28 CL   UNL     1      49.016   6.013  16.736  0.00  0.00    +0.000 Cl
ATOM     29  N   UNL     1      48.281   5.471  19.152  0.00  0.00    +0.000 NA
ATOM     30  C   UNL     1      47.830   5.807  20.366  0.00  0.00    +0.000 A 
ATOM     31  N   UNL     1      47.461   7.023  20.791  0.00  0.00    +0.000 NA
ATOM     32  C   UNL     1      47.584   7.961  19.836  0.00  0.00    +0.000 A 
ENDBRANCH  18  25
ENDBRANCH   1  20
TORSDOF 5
ENDMDL
MODEL 6
REMARK VINA RESULT:    -7.194      2.358      3.260
REMARK INTER + INTRA:         -10.143
REMARK INTER:                  -9.398
REMARK INTRA:                  -0.744
REMARK UNBOUND:                -0.846
REMARK  Name = 
REMARK  6 active torsions:
REMARK  status: ('A' for Active; 'I' for Inactive)
REMARK    1  A    between atoms: C_1  and  N_2
REMARK    2  A    between atoms: C_4  and  C_5
REMARK    3  A    between atoms: N_7  and  C_8
REMARK    4  A    between atoms: C_8  and  C_9
REMARK    5  A    between atoms: N_13  and  C_14
REMARK    6  A    between atoms: C_14  and  C_15
REMARK                            x       y       z     vdW  Elec       q    Type
REMARK                         _______ _______ _______ _____ _____    ______ ____
ROOT
ATOM      1  C   UNL     1      47.159   4.316  15.565  0.00  0.00    +0.000 C 
ENDROOT
BRANCH   1   2
ATOM      2  C   UNL     1      46.578   4.485  14.196  0.00  0.00    +0.000 A 
ATOM      3  C   UNL     1      46.599   3.452  13.262  0.00  0.00    +0.000 A 
ATOM      4  C   UNL     1      46.030   3.643  12.001  0.00  0.00    +0.000 A 
ATOM      5  C   UNL     1      45.470   4.874  11.682  0.00  0.00    +0.000 A 
ATOM      6  N   UNL     1      44.975   5.184  10.432  0.00  0.00    +0.000 N 
ATOM      7  N   UNL     1      45.447   5.886  12.570  0.00  0.00    +0.000 NA
ATOM      8  C   UNL     1      45.986   5.674  13.796  0.00  0.00    +0.000 A 
ATOM      9  H   UNL     1      44.575   6.116  10.466  0.00  0.00    +0.000 HD
BRANCH   6  10
ATOM     10  C   UNL     1      44.219   4.214   9.664  0.00  0.00    +0.000 C 
BRANCH  10  11
ATOM     11  C   UNL     1      45.131   3.375   8.790  0.00  0.00    +0.000 A 
ATOM     12  C   UNL     1      45.938   3.997   7.821  0.00  0.00    +0.000 A 
ATOM     13  C   UNL     1      46.785   3.233   7.016  0.00  0.00    +0.000 A 
ATOM     14  C   UNL     1      46.838   1.855   7.183  0.00  0.00    +0.000 A 
ATOM     15  F   UNL     1      47.644   1.125   6.400  0.00  0.00    +0.000 F 
ATOM     16  C   UNL     1      46.068   1.220   8.148  0.00  0.00    +0.000 A 
ATOM     17  C   UNL     1      45.225   1.982   8.956  0.00  0.00    +0.000 A 
ENDBRANCH  10  11
ENDBRANCH   6  10
ENDBRANCH   1   2
BRANCH   1  20
ATOM     18  C   UNL     1      48.875   5.610  16.719  0.00  0.00    +0.000 C 
ATOM     19  O   UNL     1      49.580   4.614  16.812  0.00  0.00    +0.000 OA
ATOM     20  N   UNL     1      47.618   5.561  16.147  0.00  0.00    +0.000 N 
ATOM     21  H   UNL     1      47.087   6.408  16.006  0.00  0.00    +0.000 HD
BRANCH  18  25
ATOM     22  C   UNL     1      51.133  10.057  16.942  0.00  0.00    +0.000 C 
ATOM     23  N   UNL     1      50.308   8.921  17.286  0.00  0.00    +0.000 N 
ATOM     24  C   UNL     1      50.207   7.757  16.573  0.00  0.00    +0.000 A 
ATOM     25  C   UNL     1      49.294   6.923  17.208  0.00  0.00    +0.000 A 
ATOM     26  C   UNL     1      48.834   7.637  18.379  0.00  0.00    +0.000 A 
ATOM     27  C   UNL     1      47.976   7.462  19.462  0.00  0.00    +0.000 A 
ATOM     28 CL   UNL     1      47.132   6.012  19.704  0.00  0.00    +0.000 Cl
ATOM     29  N   UNL     1      47.815   8.400  20.413  0.00  0.00    +0.000 NA
ATOM     30  C   UNL     1      48.514   9.532  20.276  0.00  0.00    +0.000 A 
ATOM     31  N   UNL     1      49.373   9.846  19.296  0.00  0.00    +0.000 NA
ATOM     32  C   UNL     1      49.493   8.865  18.384  0.00  0.00    +0.000 A 
ENDBRANCH  18  25
ENDBRANCH   1  20
TORSDOF 5
ENDMDL
MODEL 7
REMARK VINA RESULT:    -7.106      2.068      3.245
REMARK INTER + INTRA:         -10.030
REMARK INTER:                  -9.189
REMARK INTRA:                  -0.841
REMARK UNBOUND:                -0.846
REMARK  Name = 
REMARK  6 active torsions:
REMARK  status: ('A' for Active; 'I' for Inactive)
REMARK    1  A    between atoms: C_1  and  N_2
REMARK    2  A    between atoms: C_4  and  C_5
REMARK    3  A    between atoms: N_7  and  C_8
REMARK    4  A    between atoms: C_8  and  C_9
REMARK    5  A    between atoms: N_13  and  C_14
REMARK    6  A    between atoms: C_14  and  C_15
REMARK                            x       y       z     vdW  Elec       q    Type
REMARK                         _______ _______ _______ _____ _____    ______ ____
ROOT
ATOM      1  C   UNL     1      46.884   4.416  15.511  0.00  0.00    +0.000 C 
ENDROOT
BRANCH   1   2
ATOM      2  C   UNL     1      46.388   4.551  14.105  0.00  0.00    +0.000 A 
ATOM      3  C   UNL     1      46.454   3.492  13.203  0.00  0.00    +0.000 A 
ATOM      4  C   UNL     1      45.963   3.652  11.906  0.00  0.00    +0.000 A 
ATOM      5  C   UNL     1      45.434   4.878  11.520  0.00  0.00    +0.000 A 
ATOM      6  N   UNL     1      45.018   5.157  10.235  0.00  0.00    +0.000 N 
ATOM      7  N   UNL     1      45.368   5.914  12.377  0.00  0.00    +0.000 NA
ATOM      8  C   UNL     1      45.831   5.733  13.638  0.00  0.00    +0.000 A 
ATOM      9  H   UNL     1      44.624   6.092  10.219  0.00  0.00    +0.000 HD
BRANCH   6  10
ATOM     10  C   UNL     1      44.300   4.171   9.449  0.00  0.00    +0.000 C 
BRANCH  10  11
ATOM     11  C   UNL     1      45.252   3.327   8.625  0.00  0.00    +0.000 A 
ATOM     12  C   UNL     1      45.323   1.939   8.844  0.00  0.00    +0.000 A 
ATOM     13  C   UNL     1      46.193   1.152   8.085  0.00  0.00    +0.000 A 
ATOM     14  C   UNL     1      46.979   1.742   7.104  0.00  0.00    +0.000 A 
ATOM     15  F   UNL     1      47.819   0.984   6.386  0.00  0.00    +0.000 F 
ATOM     16  C   UNL     1      46.908   3.106   6.853  0.00  0.00    +0.000 A 
ATOM     17  C   UNL     1      46.038   3.892   7.606  0.00  0.00    +0.000 A 
ENDBRANCH  10  11
ENDBRANCH   6  10
ENDBRANCH   1   2
BRANCH   1  20
ATOM     18  C   UNL     1      48.956   5.271  16.472  0.00  0.00    +0.000 C 
ATOM     19  O   UNL     1      49.349   4.129  16.671  0.00  0.00    +0.000 OA
ATOM     20  N   UNL     1      47.710   5.528  15.932  0.00  0.00    +0.000 N 
ATOM     21  H   UNL     1      47.439   6.473  15.701  0.00  0.00    +0.000 HD
BRANCH  18  25
ATOM     22  C   UNL     1      51.693   8.543  19.065  0.00  0.00    +0.000 C 
ATOM     23  N   UNL     1      50.995   7.902  17.973  0.00  0.00    +0.000 N 
ATOM     24  C   UNL     1      50.238   6.765  18.062  0.00  0.00    +0.000 A 
ATOM     25  C   UNL     1      49.759   6.450  16.795  0.00  0.00    +0.000 A 
ATOM     26  C   UNL     1      50.258   7.473  15.904  0.00  0.00    +0.000 A 
ATOM     27  C   UNL     1      50.196   7.833  14.559  0.00  0.00    +0.000 A 
ATOM     28 CL   UNL     1      49.267   6.958  13.445  0.00  0.00    +0.000 Cl
ATOM     29  N   UNL     1      50.813   8.928  14.077  0.00  0.00    +0.000 NA
ATOM     30  C   UNL     1      51.506   9.668  14.949  0.00  0.00    +0.000 A 
ATOM     31  N   UNL     1      51.658   9.452  16.263  0.00  0.00    +0.000 NA
ATOM     32  C   UNL     1      51.013   8.349  16.680  0.00  0.00    +0.000 A 
ENDBRANCH  18  25
ENDBRANCH   1  20
TORSDOF 5
ENDMDL
MODEL 8
REMARK VINA RESULT:    -7.033      1.947      2.265
REMARK INTER + INTRA:          -9.936
REMARK INTER:                  -9.266
REMARK INTRA:                  -0.669
REMARK UNBOUND:                -0.846
REMARK  Name = 
REMARK  6 active torsions:
REMARK  status: ('A' for Active; 'I' for Inactive)
REMARK    1  A    between atoms: C_1  and  N_2
REMARK    2  A    between atoms: C_4  and  C_5
REMARK    3  A    between atoms: N_7  and  C_8
REMARK    4  A    between atoms: C_8  and  C_9
REMARK    5  A    between atoms: N_13  and  C_14
REMARK    6  A    between atoms: C_14  and  C_15
REMARK                            x       y       z     vdW  Elec       q    Type
REMARK                         _______ _______ _______ _____ _____    ______ ____
ROOT
ATOM      1  C   UNL     1      48.077   8.285  14.294  0.00  0.00    +0.000 C 
ENDROOT
BRANCH   1   2
ATOM      2  C   UNL     1      47.127   7.643  13.332  0.00  0.00    +0.000 A 
ATOM      3  C   UNL     1      47.332   6.350  12.857  0.00  0.00    +0.000 A 
ATOM      4  C   UNL     1      46.413   5.779  11.975  0.00  0.00    +0.000 A 
ATOM      5  C   UNL     1      45.311   6.519  11.560  0.00  0.00    +0.000 A 
ATOM      6  N   UNL     1      44.407   6.074  10.619  0.00  0.00    +0.000 N 
ATOM      7  N   UNL     1      45.100   7.772  12.005  0.00  0.00    +0.000 NA
ATOM      8  C   UNL     1      45.994   8.301  12.876  0.00  0.00    +0.000 A 
ATOM      9  H   UNL     1      43.670   6.766  10.528  0.00  0.00    +0.000 HD
BRANCH   6  10
ATOM     10  C   UNL     1      43.965   4.693  10.598  0.00  0.00    +0.000 C 
BRANCH  10  11
ATOM     11  C   UNL     1      44.757   3.877   9.596  0.00  0.00    +0.000 A 
ATOM     12  C   UNL     1      44.744   2.473   9.671  0.00  0.00    +0.000 A 
ATOM     13  C   UNL     1      45.466   1.712   8.748  0.00  0.00    +0.000 A 
ATOM     14  C   UNL     1      46.190   2.348   7.747  0.00  0.00    +0.000 A 
ATOM     15  F   UNL     1      46.890   1.614   6.872  0.00  0.00    +0.000 F 
ATOM     16  C   UNL     1      46.199   3.732   7.639  0.00  0.00    +0.000 A 
ATOM     17  C   UNL     1      45.475   4.492   8.555  0.00  0.00    +0.000 A 
ENDBRANCH  10  11
ENDBRANCH   6  10
ENDBRANCH   1   2
BRANCH   1  20
ATOM     18  C   UNL     1      49.189   7.863  16.423  0.00  0.00    +0.000 C 
ATOM     19  O   UNL     1      50.132   8.566  16.085  0.00  0.00    +0.000 OA
ATOM     20  N   UNL     1      48.122   7.620  15.580  0.00  0.00    +0.000 N 
ATOM     21  H   UNL     1      47.318   7.105  15.908  0.00  0.00    +0.000 HD
BRANCH  18  25
ATOM     22  C   UNL     1      47.419   6.337  20.834  0.00  0.00    +0.000 C 
ATOM     23  N   UNL     1      48.301   6.532  19.706  0.00  0.00    +0.000 N 
ATOM     24  C   UNL     1      48.041   7.309  18.610  0.00  0.00    +0.000 A 
ATOM     25  C   UNL     1      49.117   7.217  17.734  0.00  0.00    +0.000 A 
ATOM     26  C   UNL     1      50.078   6.337  18.359  0.00  0.00    +0.000 A 
ATOM     27  C   UNL     1      51.343   5.801  18.119  0.00  0.00    +0.000 A 
ATOM     28 CL   UNL     1      52.235   6.208  16.738  0.00  0.00    +0.000 Cl
ATOM     29  N   UNL     1      51.957   4.985  18.995  0.00  0.00    +0.000 NA
ATOM     30  C   UNL     1      51.297   4.695  20.122  0.00  0.00    +0.000 A 
ATOM     31  N   UNL     1      50.084   5.129  20.492  0.00  0.00    +0.000 NA
ATOM     32  C   UNL     1      49.529   5.943  19.578  0.00  0.00    +0.000 A 
ENDBRANCH  18  25
ENDBRANCH   1  20
TORSDOF 5
ENDMDL
MODEL 9
REMARK VINA RESULT:    -5.731      4.845      8.582
REMARK INTER + INTRA:          -8.253
REMARK INTER:                  -7.654
REMARK INTRA:                  -0.599
REMARK UNBOUND:                -0.846
REMARK  Name = 
REMARK  6 active torsions:
REMARK  status: ('A' for Active; 'I' for Inactive)
REMARK    1  A    between atoms: C_1  and  N_2
REMARK    2  A    between atoms: C_4  and  C_5
REMARK    3  A    between atoms: N_7  and  C_8
REMARK    4  A    between atoms: C_8  and  C_9
REMARK    5  A    between atoms: N_13  and  C_14
REMARK    6  A    between atoms: C_14  and  C_15
REMARK                            x       y       z     vdW  Elec       q    Type
REMARK                         _______ _______ _______ _____ _____    ______ ____
ROOT
ATOM      1  C   UNL     1      44.715   8.532  11.967  0.00  0.00    +0.000 C 
ENDROOT
BRANCH   1   2
ATOM      2  C   UNL     1      44.712   7.056  11.717  0.00  0.00    +0.000 A 
ATOM      3  C   UNL     1      43.650   6.427  11.071  0.00  0.00    +0.000 A 
ATOM      4  C   UNL     1      43.693   5.051  10.841  0.00  0.00    +0.000 A 
ATOM      5  C   UNL     1      44.788   4.317  11.282  0.00  0.00    +0.000 A 
ATOM      6  N   UNL     1      44.872   2.943  11.186  0.00  0.00    +0.000 N 
ATOM      7  N   UNL     1      45.821   4.907  11.913  0.00  0.00    +0.000 NA
ATOM      8  C   UNL     1      45.769   6.248  12.110  0.00  0.00    +0.000 A 
ATOM      9  H   UNL     1      45.783   2.652  11.524  0.00  0.00    +0.000 HD
BRANCH   6  10
ATOM     10  C   UNL     1      44.397   2.244  10.007  0.00  0.00    +0.000 C 
BRANCH  10  11
ATOM     11  C   UNL     1      45.376   2.378   8.858  0.00  0.00    +0.000 A 
ATOM     12  C   UNL     1      46.025   1.235   8.355  0.00  0.00    +0.000 A 
ATOM     13  C   UNL     1      46.924   1.347   7.292  0.00  0.00    +0.000 A 
ATOM     14  C   UNL     1      47.167   2.591   6.723  0.00  0.00    +0.000 A 
ATOM     15  F   UNL     1      48.039   2.695   5.711  0.00  0.00    +0.000 F 
ATOM     16  C   UNL     1      46.521   3.729   7.186  0.00  0.00    +0.000 A 
ATOM     17  C   UNL     1      45.620   3.619   8.244  0.00  0.00    +0.000 A 
ENDBRANCH  10  11
ENDBRANCH   6  10
ENDBRANCH   1   2
BRANCH   1  20
ATOM     18  C   UNL     1      43.827  10.642  11.124  0.00  0.00    +0.000 C 
ATOM     19  O   UNL     1      44.192  11.216  12.142  0.00  0.00    +0.000 OA
ATOM     20  N   UNL     1      44.003   9.282  10.952  0.00  0.00    +0.000 N 
ATOM     21  H   UNL     1      43.770   8.843  10.073  0.00  0.00    +0.000 HD
BRANCH  18  25
ATOM     22  C   UNL     1      43.059  12.681   6.633  0.00  0.00    +0.000 C 
ATOM     23  N   UNL     1      42.841  12.239   7.992  0.00  0.00    +0.000 N 
ATOM     24  C   UNL     1      43.770  11.641   8.800  0.00  0.00    +0.000 A 
ATOM     25  C   UNL     1      43.171  11.338  10.018  0.00  0.00    +0.000 A 
ATOM     26  C   UNL     1      41.803  11.796   9.925  0.00  0.00    +0.000 A 
ATOM     27  C   UNL     1      40.649  11.859  10.703  0.00  0.00    +0.000 A 
ATOM     28 CL   UNL     1      40.626  11.321  12.309  0.00  0.00    +0.000 Cl
ATOM     29  N   UNL     1      39.505  12.407  10.252  0.00  0.00    +0.000 NA
ATOM     30  C   UNL     1      39.513  12.892   9.005  0.00  0.00    +0.000 A 
ATOM     31  N   UNL     1      40.538  12.904   8.141  0.00  0.00    +0.000 NA
ATOM     32  C   UNL     1      41.650  12.349   8.656  0.00  0.00    +0.000 A 
ENDBRANCH  18  25
ENDBRANCH   1  20
TORSDOF 5
ENDMDL
