MODEL 1
REMARK VINA RESULT:    -7.307      0.000      0.000
REMARK INTER + INTRA:          -9.033
REMARK INTER:                  -8.588
REMARK INTRA:                  -0.444
REMARK UNBOUND:                -0.444
REMARK  Name = 
REMARK  3 active torsions:
REMARK  status: ('A' for Active; 'I' for Inactive)
REMARK    1  A    between atoms: N_5  and  C_6
REMARK    2  A    between atoms: C_6  and  C_7
REMARK    3  A    between atoms: C_11  and  C_12
REMARK                            x       y       z     vdW  Elec       q    Type
REMARK                         _______ _______ _______ _____ _____    ______ ____
ROOT
ATOM      1  C   UNL     1      44.784   4.342  11.052  0.00  0.00    +0.000 A 
ATOM      2  C   UNL     1      44.763   3.559  12.199  0.00  0.00    +0.000 A 
ATOM      3  N   UNL     1      45.397   3.909  13.341  0.00  0.00    +0.000 NA
ATOM      4  C   UNL     1      46.059   5.090  13.291  0.00  0.00    +0.000 A 
ATOM      5  C   UNL     1      46.101   5.905  12.161  0.00  0.00    +0.000 A 
ATOM      6  N   UNL     1      45.472   5.520  11.017  0.00  0.00    +0.000 NA
ENDROOT
BRANCH   5   7
ATOM      7  C   UNL     1      46.786   7.210  12.121  0.00  0.00    +0.000 A 
ATOM      8  C   UNL     1      46.102   8.390  12.443  0.00  0.00    +0.000 A 
ATOM      9  C   UNL     1      46.772   9.603  12.402  0.00  0.00    +0.000 A 
ATOM     10  N   UNL     1      48.072   9.729  12.066  0.00  0.00    +0.000 NA
ATOM     11  C   UNL     1      48.730   8.591  11.771  0.00  0.00    +0.000 A 
ATOM     12  C   UNL     1      48.143   7.334  11.784  0.00  0.00    +0.000 A 
ENDBRANCH   5   7
BRANCH   1  13
ATOM     13  C   UNL     1      43.994   3.941   9.829  0.00  0.00    +0.000 C 
BRANCH  13  18
ATOM     14  C   UNL     1      47.293   1.693   6.829  0.00  0.00    +0.000 A 
ATOM     15  C   UNL     1      46.560   1.337   7.931  0.00  0.00    +0.000 A 
ATOM     16  N   UNL     1      45.676   2.154   8.534  0.00  0.00    +0.000 NA
ATOM     17  C   UNL     1      45.544   3.391   8.028  0.00  0.00    +0.000 A 
ATOM     18  N   UNL     1      44.642   4.268   8.577  0.00  0.00    +0.000 N 
ATOM     19  N   UNL     1      46.238   3.839   6.975  0.00  0.00    +0.000 NA
ATOM     20  C   UNL     1      47.085   2.974   6.383  0.00  0.00    +0.000 A 
ATOM     21  H   UNL     1      44.935   5.225   8.435  0.00  0.00    +0.000 HD
ENDBRANCH  13  18
ENDBRANCH   1  13
TORSDOF 3
ENDMDL
MODEL 2
REMARK VINA RESULT:    -6.992      1.941      2.596
REMARK INTER + INTRA:          -8.663
REMARK INTER:                  -8.318
REMARK INTRA:                  -0.345
REMARK UNBOUND:                -0.444
REMARK  Name = 
REMARK  3 active torsions:
REMARK  status: ('A' for Active; 'I' for Inactive)
REMARK    1  A    between atoms: N_5  and  C_6
REMARK    2  A    between atoms: C_6  and  C_7
REMARK    3  A    between atoms: C_11  and  C_12
REMARK                            x       y       z     vdW  Elec       q    Type
REMARK                         _______ _______ _______ _____ _____    ______ ____
ROOT
ATOM      1  C   UNL     1      44.489   4.102  10.809  0.00  0.00    +0.000 A 
ATOM      2  C   UNL     1      43.399   4.962  10.775  0.00  0.00    +0.000 A 
ATOM      3  N   UNL     1      43.244   5.987  11.644  0.00  0.00    +0.000 NA
ATOM      4  C   UNL     1      44.236   6.122  12.556  0.00  0.00    +0.000 A 
ATOM      5  C   UNL     1      45.347   5.282  12.620  0.00  0.00    +0.000 A 
ATOM      6  N   UNL     1      45.469   4.244  11.748  0.00  0.00    +0.000 NA
ENDROOT
BRANCH   5   7
ATOM      7  C   UNL     1      46.447   5.455  13.586  0.00  0.00    +0.000 A 
ATOM      8  C   UNL     1      46.650   4.526  14.616  0.00  0.00    +0.000 A 
ATOM      9  C   UNL     1      47.696   4.711  15.508  0.00  0.00    +0.000 A 
ATOM     10  N   UNL     1      48.554   5.749  15.450  0.00  0.00    +0.000 NA
ATOM     11  C   UNL     1      48.365   6.632  14.450  0.00  0.00    +0.000 A 
ATOM     12  C   UNL     1      47.346   6.530  13.513  0.00  0.00    +0.000 A 
ENDBRANCH   5   7
BRANCH   1  13
ATOM     13  C   UNL     1      44.651   3.021   9.767  0.00  0.00    +0.000 C 
BRANCH  13  18
ATOM     14  C   UNL     1      47.658   1.655   6.022  0.00  0.00    +0.000 A 
ATOM     15  C   UNL     1      47.261   1.111   7.216  0.00  0.00    +0.000 A 
ATOM     16  N   UNL     1      46.369   1.693   8.039  0.00  0.00    +0.000 NA
ATOM     17  C   UNL     1      45.875   2.884   7.662  0.00  0.00    +0.000 A 
ATOM     18  N   UNL     1      44.941   3.521   8.441  0.00  0.00    +0.000 N 
ATOM     19  N   UNL     1      46.226   3.507   6.531  0.00  0.00    +0.000 NA
ATOM     20  C   UNL     1      47.096   2.870   5.722  0.00  0.00    +0.000 A 
ATOM     21  H   UNL     1      44.989   4.523   8.316  0.00  0.00    +0.000 HD
ENDBRANCH  13  18
ENDBRANCH   1  13
TORSDOF 3
ENDMDL
MODEL 3
REMARK VINA RESULT:    -6.933      1.701      6.286
REMARK INTER + INTRA:          -8.593
REMARK INTER:                  -8.068
REMARK INTRA:                  -0.525
REMARK UNBOUND:                -0.444
REMARK  Name = 
REMARK  3 active torsions:
REMARK  status: ('A' for Active; 'I' for Inactive)
REMARK    1  A    between atoms: N_5  and  C_6
REMARK    2  A    between atoms: C_6  and  C_7
REMARK    3  A    between atoms: C_11  and  C_12
REMARK                            x       y       z     vdW  Elec       q    Type
REMARK                         _______ _______ _______ _____ _____    ______ ____
ROOT
ATOM      1  C   UNL     1      44.310   4.927  11.265  0.00  0.00    +0.000 A 
ATOM      2  C   UNL     1      43.420   4.032  11.845  0.00  0.00    +0.000 A 
ATOM      3  N   UNL     1      43.222   2.780  11.372  0.00  0.00    +0.000 NA
ATOM      4  C   UNL     1      43.962   2.453  10.286  0.00  0.00    +0.000 A 
ATOM      5  C   UNL     1      44.868   3.321   9.679  0.00  0.00    +0.000 A 
ATOM      6  N   UNL     1      45.033   4.583  10.160  0.00  0.00    +0.000 NA
ENDROOT
BRANCH   5   7
ATOM      7  C   UNL     1      45.704   2.950   8.522  0.00  0.00    +0.000 A 
ATOM      8  C   UNL     1      46.138   1.629   8.344  0.00  0.00    +0.000 A 
ATOM      9  C   UNL     1      46.919   1.308   7.245  0.00  0.00    +0.000 A 
ATOM     10  N   UNL     1      47.298   2.201   6.309  0.00  0.00    +0.000 NA
ATOM     11  C   UNL     1      46.867   3.466   6.475  0.00  0.00    +0.000 A 
ATOM     12  C   UNL     1      46.084   3.881   7.543  0.00  0.00    +0.000 A 
ENDBRANCH   5   7
BRANCH   1  13
ATOM     13  C   UNL     1      44.548   6.285  11.880  0.00  0.00    +0.000 C 
BRANCH  13  18
ATOM     14  C   UNL     1      49.328   7.450  12.734  0.00  0.00    +0.000 A 
ATOM     15  C   UNL     1      48.446   7.605  11.697  0.00  0.00    +0.000 A 
ATOM     16  N   UNL     1      47.154   7.230  11.755  0.00  0.00    +0.000 NA
ATOM     17  C   UNL     1      46.738   6.648  12.892  0.00  0.00    +0.000 A 
ATOM     18  N   UNL     1      45.427   6.265  13.030  0.00  0.00    +0.000 N 
ATOM     19  N   UNL     1      47.532   6.427  13.945  0.00  0.00    +0.000 NA
ATOM     20  C   UNL     1      48.808   6.851  13.853  0.00  0.00    +0.000 A 
ATOM     21  H   UNL     1      45.342   5.489  13.673  0.00  0.00    +0.000 HD
ENDBRANCH  13  18
ENDBRANCH   1  13
TORSDOF 3
ENDMDL
MODEL 4
REMARK VINA RESULT:    -6.786      1.725      2.157
REMARK INTER + INTRA:          -8.420
REMARK INTER:                  -7.976
REMARK INTRA:                  -0.444
REMARK UNBOUND:                -0.444
REMARK  Name = 
REMARK  3 active torsions:
REMARK  status: ('A' for Active; 'I' for Inactive)
REMARK    1  A    between atoms: N_5  and  C_6
REMARK    2  A    between atoms: C_6  and  C_7
REMARK    3  A    between atoms: C_11  and  C_12
REMARK                            x       y       z     vdW  Elec       q    Type
REMARK                         _______ _______ _______ _____ _____    ______ ____
ROOT
ATOM      1  C   UNL     1      45.541   5.348  12.180  0.00  0.00    +0.000 A 
ATOM      2  C   UNL     1      45.297   4.506  13.257  0.00  0.00    +0.000 A 
ATOM      3  N   UNL     1      46.141   4.392  14.308  0.00  0.00    +0.000 NA
ATOM      4  C   UNL     1      47.251   5.165  14.239  0.00  0.00    +0.000 A 
ATOM      5  C   UNL     1      47.529   6.025  13.177  0.00  0.00    +0.000 A 
ATOM      6  N   UNL     1      46.674   6.106  12.121  0.00  0.00    +0.000 NA
ENDROOT
BRANCH   5   7
ATOM      7  C   UNL     1      48.717   6.897  13.123  0.00  0.00    +0.000 A 
ATOM      8  C   UNL     1      49.151   7.444  11.907  0.00  0.00    +0.000 A 
ATOM      9  C   UNL     1      50.268   8.265  11.886  0.00  0.00    +0.000 A 
ATOM     10  N   UNL     1      50.983   8.584  12.984  0.00  0.00    +0.000 NA
ATOM     11  C   UNL     1      50.555   8.069  14.152  0.00  0.00    +0.000 A 
ATOM     12  C   UNL     1      49.450   7.238  14.270  0.00  0.00    +0.000 A 
ENDBRANCH   5   7
BRANCH   1  13
ATOM     13  C   UNL     1      44.527   5.495  11.071  0.00  0.00    +0.000 C 
BRANCH  13  18
ATOM     14  C   UNL     1      46.184   2.307   7.603  0.00  0.00    +0.000 A 
ATOM     15  C   UNL     1      45.494   2.209   8.784  0.00  0.00    +0.000 A 
ATOM     16  N   UNL     1      45.121   3.273   9.520  0.00  0.00    +0.000 NA
ATOM     17  C   UNL     1      45.480   4.485   9.066  0.00  0.00    +0.000 A 
ATOM     18  N   UNL     1      45.110   5.615   9.752  0.00  0.00    +0.000 N 
ATOM     19  N   UNL     1      46.179   4.679   7.942  0.00  0.00    +0.000 NA
ATOM     20  C   UNL     1      46.501   3.586   7.221  0.00  0.00    +0.000 A 
ATOM     21  H   UNL     1      45.770   6.365   9.596  0.00  0.00    +0.000 HD
ENDBRANCH  13  18
ENDBRANCH   1  13
TORSDOF 3
ENDMDL
MODEL 5
REMARK VINA RESULT:    -6.748      2.601      7.011
REMARK INTER + INTRA:          -8.376
REMARK INTER:                  -8.058
REMARK INTRA:                  -0.318
REMARK UNBOUND:                -0.444
REMARK  Name = 
REMARK  3 active torsions:
REMARK  status: ('A' for Active; 'I' for Inactive)
REMARK    1  A    between atoms: N_5  and  C_6
REMARK    2  A    between atoms: C_6  and  C_7
REMARK    3  A    between atoms: C_11  and  C_12
REMARK                            x       y       z     vdW  Elec       q    Type
REMARK                         _______ _______ _______ _____ _____    ______ ____
ROOT
ATOM      1  C   UNL     1      45.237   5.231  12.521  0.00  0.00    +0.000 A 
ATOM      2  C   UNL     1      43.887   5.542  12.625  0.00  0.00    +0.000 A 
ATOM      3  N   UNL     1      42.991   5.262  11.652  0.00  0.00    +0.000 NA
ATOM      4  C   UNL     1      43.503   4.648  10.559  0.00  0.00    +0.000 A 
ATOM      5  C   UNL     1      44.850   4.317  10.419  0.00  0.00    +0.000 A 
ATOM      6  N   UNL     1      45.736   4.628  11.403  0.00  0.00    +0.000 NA
ENDROOT
BRANCH   5   7
ATOM      7  C   UNL     1      45.400   3.610   9.247  0.00  0.00    +0.000 A 
ATOM      8  C   UNL     1      45.447   2.210   9.210  0.00  0.00    +0.000 A 
ATOM      9  C   UNL     1      45.965   1.572   8.093  0.00  0.00    +0.000 A 
ATOM     10  N   UNL     1      46.436   2.223   7.010  0.00  0.00    +0.000 NA
ATOM     11  C   UNL     1      46.375   3.568   7.043  0.00  0.00    +0.000 A 
ATOM     12  C   UNL     1      45.876   4.292   8.116  0.00  0.00    +0.000 A 
ENDBRANCH   5   7
BRANCH   1  13
ATOM     13  C   UNL     1      46.180   5.497  13.670  0.00  0.00    +0.000 C 
BRANCH  13  18
ATOM     14  C   UNL     1      49.183   4.289  17.473  0.00  0.00    +0.000 A 
ATOM     15  C   UNL     1      49.031   5.368  16.640  0.00  0.00    +0.000 A 
ATOM     16  N   UNL     1      48.072   5.453  15.699  0.00  0.00    +0.000 NA
ATOM     17  C   UNL     1      47.249   4.400  15.569  0.00  0.00    +0.000 A 
ATOM     18  N   UNL     1      46.232   4.430  14.647  0.00  0.00    +0.000 N 
ATOM     19  N   UNL     1      47.338   3.292  16.314  0.00  0.00    +0.000 NA
ATOM     20  C   UNL     1      48.292   3.267  17.266  0.00  0.00    +0.000 A 
ATOM     21  H   UNL     1      45.996   3.497  14.338  0.00  0.00    +0.000 HD
ENDBRANCH  13  18
ENDBRANCH   1  13
TORSDOF 3
ENDMDL
MODEL 6
REMARK VINA RESULT:    -6.642      2.406      6.955
REMARK INTER + INTRA:          -8.251
REMARK INTER:                  -7.925
REMARK INTRA:                  -0.326
REMARK UNBOUND:                -0.444
REMARK  Name = 
REMARK  3 active torsions:
REMARK  status: ('A' for Active; 'I' for Inactive)
REMARK    1  A    between atoms: N_5  and  C_6
REMARK    2  A    between atoms: C_6  and  C_7
REMARK    3  A    between atoms: C_11  and  C_12
REMARK                            x       y       z     vdW  Elec       q    Type
REMARK                         _______ _______ _______ _____ _____    ______ ____
ROOT
ATOM      1  C   UNL     1      44.266   5.562  11.115  0.00  0.00    +0.000 A 
ATOM      2  C   UNL     1      43.300   4.825  11.788  0.00  0.00    +0.000 A 
ATOM      3  N   UNL     1      43.024   3.534  11.497  0.00  0.00    +0.000 NA
ATOM      4  C   UNL     1      43.765   3.000  10.496  0.00  0.00    +0.000 A 
ATOM      5  C   UNL     1      44.746   3.705   9.800  0.00  0.00    +0.000 A 
ATOM      6  N   UNL     1      44.989   5.011  10.097  0.00  0.00    +0.000 NA
ENDROOT
BRANCH   5   7
ATOM      7  C   UNL     1      45.581   3.111   8.739  0.00  0.00    +0.000 A 
ATOM      8  C   UNL     1      45.801   1.728   8.690  0.00  0.00    +0.000 A 
ATOM      9  C   UNL     1      46.587   1.196   7.679  0.00  0.00    +0.000 A 
ATOM     10  N   UNL     1      47.166   1.937   6.713  0.00  0.00    +0.000 NA
ATOM     11  C   UNL     1      46.940   3.264   6.755  0.00  0.00    +0.000 A 
ATOM     12  C   UNL     1      46.170   3.886   7.728  0.00  0.00    +0.000 A 
ENDBRANCH   5   7
BRANCH   1  13
ATOM     13  C   UNL     1      44.586   6.977  11.532  0.00  0.00    +0.000 C 
BRANCH  13  18
ATOM     14  C   UNL     1      44.471  11.965  11.317  0.00  0.00    +0.000 A 
ATOM     15  C   UNL     1      45.392  11.014  11.674  0.00  0.00    +0.000 A 
ATOM     16  N   UNL     1      45.169   9.690  11.585  0.00  0.00    +0.000 NA
ATOM     17  C   UNL     1      43.960   9.303  11.146  0.00  0.00    +0.000 A 
ATOM     18  N   UNL     1      43.672   7.968  11.005  0.00  0.00    +0.000 N 
ATOM     19  N   UNL     1      42.987  10.155  10.804  0.00  0.00    +0.000 NA
ATOM     20  C   UNL     1      43.269  11.471  10.877  0.00  0.00    +0.000 A 
ATOM     21  H   UNL     1      42.682   7.798  11.111  0.00  0.00    +0.000 HD
ENDBRANCH  13  18
ENDBRANCH   1  13
TORSDOF 3
ENDMDL
MODEL 7
REMARK VINA RESULT:    -6.611      4.242      7.639
REMARK INTER + INTRA:          -8.215
REMARK INTER:                  -7.776
REMARK INTRA:                  -0.439
REMARK UNBOUND:                -0.444
REMARK  Name = 
REMARK  3 active torsions:
REMARK  status: ('A' for Active; 'I' for Inactive)
REMARK    1  A    between atoms: N_5  and  C_6
REMARK    2  A    between atoms: C_6  and  C_7
REMARK    3  A    between atoms: C_11  and  C_12
REMARK                            x       y       z     vdW  Elec       q    Type
REMARK                         _______ _______ _______ _____ _____    ______ ____
ROOT
ATOM      1  C   UNL     1      47.330   4.669  15.379  0.00  0.00    +0.000 A 
ATOM      2  C   UNL     1      48.158   5.750  15.105  0.00  0.00    +0.000 A 
ATOM      3  N   UNL     1      48.118   6.430  13.937  0.00  0.00    +0.000 NA
ATOM      4  C   UNL     1      47.202   5.984  13.044  0.00  0.00    +0.000 A 
ATOM      5  C   UNL     1      46.352   4.906  13.283  0.00  0.00    +0.000 A 
ATOM      6  N   UNL     1      46.426   4.224  14.458  0.00  0.00    +0.000 NA
ENDROOT
BRANCH   5   7
ATOM      7  C   UNL     1      45.327   4.447  12.327  0.00  0.00    +0.000 A 
ATOM      8  C   UNL     1      44.492   3.364  12.634  0.00  0.00    +0.000 A 
ATOM      9  C   UNL     1      43.534   2.956  11.718  0.00  0.00    +0.000 A 
ATOM     10  N   UNL     1      43.343   3.548  10.522  0.00  0.00    +0.000 NA
ATOM     11  C   UNL     1      44.137   4.598  10.236  0.00  0.00    +0.000 A 
ATOM     12  C   UNL     1      45.123   5.075  11.088  0.00  0.00    +0.000 A 
ENDBRANCH   5   7
BRANCH   1  13
ATOM     13  C   UNL     1      47.363   3.994  16.729  0.00  0.00    +0.000 C 
BRANCH  13  18
ATOM     14  C   UNL     1      52.038   2.640  17.847  0.00  0.00    +0.000 A 
ATOM     15  C   UNL     1      51.285   3.780  17.970  0.00  0.00    +0.000 A 
ATOM     16  N   UNL     1      49.987   3.856  17.620  0.00  0.00    +0.000 NA
ATOM     17  C   UNL     1      49.429   2.751  17.100  0.00  0.00    +0.000 A 
ATOM     18  N   UNL     1      48.102   2.750  16.747  0.00  0.00    +0.000 N 
ATOM     19  N   UNL     1      50.090   1.603  16.914  0.00  0.00    +0.000 NA
ATOM     20  C   UNL     1      51.378   1.564  17.310  0.00  0.00    +0.000 A 
ATOM     21  H   UNL     1      47.926   2.087  16.004  0.00  0.00    +0.000 HD
ENDBRANCH  13  18
ENDBRANCH   1  13
TORSDOF 3
ENDMDL
MODEL 8
REMARK VINA RESULT:    -6.480      2.993      7.207
REMARK INTER + INTRA:          -8.061
REMARK INTER:                  -7.722
REMARK INTRA:                  -0.339
REMARK UNBOUND:                -0.444
REMARK  Name = 
REMARK  3 active torsions:
REMARK  status: ('A' for Active; 'I' for Inactive)
REMARK    1  A    between atoms: N_5  and  C_6
REMARK    2  A    between atoms: C_6  and  C_7
REMARK    3  A    between atoms: C_11  and  C_12
REMARK                            x       y       z     vdW  Elec       q    Type
REMARK                         _______ _______ _______ _____ _____    ______ ____
ROOT
ATOM      1  C   UNL     1      46.624   6.366  13.101  0.00  0.00    +0.000 A 
ATOM      2  C   UNL     1      46.082   7.637  12.968  0.00  0.00    +0.000 A 
ATOM      3  N   UNL     1      45.257   7.983  11.953  0.00  0.00    +0.000 NA
ATOM      4  C   UNL     1      44.990   6.993  11.068  0.00  0.00    +0.000 A 
ATOM      5  C   UNL     1      45.512   5.704  11.169  0.00  0.00    +0.000 A 
ATOM      6  N   UNL     1      46.357   5.387  12.188  0.00  0.00    +0.000 NA
ENDROOT
BRANCH   5   7
ATOM      7  C   UNL     1      45.188   4.616  10.228  0.00  0.00    +0.000 A 
ATOM      8  C   UNL     1      45.496   4.729   8.866  0.00  0.00    +0.000 A 
ATOM      9  C   UNL     1      45.183   3.689   8.005  0.00  0.00    +0.000 A 
ATOM     10  N   UNL     1      44.591   2.543   8.399  0.00  0.00    +0.000 NA
ATOM     11  C   UNL     1      44.310   2.432   9.711  0.00  0.00    +0.000 A 
ATOM     12  C   UNL     1      44.583   3.420  10.646  0.00  0.00    +0.000 A 
ENDBRANCH   5   7
BRANCH   1  13
ATOM     13  C   UNL     1      47.478   6.012  14.295  0.00  0.00    +0.000 C 
BRANCH  13  18
ATOM     14  C   UNL     1      49.028   3.332  18.212  0.00  0.00    +0.000 A 
ATOM     15  C   UNL     1      49.523   4.375  17.474  0.00  0.00    +0.000 A 
ATOM     16  N   UNL     1      48.849   4.960  16.466  0.00  0.00    +0.000 NA
ATOM     17  C   UNL     1      47.639   4.458  16.168  0.00  0.00    +0.000 A 
ATOM     18  N   UNL     1      46.885   5.023  15.170  0.00  0.00    +0.000 N 
ATOM     19  N   UNL     1      47.087   3.424  16.812  0.00  0.00    +0.000 NA
ATOM     20  C   UNL     1      47.784   2.893  17.836  0.00  0.00    +0.000 A 
ATOM     21  H   UNL     1      46.263   4.341  14.756  0.00  0.00    +0.000 HD
ENDBRANCH  13  18
ENDBRANCH   1  13
TORSDOF 3
ENDMDL
MODEL 9
REMARK VINA RESULT:    -6.179      3.046      7.175
REMARK INTER + INTRA:          -7.706
REMARK INTER:                  -7.288
REMARK INTRA:                  -0.418
REMARK UNBOUND:                -0.444
REMARK  Name = 
REMARK  3 active torsions:
REMARK  status: ('A' for Active; 'I' for Inactive)
REMARK    1  A    between atoms: N_5  and  C_6
REMARK    2  A    between atoms: C_6  and  C_7
REMARK    3  A    between atoms: C_11  and  C_12
REMARK                            x       y       z     vdW  Elec       q    Type
REMARK                         _______ _______ _______ _____ _____    ______ ____
ROOT
ATOM      1  C   UNL     1      47.476   7.128  13.595  0.00  0.00    +0.000 A 
ATOM      2  C   UNL     1      46.976   8.423  13.527  0.00  0.00    +0.000 A 
ATOM      3  N   UNL     1      45.804   8.728  12.924  0.00  0.00    +0.000 NA
ATOM      4  C   UNL     1      45.142   7.674  12.390  0.00  0.00    +0.000 A 
ATOM      5  C   UNL     1      45.609   6.362  12.440  0.00  0.00    +0.000 A 
ATOM      6  N   UNL     1      46.802   6.083  13.034  0.00  0.00    +0.000 NA
ENDROOT
BRANCH   5   7
ATOM      7  C   UNL     1      44.867   5.210  11.895  0.00  0.00    +0.000 A 
ATOM      8  C   UNL     1      44.169   4.339  12.742  0.00  0.00    +0.000 A 
ATOM      9  C   UNL     1      43.476   3.267  12.201  0.00  0.00    +0.000 A 
ATOM     10  N   UNL     1      43.425   2.998  10.881  0.00  0.00    +0.000 NA
ATOM     11  C   UNL     1      44.085   3.845  10.069  0.00  0.00    +0.000 A 
ATOM     12  C   UNL     1      44.805   4.942  10.518  0.00  0.00    +0.000 A 
ENDBRANCH   5   7
BRANCH   1  13
ATOM     13  C   UNL     1      48.751   6.833  14.347  0.00  0.00    +0.000 C 
BRANCH  13  18
ATOM     14  C   UNL     1      47.519   3.263  17.614  0.00  0.00    +0.000 A 
ATOM     15  C   UNL     1      47.828   3.314  16.279  0.00  0.00    +0.000 A 
ATOM     16  N   UNL     1      48.184   4.444  15.640  0.00  0.00    +0.000 NA
ATOM     17  C   UNL     1      48.204   5.575  16.364  0.00  0.00    +0.000 A 
ATOM     18  N   UNL     1      48.584   6.760  15.783  0.00  0.00    +0.000 N 
ATOM     19  N   UNL     1      47.889   5.629  17.663  0.00  0.00    +0.000 NA
ATOM     20  C   UNL     1      47.572   4.468  18.268  0.00  0.00    +0.000 A 
ATOM     21  H   UNL     1      48.150   7.546  16.247  0.00  0.00    +0.000 HD
ENDBRANCH  13  18
ENDBRANCH   1  13
TORSDOF 3
ENDMDL
