MODEL 1
REMARK VINA RESULT:    -8.447      0.000      0.000
REMARK INTER + INTRA:         -12.977
REMARK INTER:                 -11.904
REMARK INTRA:                  -1.073
REMARK UNBOUND:                -1.073
REMARK  Name = 
REMARK  8 active torsions:
REMARK  status: ('A' for Active; 'I' for Inactive)
REMARK    1  A    between atoms: C_1  and  C_2
REMARK    2  A    between atoms: C_2  and  N_3
REMARK    3  A    between atoms: C_2  and  C_18
REMARK    4  A    between atoms: N_3  and  C_4
REMARK    5  A    between atoms: C_7  and  C_8
REMARK    6  A    between atoms: C_8  and  O_9
REMARK    7  A    between atoms: O_9  and  C_10
REMARK    8  A    between atoms: C_18  and  C_20
REMARK                            x       y       z     vdW  Elec       q    Type
REMARK                         _______ _______ _______ _____ _____    ______ ____
ROOT
ATOM      1  N   UNL     1      45.876   6.283  13.304  0.00  0.00    +0.000 N 
ATOM      2  H   UNL     1      45.154   6.633  13.927  0.00  0.00    +0.000 HD
ENDROOT
BRANCH   1   3
ATOM      3  C   UNL     1      45.448   5.380  12.333  0.00  0.00    +0.000 A 
ATOM      4  C   UNL     1      45.455   5.675  10.966  0.00  0.00    +0.000 A 
ATOM      5  C   UNL     1      45.132   4.712  10.003  0.00  0.00    +0.000 A 
ATOM      6  C   UNL     1      44.761   3.422  10.387  0.00  0.00    +0.000 A 
ATOM      7  C   UNL     1      44.710   3.124  11.754  0.00  0.00    +0.000 A 
ATOM      8  C   UNL     1      45.055   4.090  12.709  0.00  0.00    +0.000 A 
BRANCH   6   9
ATOM      9  C   UNL     1      44.476   2.370   9.345  0.00  0.00    +0.000 C 
BRANCH   9  10
ATOM     10  O   UNL     1      45.695   1.688   9.044  0.00  0.00    +0.000 OA
BRANCH  10  11
ATOM     11  C   UNL     1      46.266   1.939   7.827  0.00  0.00    +0.000 A 
ATOM     12  C   UNL     1      46.160   3.127   7.100  0.00  0.00    +0.000 A 
ATOM     13  C   UNL     1      46.798   3.253   5.861  0.00  0.00    +0.000 A 
ATOM     14  C   UNL     1      47.545   2.196   5.342  0.00  0.00    +0.000 A 
ATOM     15  C   UNL     1      47.653   1.009   6.063  0.00  0.00    +0.000 A 
ATOM     16  C   UNL     1      47.016   0.883   7.299  0.00  0.00    +0.000 A 
ENDBRANCH  10  11
ENDBRANCH   9  10
ENDBRANCH   6   9
ENDBRANCH   1   3
BRANCH   1  18
ATOM     17  C   UNL     1      46.651   8.613  13.637  0.00  0.00    +0.000 C 
ATOM     18  C   UNL     1      46.955   7.250  13.020  0.00  0.00    +0.000 C 
BRANCH  18  19
ATOM     19  C   UNL     1      48.303   6.669  13.517  0.00  0.00    +0.000 C 
ATOM     20  O   UNL     1      49.246   6.519  12.733  0.00  0.00    +0.000 OA
BRANCH  19  21
ATOM     21  C   UNL     1      48.508   6.457  14.964  0.00  0.00    +0.000 A 
ATOM     22  C   UNL     1      49.164   7.420  15.722  0.00  0.00    +0.000 A 
ATOM     23  S   UNL     1      49.144   7.086  17.398  0.00  0.00    +0.000 S 
ATOM     24  C   UNL     1      48.295   5.628  17.153  0.00  0.00    +0.000 A 
ATOM     25  N   UNL     1      47.892   4.861  18.202  0.00  0.00    +0.000 NA
ATOM     26  C   UNL     1      47.207   3.820  17.862  0.00  0.00    +0.000 A 
ATOM     27  N   UNL     1      46.936   3.449  16.571  0.00  0.00    +0.000 N 
ATOM     28  C   UNL     1      47.533   4.071  15.505  0.00  0.00    +0.000 A 
ATOM     29  O   UNL     1      47.627   3.503  14.413  0.00  0.00    +0.000 OA
ATOM     30  C   UNL     1      48.109   5.364  15.809  0.00  0.00    +0.000 A 
ATOM     31  H   UNL     1      46.500   2.559  16.380  0.00  0.00    +0.000 HD
ENDBRANCH  19  21
ENDBRANCH  18  19
ENDBRANCH   1  18
TORSDOF 7
ENDMDL
MODEL 2
REMARK VINA RESULT:    -8.238      2.497      3.116
REMARK INTER + INTRA:         -12.682
REMARK INTER:                 -11.862
REMARK INTRA:                  -0.820
REMARK UNBOUND:                -1.073
REMARK  Name = 
REMARK  8 active torsions:
REMARK  status: ('A' for Active; 'I' for Inactive)
REMARK    1  A    between atoms: C_1  and  C_2
REMARK    2  A    between atoms: C_2  and  N_3
REMARK    3  A    between atoms: C_2  and  C_18
REMARK    4  A    between atoms: N_3  and  C_4
REMARK    5  A    between atoms: C_7  and  C_8
REMARK    6  A    between atoms: C_8  and  O_9
REMARK    7  A    between atoms: O_9  and  C_10
REMARK    8  A    between atoms: C_18  and  C_20
REMARK                            x       y       z     vdW  Elec       q    Type
REMARK                         _______ _______ _______ _____ _____    ______ ____
ROOT
ATOM      1  N   UNL     1      46.368   4.743  15.026  0.00  0.00    +0.000 N 
ATOM      2  H   UNL     1      45.775   5.262  15.668  0.00  0.00    +0.000 HD
ENDROOT
BRANCH   1   3
ATOM      3  C   UNL     1      45.878   4.606  13.729  0.00  0.00    +0.000 A 
ATOM      4  C   UNL     1      45.823   3.377  13.064  0.00  0.00    +0.000 A 
ATOM      5  C   UNL     1      45.218   3.245  11.809  0.00  0.00    +0.000 A 
ATOM      6  C   UNL     1      44.672   4.357  11.164  0.00  0.00    +0.000 A 
ATOM      7  C   UNL     1      44.756   5.601  11.800  0.00  0.00    +0.000 A 
ATOM      8  C   UNL     1      45.346   5.719  13.067  0.00  0.00    +0.000 A 
BRANCH   6   9
ATOM      9  C   UNL     1      43.966   4.199   9.841  0.00  0.00    +0.000 C 
BRANCH   9  10
ATOM     10  O   UNL     1      44.247   2.895   9.331  0.00  0.00    +0.000 OA
BRANCH  10  11
ATOM     11  C   UNL     1      45.310   2.776   8.478  0.00  0.00    +0.000 A 
ATOM     12  C   UNL     1      45.857   3.798   7.699  0.00  0.00    +0.000 A 
ATOM     13  C   UNL     1      46.951   3.540   6.866  0.00  0.00    +0.000 A 
ATOM     14  C   UNL     1      47.504   2.261   6.805  0.00  0.00    +0.000 A 
ATOM     15  C   UNL     1      46.962   1.238   7.578  0.00  0.00    +0.000 A 
ATOM     16  C   UNL     1      45.870   1.495   8.410  0.00  0.00    +0.000 A 
ENDBRANCH  10  11
ENDBRANCH   9  10
ENDBRANCH   6   9
ENDBRANCH   1   3
BRANCH   1  18
ATOM     17  C   UNL     1      48.301   6.289  14.896  0.00  0.00    +0.000 C 
ATOM     18  C   UNL     1      47.814   4.893  15.280  0.00  0.00    +0.000 C 
BRANCH  18  19
ATOM     19  C   UNL     1      48.108   4.559  16.765  0.00  0.00    +0.000 C 
ATOM     20  O   UNL     1      47.192   4.221  17.523  0.00  0.00    +0.000 OA
BRANCH  19  21
ATOM     21  C   UNL     1      49.509   4.481  17.224  0.00  0.00    +0.000 A 
ATOM     22  C   UNL     1      50.142   5.613  17.722  0.00  0.00    +0.000 A 
ATOM     23  S   UNL     1      51.690   5.289  18.370  0.00  0.00    +0.000 S 
ATOM     24  C   UNL     1      51.573   3.637  17.968  0.00  0.00    +0.000 A 
ATOM     25  N   UNL     1      52.551   2.756  18.309  0.00  0.00    +0.000 NA
ATOM     26  C   UNL     1      52.294   1.531  17.992  0.00  0.00    +0.000 A 
ATOM     27  N   UNL     1      51.174   1.116  17.319  0.00  0.00    +0.000 N 
ATOM     28  C   UNL     1      50.300   2.012  16.759  0.00  0.00    +0.000 A 
ATOM     29  O   UNL     1      49.556   1.675  15.833  0.00  0.00    +0.000 OA
ATOM     30  C   UNL     1      50.409   3.360  17.275  0.00  0.00    +0.000 A 
ATOM     31  H   UNL     1      51.100   0.162  16.999  0.00  0.00    +0.000 HD
ENDBRANCH  19  21
ENDBRANCH  18  19
ENDBRANCH   1  18
TORSDOF 7
ENDMDL
MODEL 3
REMARK VINA RESULT:    -8.132      1.272      1.699
REMARK INTER + INTRA:         -12.533
REMARK INTER:                 -11.436
REMARK INTRA:                  -1.097
REMARK UNBOUND:                -1.073
REMARK  Name = 
REMARK  8 active torsions:
REMARK  status: ('A' for Active; 'I' for Inactive)
REMARK    1  A    between atoms: C_1  and  C_2
REMARK    2  A    between atoms: C_2  and  N_3
REMARK    3  A    between atoms: C_2  and  C_18
REMARK    4  A    between atoms: N_3  and  C_4
REMARK    5  A    between atoms: C_7  and  C_8
REMARK    6  A    between atoms: C_8  and  O_9
REMARK    7  A    between atoms: O_9  and  C_10
REMARK    8  A    between atoms: C_18  and  C_20
REMARK                            x       y       z     vdW  Elec       q    Type
REMARK                         _______ _______ _______ _____ _____    ______ ____
ROOT
ATOM      1  N   UNL     1      46.657   6.439  13.553  0.00  0.00    +0.000 N 
ATOM      2  H   UNL     1      46.234   7.344  13.740  0.00  0.00    +0.000 HD
ENDROOT
BRANCH   1   3
ATOM      3  C   UNL     1      46.009   5.658  12.599  0.00  0.00    +0.000 A 
ATOM      4  C   UNL     1      45.650   6.142  11.337  0.00  0.00    +0.000 A 
ATOM      5  C   UNL     1      45.106   5.307  10.354  0.00  0.00    +0.000 A 
ATOM      6  C   UNL     1      44.879   3.955  10.619  0.00  0.00    +0.000 A 
ATOM      7  C   UNL     1      45.196   3.465  11.891  0.00  0.00    +0.000 A 
ATOM      8  C   UNL     1      45.759   4.306  12.862  0.00  0.00    +0.000 A 
BRANCH   6   9
ATOM      9  C   UNL     1      44.352   3.046   9.537  0.00  0.00    +0.000 C 
BRANCH   9  10
ATOM     10  O   UNL     1      45.288   1.982   9.346  0.00  0.00    +0.000 OA
BRANCH  10  11
ATOM     11  C   UNL     1      46.001   1.983   8.178  0.00  0.00    +0.000 A 
ATOM     12  C   UNL     1      46.755   0.920   7.676  0.00  0.00    +0.000 A 
ATOM     13  C   UNL     1      47.439   1.055   6.463  0.00  0.00    +0.000 A 
ATOM     14  C   UNL     1      47.374   2.248   5.745  0.00  0.00    +0.000 A 
ATOM     15  C   UNL     1      46.623   3.312   6.242  0.00  0.00    +0.000 A 
ATOM     16  C   UNL     1      45.941   3.178   7.453  0.00  0.00    +0.000 A 
ENDBRANCH  10  11
ENDBRANCH   9  10
ENDBRANCH   6   9
ENDBRANCH   1   3
BRANCH   1  18
ATOM     17  C   UNL     1      48.798   7.077  12.479  0.00  0.00    +0.000 C 
ATOM     18  C   UNL     1      48.127   6.418  13.682  0.00  0.00    +0.000 C 
BRANCH  18  19
ATOM     19  C   UNL     1      48.531   7.089  15.020  0.00  0.00    +0.000 C 
ATOM     20  O   UNL     1      48.113   8.217  15.304  0.00  0.00    +0.000 OA
BRANCH  19  21
ATOM     21  C   UNL     1      49.275   6.305  16.025  0.00  0.00    +0.000 A 
ATOM     22  C   UNL     1      50.608   6.599  16.288  0.00  0.00    +0.000 A 
ATOM     23  S   UNL     1      51.246   5.713  17.604  0.00  0.00    +0.000 S 
ATOM     24  C   UNL     1      49.773   4.886  17.832  0.00  0.00    +0.000 A 
ATOM     25  N   UNL     1      49.608   4.006  18.856  0.00  0.00    +0.000 NA
ATOM     26  C   UNL     1      48.421   3.505  18.937  0.00  0.00    +0.000 A 
ATOM     27  N   UNL     1      47.402   3.763  18.057  0.00  0.00    +0.000 N 
ATOM     28  C   UNL     1      47.617   4.451  16.891  0.00  0.00    +0.000 A 
ATOM     29  O   UNL     1      46.847   4.330  15.933  0.00  0.00    +0.000 OA
ATOM     30  C   UNL     1      48.843   5.221  16.865  0.00  0.00    +0.000 A 
ATOM     31  H   UNL     1      46.540   3.241  18.113  0.00  0.00    +0.000 HD
ENDBRANCH  19  21
ENDBRANCH  18  19
ENDBRANCH   1  18
TORSDOF 7
ENDMDL
MODEL 4
REMARK VINA RESULT:    -7.718      2.351      3.045
REMARK INTER + INTRA:         -11.949
REMARK INTER:                 -10.793
REMARK INTRA:                  -1.156
REMARK UNBOUND:                -1.073
REMARK  Name = 
REMARK  8 active torsions:
REMARK  status: ('A' for Active; 'I' for Inactive)
REMARK    1  A    between atoms: C_1  and  C_2
REMARK    2  A    between atoms: C_2  and  N_3
REMARK    3  A    between atoms: C_2  and  C_18
REMARK    4  A    between atoms: N_3  and  C_4
REMARK    5  A    between atoms: C_7  and  C_8
REMARK    6  A    between atoms: C_8  and  O_9
REMARK    7  A    between atoms: O_9  and  C_10
REMARK    8  A    between atoms: C_18  and  C_20
REMARK                            x       y       z     vdW  Elec       q    Type
REMARK                         _______ _______ _______ _____ _____    ______ ____
ROOT
ATOM      1  N   UNL     1      47.061   6.947  13.995  0.00  0.00    +0.000 N 
ATOM      2  H   UNL     1      46.695   7.885  14.134  0.00  0.00    +0.000 HD
ENDROOT
BRANCH   1   3
ATOM      3  C   UNL     1      46.481   6.222  12.957  0.00  0.00    +0.000 A 
ATOM      4  C   UNL     1      45.798   5.018  13.160  0.00  0.00    +0.000 A 
ATOM      5  C   UNL     1      45.123   4.369  12.120  0.00  0.00    +0.000 A 
ATOM      6  C   UNL     1      45.138   4.896  10.827  0.00  0.00    +0.000 A 
ATOM      7  C   UNL     1      45.852   6.079  10.600  0.00  0.00    +0.000 A 
ATOM      8  C   UNL     1      46.507   6.732  11.654  0.00  0.00    +0.000 A 
BRANCH   6   9
ATOM      9  C   UNL     1      44.357   4.228   9.723  0.00  0.00    +0.000 C 
BRANCH   9  10
ATOM     10  O   UNL     1      45.058   4.421   8.493  0.00  0.00    +0.000 OA
BRANCH  10  11
ATOM     11  C   UNL     1      45.782   3.362   8.017  0.00  0.00    +0.000 A 
ATOM     12  C   UNL     1      45.741   2.053   8.503  0.00  0.00    +0.000 A 
ATOM     13  C   UNL     1      46.536   1.061   7.920  0.00  0.00    +0.000 A 
ATOM     14  C   UNL     1      47.376   1.369   6.851  0.00  0.00    +0.000 A 
ATOM     15  C   UNL     1      47.422   2.672   6.362  0.00  0.00    +0.000 A 
ATOM     16  C   UNL     1      46.628   3.663   6.944  0.00  0.00    +0.000 A 
ENDBRANCH  10  11
ENDBRANCH   9  10
ENDBRANCH   6   9
ENDBRANCH   1   3
BRANCH   1  18
ATOM     17  C   UNL     1      49.314   7.944  13.727  0.00  0.00    +0.000 C 
ATOM     18  C   UNL     1      48.494   6.800  14.318  0.00  0.00    +0.000 C 
BRANCH  18  19
ATOM     19  C   UNL     1      48.661   6.691  15.856  0.00  0.00    +0.000 C 
ATOM     20  O   UNL     1      48.604   7.702  16.563  0.00  0.00    +0.000 OA
BRANCH  19  21
ATOM     21  C   UNL     1      48.717   5.356  16.483  0.00  0.00    +0.000 A 
ATOM     22  C   UNL     1      47.570   4.576  16.562  0.00  0.00    +0.000 A 
ATOM     23  S   UNL     1      47.867   2.999  17.150  0.00  0.00    +0.000 S 
ATOM     24  C   UNL     1      49.527   3.328  17.352  0.00  0.00    +0.000 A 
ATOM     25  N   UNL     1      50.392   2.365  17.770  0.00  0.00    +0.000 NA
ATOM     26  C   UNL     1      51.625   2.746  17.817  0.00  0.00    +0.000 A 
ATOM     27  N   UNL     1      52.063   4.014  17.535  0.00  0.00    +0.000 N 
ATOM     28  C   UNL     1      51.186   5.051  17.349  0.00  0.00    +0.000 A 
ATOM     29  O   UNL     1      51.546   6.221  17.510  0.00  0.00    +0.000 OA
ATOM     30  C   UNL     1      49.827   4.645  17.056  0.00  0.00    +0.000 A 
ATOM     31  H   UNL     1      53.023   4.270  17.711  0.00  0.00    +0.000 HD
ENDBRANCH  19  21
ENDBRANCH  18  19
ENDBRANCH   1  18
TORSDOF 7
ENDMDL
MODEL 5
REMARK VINA RESULT:    -7.572      2.251      3.547
REMARK INTER + INTRA:         -11.743
REMARK INTER:                 -10.589
REMARK INTRA:                  -1.154
REMARK UNBOUND:                -1.073
REMARK  Name = 
REMARK  8 active torsions:
REMARK  status: ('A' for Active; 'I' for Inactive)
REMARK    1  A    between atoms: C_1  and  C_2
REMARK    2  A    between atoms: C_2  and  N_3
REMARK    3  A    between atoms: C_2  and  C_18
REMARK    4  A    between atoms: N_3  and  C_4
REMARK    5  A    between atoms: C_7  and  C_8
REMARK    6  A    between atoms: C_8  and  O_9
REMARK    7  A    between atoms: O_9  and  C_10
REMARK    8  A    between atoms: C_18  and  C_20
REMARK                            x       y       z     vdW  Elec       q    Type
REMARK                         _______ _______ _______ _____ _____    ______ ____
ROOT
ATOM      1  N   UNL     1      47.535   4.628  14.932  0.00  0.00    +0.000 N 
ATOM      2  H   UNL     1      48.505   4.689  14.635  0.00  0.00    +0.000 HD
ENDROOT
BRANCH   1   3
ATOM      3  C   UNL     1      46.591   4.616  13.908  0.00  0.00    +0.000 A 
ATOM      4  C   UNL     1      46.066   5.784  13.346  0.00  0.00    +0.000 A 
ATOM      5  C   UNL     1      45.209   5.749  12.239  0.00  0.00    +0.000 A 
ATOM      6  C   UNL     1      44.826   4.530  11.678  0.00  0.00    +0.000 A 
ATOM      7  C   UNL     1      45.311   3.350  12.256  0.00  0.00    +0.000 A 
ATOM      8  C   UNL     1      46.185   3.398  13.351  0.00  0.00    +0.000 A 
BRANCH   6   9
ATOM      9  C   UNL     1      43.954   4.499  10.448  0.00  0.00    +0.000 C 
BRANCH   9  10
ATOM     10  O   UNL     1      44.077   3.212   9.839  0.00  0.00    +0.000 OA
BRANCH  10  11
ATOM     11  C   UNL     1      45.060   3.059   8.900  0.00  0.00    +0.000 A 
ATOM     12  C   UNL     1      45.588   4.069   8.091  0.00  0.00    +0.000 A 
ATOM     13  C   UNL     1      46.597   3.775   7.168  0.00  0.00    +0.000 A 
ATOM     14  C   UNL     1      47.082   2.474   7.045  0.00  0.00    +0.000 A 
ATOM     15  C   UNL     1      46.558   1.463   7.847  0.00  0.00    +0.000 A 
ATOM     16  C   UNL     1      45.552   1.756   8.770  0.00  0.00    +0.000 A 
ENDBRANCH  10  11
ENDBRANCH   9  10
ENDBRANCH   6   9
ENDBRANCH   1   3
BRANCH   1  18
ATOM     17  C   UNL     1      48.178   2.581  16.172  0.00  0.00    +0.000 C 
ATOM     18  C   UNL     1      47.326   3.848  16.168  0.00  0.00    +0.000 C 
BRANCH  18  19
ATOM     19  C   UNL     1      47.612   4.752  17.395  0.00  0.00    +0.000 C 
ATOM     20  O   UNL     1      46.698   5.071  18.163  0.00  0.00    +0.000 OA
BRANCH  19  21
ATOM     21  C   UNL     1      49.009   5.088  17.734  0.00  0.00    +0.000 A 
ATOM     22  C   UNL     1      49.597   4.550  18.873  0.00  0.00    +0.000 A 
ATOM     23  S   UNL     1      51.265   4.903  19.000  0.00  0.00    +0.000 S 
ATOM     24  C   UNL     1      51.238   5.814  17.560  0.00  0.00    +0.000 A 
ATOM     25  N   UNL     1      52.374   6.358  17.048  0.00  0.00    +0.000 NA
ATOM     26  C   UNL     1      52.207   6.968  15.922  0.00  0.00    +0.000 A 
ATOM     27  N   UNL     1      51.001   7.129  15.291  0.00  0.00    +0.000 N 
ATOM     28  C   UNL     1      49.820   6.802  15.906  0.00  0.00    +0.000 A 
ATOM     29  O   UNL     1      48.755   7.310  15.542  0.00  0.00    +0.000 OA
ATOM     30  C   UNL     1      49.959   5.916  17.043  0.00  0.00    +0.000 A 
ATOM     31  H   UNL     1      50.930   7.722  14.477  0.00  0.00    +0.000 HD
ENDBRANCH  19  21
ENDBRANCH  18  19
ENDBRANCH   1  18
TORSDOF 7
ENDMDL
MODEL 6
REMARK VINA RESULT:    -7.545      1.606      2.072
REMARK INTER + INTRA:         -11.705
REMARK INTER:                 -10.205
REMARK INTRA:                  -1.500
REMARK UNBOUND:                -1.073
REMARK  Name = 
REMARK  8 active torsions:
REMARK  status: ('A' for Active; 'I' for Inactive)
REMARK    1  A    between atoms: C_1  and  C_2
REMARK    2  A    between atoms: C_2  and  N_3
REMARK    3  A    between atoms: C_2  and  C_18
REMARK    4  A    between atoms: N_3  and  C_4
REMARK    5  A    between atoms: C_7  and  C_8
REMARK    6  A    between atoms: C_8  and  O_9
REMARK    7  A    between atoms: O_9  and  C_10
REMARK    8  A    between atoms: C_18  and  C_20
REMARK                            x       y       z     vdW  Elec       q    Type
REMARK                         _______ _______ _______ _____ _____    ______ ____
ROOT
ATOM      1  N   UNL     1      46.776   7.194  13.647  0.00  0.00    +0.000 N 
ATOM      2  H   UNL     1      46.212   7.583  14.398  0.00  0.00    +0.000 HD
ENDROOT
BRANCH   1   3
ATOM      3  C   UNL     1      46.121   6.295  12.807  0.00  0.00    +0.000 A 
ATOM      4  C   UNL     1      45.727   6.622  11.506  0.00  0.00    +0.000 A 
ATOM      5  C   UNL     1      45.178   5.668  10.640  0.00  0.00    +0.000 A 
ATOM      6  C   UNL     1      44.979   4.354  11.069  0.00  0.00    +0.000 A 
ATOM      7  C   UNL     1      45.331   4.022  12.382  0.00  0.00    +0.000 A 
ATOM      8  C   UNL     1      45.900   4.981  13.234  0.00  0.00    +0.000 A 
BRANCH   6   9
ATOM      9  C   UNL     1      44.446   3.315  10.114  0.00  0.00    +0.000 C 
BRANCH   9  10
ATOM     10  O   UNL     1      44.717   3.745   8.779  0.00  0.00    +0.000 OA
BRANCH  10  11
ATOM     11  C   UNL     1      45.649   3.035   8.073  0.00  0.00    +0.000 A 
ATOM     12  C   UNL     1      46.445   3.527   7.036  0.00  0.00    +0.000 A 
ATOM     13  C   UNL     1      47.364   2.689   6.396  0.00  0.00    +0.000 A 
ATOM     14  C   UNL     1      47.494   1.356   6.786  0.00  0.00    +0.000 A 
ATOM     15  C   UNL     1      46.702   0.860   7.819  0.00  0.00    +0.000 A 
ATOM     16  C   UNL     1      45.785   1.696   8.458  0.00  0.00    +0.000 A 
ENDBRANCH  10  11
ENDBRANCH   9  10
ENDBRANCH   6   9
ENDBRANCH   1   3
BRANCH   1  18
ATOM     17  C   UNL     1      47.807   9.434  13.884  0.00  0.00    +0.000 C 
ATOM     18  C   UNL     1      47.808   8.110  13.124  0.00  0.00    +0.000 C 
BRANCH  18  19
ATOM     19  C   UNL     1      49.188   7.406  13.174  0.00  0.00    +0.000 C 
ATOM     20  O   UNL     1      49.647   6.858  12.167  0.00  0.00    +0.000 OA
BRANCH  19  21
ATOM     21  C   UNL     1      50.023   7.541  14.384  0.00  0.00    +0.000 A 
ATOM     22  C   UNL     1      51.178   8.313  14.350  0.00  0.00    +0.000 A 
ATOM     23  S   UNL     1      51.909   8.500  15.883  0.00  0.00    +0.000 S 
ATOM     24  C   UNL     1      50.727   7.523  16.627  0.00  0.00    +0.000 A 
ATOM     25  N   UNL     1      50.723   7.319  17.972  0.00  0.00    +0.000 NA
ATOM     26  C   UNL     1      49.732   6.608  18.396  0.00  0.00    +0.000 A 
ATOM     27  N   UNL     1      48.777   6.039  17.593  0.00  0.00    +0.000 N 
ATOM     28  C   UNL     1      48.900   6.031  16.228  0.00  0.00    +0.000 A 
ATOM     29  O   UNL     1      48.300   5.196  15.544  0.00  0.00    +0.000 OA
ATOM     30  C   UNL     1      49.843   6.996  15.703  0.00  0.00    +0.000 A 
ATOM     31  H   UNL     1      48.104   5.396  17.984  0.00  0.00    +0.000 HD
ENDBRANCH  19  21
ENDBRANCH  18  19
ENDBRANCH   1  18
TORSDOF 7
ENDMDL
MODEL 7
REMARK VINA RESULT:    -7.517      1.811      2.362
REMARK INTER + INTRA:         -11.665
REMARK INTER:                 -10.533
REMARK INTRA:                  -1.132
REMARK UNBOUND:                -1.073
REMARK  Name = 
REMARK  8 active torsions:
REMARK  status: ('A' for Active; 'I' for Inactive)
REMARK    1  A    between atoms: C_1  and  C_2
REMARK    2  A    between atoms: C_2  and  N_3
REMARK    3  A    between atoms: C_2  and  C_18
REMARK    4  A    between atoms: N_3  and  C_4
REMARK    5  A    between atoms: C_7  and  C_8
REMARK    6  A    between atoms: C_8  and  O_9
REMARK    7  A    between atoms: O_9  and  C_10
REMARK    8  A    between atoms: C_18  and  C_20
REMARK                            x       y       z     vdW  Elec       q    Type
REMARK                         _______ _______ _______ _____ _____    ______ ____
ROOT
ATOM      1  N   UNL     1      47.103   7.049  13.999  0.00  0.00    +0.000 N 
ATOM      2  H   UNL     1      46.802   8.002  14.184  0.00  0.00    +0.000 HD
ENDROOT
BRANCH   1   3
ATOM      3  C   UNL     1      46.257   6.298  13.187  0.00  0.00    +0.000 A 
ATOM      4  C   UNL     1      45.777   6.761  11.958  0.00  0.00    +0.000 A 
ATOM      5  C   UNL     1      45.025   5.944  11.105  0.00  0.00    +0.000 A 
ATOM      6  C   UNL     1      44.705   4.636  11.476  0.00  0.00    +0.000 A 
ATOM      7  C   UNL     1      45.145   4.172  12.722  0.00  0.00    +0.000 A 
ATOM      8  C   UNL     1      45.914   4.993  13.559  0.00  0.00    +0.000 A 
BRANCH   6   9
ATOM      9  C   UNL     1      43.949   3.739  10.529  0.00  0.00    +0.000 C 
BRANCH   9  10
ATOM     10  O   UNL     1      44.317   4.081   9.191  0.00  0.00    +0.000 OA
BRANCH  10  11
ATOM     11  C   UNL     1      45.238   3.280   8.574  0.00  0.00    +0.000 A 
ATOM     12  C   UNL     1      45.386   1.903   8.761  0.00  0.00    +0.000 A 
ATOM     13  C   UNL     1      46.374   1.201   8.063  0.00  0.00    +0.000 A 
ATOM     14  C   UNL     1      47.218   1.866   7.174  0.00  0.00    +0.000 A 
ATOM     15  C   UNL     1      47.075   3.239   6.984  0.00  0.00    +0.000 A 
ATOM     16  C   UNL     1      46.089   3.940   7.681  0.00  0.00    +0.000 A 
ENDBRANCH  10  11
ENDBRANCH   9  10
ENDBRANCH   6   9
ENDBRANCH   1   3
BRANCH   1  18
ATOM     17  C   UNL     1      49.077   6.967  12.503  0.00  0.00    +0.000 C 
ATOM     18  C   UNL     1      48.567   6.875  13.940  0.00  0.00    +0.000 C 
BRANCH  18  19
ATOM     19  C   UNL     1      49.242   7.917  14.869  0.00  0.00    +0.000 C 
ATOM     20  O   UNL     1      50.036   8.744  14.409  0.00  0.00    +0.000 OA
BRANCH  19  21
ATOM     21  C   UNL     1      48.801   8.023  16.274  0.00  0.00    +0.000 A 
ATOM     22  C   UNL     1      48.319   9.231  16.763  0.00  0.00    +0.000 A 
ATOM     23  S   UNL     1      47.688   9.114  18.346  0.00  0.00    +0.000 S 
ATOM     24  C   UNL     1      48.077   7.457  18.438  0.00  0.00    +0.000 A 
ATOM     25  N   UNL     1      47.742   6.712  19.525  0.00  0.00    +0.000 NA
ATOM     26  C   UNL     1      48.047   5.461  19.423  0.00  0.00    +0.000 A 
ATOM     27  N   UNL     1      48.703   4.900  18.358  0.00  0.00    +0.000 N 
ATOM     28  C   UNL     1      49.258   5.672  17.370  0.00  0.00    +0.000 A 
ATOM     29  O   UNL     1      50.172   5.235  16.665  0.00  0.00    +0.000 OA
ATOM     30  C   UNL     1      48.754   7.028  17.311  0.00  0.00    +0.000 A 
ATOM     31  H   UNL     1      49.015   3.942  18.403  0.00  0.00    +0.000 HD
ENDBRANCH  19  21
ENDBRANCH  18  19
ENDBRANCH   1  18
TORSDOF 7
ENDMDL
MODEL 8
REMARK VINA RESULT:    -7.333      2.149      3.604
REMARK INTER + INTRA:         -11.406
REMARK INTER:                 -10.078
REMARK INTRA:                  -1.327
REMARK UNBOUND:                -1.073
REMARK  Name = 
REMARK  8 active torsions:
REMARK  status: ('A' for Active; 'I' for Inactive)
REMARK    1  A    between atoms: C_1  and  C_2
REMARK    2  A    between atoms: C_2  and  N_3
REMARK    3  A    between atoms: C_2  and  C_18
REMARK    4  A    between atoms: N_3  and  C_4
REMARK    5  A    between atoms: C_7  and  C_8
REMARK    6  A    between atoms: C_8  and  O_9
REMARK    7  A    between atoms: O_9  and  C_10
REMARK    8  A    between atoms: C_18  and  C_20
REMARK                            x       y       z     vdW  Elec       q    Type
REMARK                         _______ _______ _______ _____ _____    ______ ____
ROOT
ATOM      1  N   UNL     1      47.677   4.265  14.773  0.00  0.00    +0.000 N 
ATOM      2  H   UNL     1      48.268   3.442  14.698  0.00  0.00    +0.000 HD
ENDROOT
BRANCH   1   3
ATOM      3  C   UNL     1      46.652   4.357  13.834  0.00  0.00    +0.000 A 
ATOM      4  C   UNL     1      46.117   5.578  13.411  0.00  0.00    +0.000 A 
ATOM      5  C   UNL     1      45.170   5.652  12.382  0.00  0.00    +0.000 A 
ATOM      6  C   UNL     1      44.707   4.490  11.761  0.00  0.00    +0.000 A 
ATOM      7  C   UNL     1      45.204   3.257  12.202  0.00  0.00    +0.000 A 
ATOM      8  C   UNL     1      46.167   3.197  13.220  0.00  0.00    +0.000 A 
BRANCH   6   9
ATOM      9  C   UNL     1      43.736   4.577  10.611  0.00  0.00    +0.000 C 
BRANCH   9  10
ATOM     10  O   UNL     1      43.757   3.335   9.905  0.00  0.00    +0.000 OA
BRANCH  10  11
ATOM     11  C   UNL     1      44.780   3.141   9.017  0.00  0.00    +0.000 A 
ATOM     12  C   UNL     1      45.383   4.125   8.230  0.00  0.00    +0.000 A 
ATOM     13  C   UNL     1      46.425   3.788   7.359  0.00  0.00    +0.000 A 
ATOM     14  C   UNL     1      46.870   2.470   7.269  0.00  0.00    +0.000 A 
ATOM     15  C   UNL     1      46.272   1.485   8.051  0.00  0.00    +0.000 A 
ATOM     16  C   UNL     1      45.232   1.820   8.920  0.00  0.00    +0.000 A 
ENDBRANCH  10  11
ENDBRANCH   9  10
ENDBRANCH   6   9
ENDBRANCH   1   3
BRANCH   1  18
ATOM     17  C   UNL     1      47.078   3.628  17.091  0.00  0.00    +0.000 C 
ATOM     18  C   UNL     1      47.492   4.758  16.152  0.00  0.00    +0.000 C 
BRANCH  18  19
ATOM     19  C   UNL     1      48.791   5.463  16.619  0.00  0.00    +0.000 C 
ATOM     20  O   UNL     1      49.805   4.803  16.870  0.00  0.00    +0.000 OA
BRANCH  19  21
ATOM     21  C   UNL     1      48.859   6.938  16.598  0.00  0.00    +0.000 A 
ATOM     22  C   UNL     1      48.467   7.669  17.713  0.00  0.00    +0.000 A 
ATOM     23  S   UNL     1      48.788   9.341  17.569  0.00  0.00    +0.000 S 
ATOM     24  C   UNL     1      49.422   9.141  16.000  0.00  0.00    +0.000 A 
ATOM     25  N   UNL     1      49.948  10.189  15.311  0.00  0.00    +0.000 NA
ATOM     26  C   UNL     1      50.444   9.871  14.162  0.00  0.00    +0.000 A 
ATOM     27  N   UNL     1      50.414   8.613  13.618  0.00  0.00    +0.000 N 
ATOM     28  C   UNL     1      49.680   7.603  14.185  0.00  0.00    +0.000 A 
ATOM     29  O   UNL     1      49.315   6.633  13.514  0.00  0.00    +0.000 OA
ATOM     30  C   UNL     1      49.308   7.832  15.565  0.00  0.00    +0.000 A 
ATOM     31  H   UNL     1      50.712   8.466  12.665  0.00  0.00    +0.000 HD
ENDBRANCH  19  21
ENDBRANCH  18  19
ENDBRANCH   1  18
TORSDOF 7
ENDMDL
MODEL 9
REMARK VINA RESULT:    -7.309      2.167      3.204
REMARK INTER + INTRA:         -11.373
REMARK INTER:                  -9.886
REMARK INTRA:                  -1.487
REMARK UNBOUND:                -1.073
REMARK  Name = 
REMARK  8 active torsions:
REMARK  status: ('A' for Active; 'I' for Inactive)
REMARK    1  A    between atoms: C_1  and  C_2
REMARK    2  A    between atoms: C_2  and  N_3
REMARK    3  A    between atoms: C_2  and  C_18
REMARK    4  A    between atoms: N_3  and  C_4
REMARK    5  A    between atoms: C_7  and  C_8
REMARK    6  A    between atoms: C_8  and  O_9
REMARK    7  A    between atoms: O_9  and  C_10
REMARK    8  A    between atoms: C_18  and  C_20
REMARK                            x       y       z     vdW  Elec       q    Type
REMARK                         _______ _______ _______ _____ _____    ______ ____
ROOT
ATOM      1  N   UNL     1      47.713   7.073  14.145  0.00  0.00    +0.000 N 
ATOM      2  H   UNL     1      47.307   7.943  14.478  0.00  0.00    +0.000 HD
ENDROOT
BRANCH   1   3
ATOM      3  C   UNL     1      46.872   6.269  13.380  0.00  0.00    +0.000 A 
ATOM      4  C   UNL     1      46.663   4.913  13.651  0.00  0.00    +0.000 A 
ATOM      5  C   UNL     1      45.724   4.155  12.942  0.00  0.00    +0.000 A 
ATOM      6  C   UNL     1      44.981   4.732  11.910  0.00  0.00    +0.000 A 
ATOM      7  C   UNL     1      45.208   6.079  11.600  0.00  0.00    +0.000 A 
ATOM      8  C   UNL     1      46.137   6.834  12.331  0.00  0.00    +0.000 A 
BRANCH   6   9
ATOM      9  C   UNL     1      43.926   3.930  11.191  0.00  0.00    +0.000 C 
BRANCH   9  10
ATOM     10  O   UNL     1      43.948   4.290   9.808  0.00  0.00    +0.000 OA
BRANCH  10  11
ATOM     11  C   UNL     1      44.867   3.659   9.015  0.00  0.00    +0.000 A 
ATOM     12  C   UNL     1      45.699   4.271   8.075  0.00  0.00    +0.000 A 
ATOM     13  C   UNL     1      46.599   3.504   7.327  0.00  0.00    +0.000 A 
ATOM     14  C   UNL     1      46.673   2.125   7.513  0.00  0.00    +0.000 A 
ATOM     15  C   UNL     1      45.846   1.509   8.449  0.00  0.00    +0.000 A 
ATOM     16  C   UNL     1      44.947   2.274   9.196  0.00  0.00    +0.000 A 
ENDBRANCH  10  11
ENDBRANCH   9  10
ENDBRANCH   6   9
ENDBRANCH   1   3
BRANCH   1  18
ATOM     17  C   UNL     1      49.499   8.399  13.053  0.00  0.00    +0.000 C 
ATOM     18  C   UNL     1      49.159   7.148  13.860  0.00  0.00    +0.000 C 
BRANCH  18  19
ATOM     19  C   UNL     1      49.946   7.079  15.195  0.00  0.00    +0.000 C 
ATOM     20  O   UNL     1      51.112   7.483  15.254  0.00  0.00    +0.000 OA
BRANCH  19  21
ATOM     21  C   UNL     1      49.238   6.688  16.430  0.00  0.00    +0.000 A 
ATOM     22  C   UNL     1      49.216   5.356  16.827  0.00  0.00    +0.000 A 
ATOM     23  S   UNL     1      48.511   5.124  18.366  0.00  0.00    +0.000 S 
ATOM     24  C   UNL     1      48.182   6.788  18.527  0.00  0.00    +0.000 A 
ATOM     25  N   UNL     1      47.632   7.292  19.665  0.00  0.00    +0.000 NA
ATOM     26  C   UNL     1      47.498   8.577  19.663  0.00  0.00    +0.000 A 
ATOM     27  N   UNL     1      47.814   9.395  18.609  0.00  0.00    +0.000 N 
ATOM     28  C   UNL     1      48.139   8.886  17.378  0.00  0.00    +0.000 A 
ATOM     29  O   UNL     1      48.016   9.570  16.358  0.00  0.00    +0.000 OA
ATOM     30  C   UNL     1      48.527   7.491  17.387  0.00  0.00    +0.000 A 
ATOM     31  H   UNL     1      47.568  10.373  18.636  0.00  0.00    +0.000 HD
ENDBRANCH  19  21
ENDBRANCH  18  19
ENDBRANCH   1  18
TORSDOF 7
ENDMDL
