MODEL 1
REMARK VINA RESULT:    -7.578      0.000      0.000
REMARK INTER + INTRA:         -11.294
REMARK INTER:                 -10.901
REMARK INTRA:                  -0.393
REMARK UNBOUND:                -0.393
REMARK  Name = 
REMARK  8 active torsions:
REMARK  status: ('A' for Active; 'I' for Inactive)
REMARK    1  A    between atoms: C_2  and  O_3
REMARK    2  A    between atoms: C_2  and  C_4
REMARK    3  A    between atoms: C_4  and  C_5
REMARK    4  A    between atoms: C_6  and  C_7
REMARK    5  A    between atoms: C_11  and  O_12
REMARK    6  A    between atoms: O_12  and  C_13
REMARK    7  A    between atoms: C_13  and  C_14
REMARK    8  A    between atoms: C_18  and  C_19
REMARK                            x       y       z     vdW  Elec       q    Type
REMARK                         _______ _______ _______ _____ _____    ______ ____
ROOT
ATOM      1  C   UNL     1      47.269   7.126  12.670  0.00  0.00    +0.000 C 
ATOM      2  C   UNL     1      48.002   8.462  12.693  0.00  0.00    +0.000 C 
ATOM      3  C   UNL     1      48.419   7.412  11.721  0.00  0.00    +0.000 C 
ENDROOT
BRANCH   1   4
ATOM      4  C   UNL     1      47.471   6.181  13.846  0.00  0.00    +0.000 A 
ATOM      5  C   UNL     1      46.889   4.903  13.886  0.00  0.00    +0.000 A 
ATOM      6  C   UNL     1      47.091   4.046  14.966  0.00  0.00    +0.000 A 
ATOM      7  C   UNL     1      47.848   4.465  16.055  0.00  0.00    +0.000 A 
ATOM      8  C   UNL     1      48.412   5.746  16.091  0.00  0.00    +0.000 A 
ATOM      9  C   UNL     1      48.239   6.572  14.963  0.00  0.00    +0.000 A 
BRANCH   8  10
ATOM     10  C   UNL     1      49.159   6.287  17.308  0.00  0.00    +0.000 C 
ATOM     11  C   UNL     1      48.732   5.624  18.626  0.00  0.00    +0.000 C 
ATOM     12  C   UNL     1      47.428   6.201  19.169  0.00  0.00    +0.000 C 
ATOM     13  C   UNL     1      47.438   7.730  19.216  0.00  0.00    +0.000 C 
ATOM     14  N   UNL     1      47.835   8.342  17.952  0.00  0.00    +0.000 NA
ATOM     15  C   UNL     1      49.117   7.826  17.460  0.00  0.00    +0.000 C 
ATOM     16  H   UNL     1      47.889   9.355  18.055  0.00  0.00    +0.000 HD
ENDBRANCH   8  10
ENDBRANCH   1   4
BRANCH   1  17
ATOM     17  O   UNL     1      45.898   7.333  12.250  0.00  0.00    +0.000 OA
BRANCH  17  22
ATOM     18  C   UNL     1      45.021   4.841   9.676  0.00  0.00    +0.000 A 
ATOM     19  C   UNL     1      43.794   4.472  10.214  0.00  0.00    +0.000 A 
ATOM     20  N   UNL     1      43.288   4.992  11.352  0.00  0.00    +0.000 NA
ATOM     21  C   UNL     1      44.051   5.929  11.966  0.00  0.00    +0.000 A 
ATOM     22  C   UNL     1      45.273   6.390  11.489  0.00  0.00    +0.000 A 
ATOM     23  C   UNL     1      45.770   5.829  10.319  0.00  0.00    +0.000 A 
BRANCH  18  25
ATOM     24  C   UNL     1      45.966   3.648   7.537  0.00  0.00    +0.000 C 
ATOM     25  C   UNL     1      45.519   4.211   8.499  0.00  0.00    +0.000 C 
BRANCH  24  26
ATOM     26  C   UNL     1      46.542   2.934   6.387  0.00  0.00    +0.000 C 
BRANCH  26  28
ATOM     27  O   UNL     1      47.633   0.957   7.215  0.00  0.00    +0.000 OA
ATOM     28  C   UNL     1      47.739   2.070   6.719  0.00  0.00    +0.000 C 
BRANCH  28  29
ATOM     29  O   UNL     1      48.943   2.570   6.360  0.00  0.00    +0.000 OA
ATOM     30  H   UNL     1      49.273   3.292   6.928  0.00  0.00    +0.000 HD
ENDBRANCH  28  29
ENDBRANCH  26  28
ENDBRANCH  24  26
ENDBRANCH  18  25
ENDBRANCH  17  22
ENDBRANCH   1  17
TORSDOF 8
ENDMDL
MODEL 2
REMARK VINA RESULT:    -7.491      2.067      2.807
REMARK INTER + INTRA:         -11.167
REMARK INTER:                 -11.368
REMARK INTRA:                   0.200
REMARK UNBOUND:                -0.393
REMARK  Name = 
REMARK  8 active torsions:
REMARK  status: ('A' for Active; 'I' for Inactive)
REMARK    1  A    between atoms: C_2  and  O_3
REMARK    2  A    between atoms: C_2  and  C_4
REMARK    3  A    between atoms: C_4  and  C_5
REMARK    4  A    between atoms: C_6  and  C_7
REMARK    5  A    between atoms: C_11  and  O_12
REMARK    6  A    between atoms: O_12  and  C_13
REMARK    7  A    between atoms: C_13  and  C_14
REMARK    8  A    between atoms: C_18  and  C_19
REMARK                            x       y       z     vdW  Elec       q    Type
REMARK                         _______ _______ _______ _____ _____    ______ ____
ROOT
ATOM      1  C   UNL     1      46.319   6.394  13.008  0.00  0.00    +0.000 C 
ATOM      2  C   UNL     1      45.994   7.808  12.541  0.00  0.00    +0.000 C 
ATOM      3  C   UNL     1      46.755   6.895  11.643  0.00  0.00    +0.000 C 
ENDROOT
BRANCH   1   4
ATOM      4  C   UNL     1      47.344   6.228  14.120  0.00  0.00    +0.000 A 
ATOM      5  C   UNL     1      48.480   7.048  14.218  0.00  0.00    +0.000 A 
ATOM      6  C   UNL     1      49.405   6.889  15.248  0.00  0.00    +0.000 A 
ATOM      7  C   UNL     1      49.237   5.874  16.183  0.00  0.00    +0.000 A 
ATOM      8  C   UNL     1      48.150   4.995  16.107  0.00  0.00    +0.000 A 
ATOM      9  C   UNL     1      47.200   5.213  15.089  0.00  0.00    +0.000 A 
BRANCH   8  10
ATOM     10  C   UNL     1      47.982   3.803  17.045  0.00  0.00    +0.000 C 
ATOM     11  C   UNL     1      48.942   3.834  18.244  0.00  0.00    +0.000 C 
ATOM     12  C   UNL     1      50.343   3.351  17.878  0.00  0.00    +0.000 C 
ATOM     13  C   UNL     1      50.325   2.017  17.129  0.00  0.00    +0.000 C 
ATOM     14  N   UNL     1      49.416   2.009  15.987  0.00  0.00    +0.000 NA
ATOM     15  C   UNL     1      48.056   2.420  16.354  0.00  0.00    +0.000 C 
ATOM     16  H   UNL     1      49.392   1.082  15.565  0.00  0.00    +0.000 HD
ENDBRANCH   8  10
ENDBRANCH   1   4
BRANCH   1  17
ATOM     17  O   UNL     1      45.091   5.640  13.158  0.00  0.00    +0.000 OA
BRANCH  17  22
ATOM     18  C   UNL     1      44.876   3.530  10.140  0.00  0.00    +0.000 A 
ATOM     19  C   UNL     1      43.923   2.642  10.625  0.00  0.00    +0.000 A 
ATOM     20  N   UNL     1      43.392   2.718  11.864  0.00  0.00    +0.000 NA
ATOM     21  C   UNL     1      43.837   3.736  12.640  0.00  0.00    +0.000 A 
ATOM     22  C   UNL     1      44.760   4.694  12.233  0.00  0.00    +0.000 A 
ATOM     23  C   UNL     1      45.293   4.585  10.955  0.00  0.00    +0.000 A 
BRANCH  18  25
ATOM     24  C   UNL     1      45.891   3.265   7.734  0.00  0.00    +0.000 C 
ATOM     25  C   UNL     1      45.435   3.360   8.840  0.00  0.00    +0.000 C 
BRANCH  24  26
ATOM     26  C   UNL     1      46.430   3.189   6.366  0.00  0.00    +0.000 C 
BRANCH  26  28
ATOM     27  O   UNL     1      48.040   1.555   7.088  0.00  0.00    +0.000 OA
ATOM     28  C   UNL     1      47.683   2.351   6.231  0.00  0.00    +0.000 C 
BRANCH  28  29
ATOM     29  O   UNL     1      48.349   2.474   5.061  0.00  0.00    +0.000 OA
ATOM     30  H   UNL     1      47.904   3.027   4.392  0.00  0.00    +0.000 HD
ENDBRANCH  28  29
ENDBRANCH  26  28
ENDBRANCH  24  26
ENDBRANCH  18  25
ENDBRANCH  17  22
ENDBRANCH   1  17
TORSDOF 8
ENDMDL
MODEL 3
REMARK VINA RESULT:    -7.404      1.802      2.553
REMARK INTER + INTRA:         -11.042
REMARK INTER:                 -10.016
REMARK INTRA:                  -1.026
REMARK UNBOUND:                -0.393
REMARK  Name = 
REMARK  8 active torsions:
REMARK  status: ('A' for Active; 'I' for Inactive)
REMARK    1  A    between atoms: C_2  and  O_3
REMARK    2  A    between atoms: C_2  and  C_4
REMARK    3  A    between atoms: C_4  and  C_5
REMARK    4  A    between atoms: C_6  and  C_7
REMARK    5  A    between atoms: C_11  and  O_12
REMARK    6  A    between atoms: O_12  and  C_13
REMARK    7  A    between atoms: C_13  and  C_14
REMARK    8  A    between atoms: C_18  and  C_19
REMARK                            x       y       z     vdW  Elec       q    Type
REMARK                         _______ _______ _______ _____ _____    ______ ____
ROOT
ATOM      1  C   UNL     1      45.772   7.787  12.469  0.00  0.00    +0.000 C 
ATOM      2  C   UNL     1      45.056   9.078  12.847  0.00  0.00    +0.000 C 
ATOM      3  C   UNL     1      45.163   8.692  11.412  0.00  0.00    +0.000 C 
ENDROOT
BRANCH   1   4
ATOM      4  C   UNL     1      47.283   7.731  12.643  0.00  0.00    +0.000 A 
ATOM      5  C   UNL     1      48.167   7.927  11.569  0.00  0.00    +0.000 A 
ATOM      6  C   UNL     1      49.548   7.882  11.747  0.00  0.00    +0.000 A 
ATOM      7  C   UNL     1      50.079   7.595  13.000  0.00  0.00    +0.000 A 
ATOM      8  C   UNL     1      49.245   7.342  14.096  0.00  0.00    +0.000 A 
ATOM      9  C   UNL     1      47.855   7.449  13.902  0.00  0.00    +0.000 A 
BRANCH   8  10
ATOM     10  C   UNL     1      49.781   6.919  15.462  0.00  0.00    +0.000 C 
ATOM     11  C   UNL     1      48.855   7.309  16.624  0.00  0.00    +0.000 C 
ATOM     12  C   UNL     1      49.006   8.776  17.018  0.00  0.00    +0.000 C 
ATOM     13  C   UNL     1      50.467   9.181  17.223  0.00  0.00    +0.000 C 
ATOM     14  N   UNL     1      51.329   8.812  16.104  0.00  0.00    +0.000 NA
ATOM     15  C   UNL     1      51.224   7.389  15.764  0.00  0.00    +0.000 C 
ATOM     16  H   UNL     1      52.298   9.044  16.318  0.00  0.00    +0.000 HD
ENDBRANCH   8  10
ENDBRANCH   1   4
BRANCH   1  17
ATOM     17  O   UNL     1      45.030   6.654  12.984  0.00  0.00    +0.000 OA
BRANCH  17  22
ATOM     18  C   UNL     1      44.773   4.276  10.175  0.00  0.00    +0.000 A 
ATOM     19  C   UNL     1      43.761   3.491  10.714  0.00  0.00    +0.000 A 
ATOM     20  N   UNL     1      43.205   3.713  11.924  0.00  0.00    +0.000 NA
ATOM     21  C   UNL     1      43.687   4.776  12.612  0.00  0.00    +0.000 A 
ATOM     22  C   UNL     1      44.670   5.641  12.143  0.00  0.00    +0.000 A 
ATOM     23  C   UNL     1      45.228   5.382  10.898  0.00  0.00    +0.000 A 
BRANCH  18  25
ATOM     24  C   UNL     1      45.885   3.669   7.876  0.00  0.00    +0.000 C 
ATOM     25  C   UNL     1      45.353   3.953   8.914  0.00  0.00    +0.000 C 
BRANCH  24  26
ATOM     26  C   UNL     1      46.579   3.316   6.627  0.00  0.00    +0.000 C 
BRANCH  26  28
ATOM     27  O   UNL     1      47.470   1.198   7.338  0.00  0.00    +0.000 OA
ATOM     28  C   UNL     1      47.662   2.272   6.784  0.00  0.00    +0.000 C 
BRANCH  28  29
ATOM     29  O   UNL     1      48.847   2.561   6.200  0.00  0.00    +0.000 OA
ATOM     30  H   UNL     1      48.880   3.423   5.745  0.00  0.00    +0.000 HD
ENDBRANCH  28  29
ENDBRANCH  26  28
ENDBRANCH  24  26
ENDBRANCH  18  25
ENDBRANCH  17  22
ENDBRANCH   1  17
TORSDOF 8
ENDMDL
MODEL 4
REMARK VINA RESULT:    -7.127      3.115      9.067
REMARK INTER + INTRA:         -10.644
REMARK INTER:                 -10.228
REMARK INTRA:                  -0.416
REMARK UNBOUND:                -0.393
REMARK  Name = 
REMARK  8 active torsions:
REMARK  status: ('A' for Active; 'I' for Inactive)
REMARK    1  A    between atoms: C_2  and  O_3
REMARK    2  A    between atoms: C_2  and  C_4
REMARK    3  A    between atoms: C_4  and  C_5
REMARK    4  A    between atoms: C_6  and  C_7
REMARK    5  A    between atoms: C_11  and  O_12
REMARK    6  A    between atoms: O_12  and  C_13
REMARK    7  A    between atoms: C_13  and  C_14
REMARK    8  A    between atoms: C_18  and  C_19
REMARK                            x       y       z     vdW  Elec       q    Type
REMARK                         _______ _______ _______ _____ _____    ______ ____
ROOT
ATOM      1  C   UNL     1      44.396   5.103  10.891  0.00  0.00    +0.000 C 
ATOM      2  C   UNL     1      42.990   5.688  10.821  0.00  0.00    +0.000 C 
ATOM      3  C   UNL     1      43.384   4.864  11.998  0.00  0.00    +0.000 C 
ENDROOT
BRANCH   1   4
ATOM      4  C   UNL     1      44.749   3.979   9.929  0.00  0.00    +0.000 A 
ATOM      5  C   UNL     1      44.233   2.680  10.074  0.00  0.00    +0.000 A 
ATOM      6  C   UNL     1      44.559   1.664   9.178  0.00  0.00    +0.000 A 
ATOM      7  C   UNL     1      45.448   1.912   8.138  0.00  0.00    +0.000 A 
ATOM      8  C   UNL     1      46.032   3.174   7.974  0.00  0.00    +0.000 A 
ATOM      9  C   UNL     1      45.642   4.198   8.858  0.00  0.00    +0.000 A 
BRANCH   8  10
ATOM     10  C   UNL     1      47.092   3.463   6.913  0.00  0.00    +0.000 C 
ATOM     11  C   UNL     1      46.525   3.511   5.486  0.00  0.00    +0.000 C 
ATOM     12  C   UNL     1      46.316   2.117   4.899  0.00  0.00    +0.000 C 
ATOM     13  C   UNL     1      47.550   1.226   5.050  0.00  0.00    +0.000 C 
ATOM     14  N   UNL     1      48.067   1.185   6.414  0.00  0.00    +0.000 NA
ATOM     15  C   UNL     1      48.321   2.524   6.956  0.00  0.00    +0.000 C 
ATOM     16  H   UNL     1      48.924   0.633   6.447  0.00  0.00    +0.000 HD
ENDBRANCH   8  10
ENDBRANCH   1   4
BRANCH   1  17
ATOM     17  O   UNL     1      45.362   6.177  10.997  0.00  0.00    +0.000 OA
BRANCH  17  22
ATOM     18  C   UNL     1      47.287   5.437  14.056  0.00  0.00    +0.000 A 
ATOM     19  C   UNL     1      48.328   6.326  13.815  0.00  0.00    +0.000 A 
ATOM     20  N   UNL     1      48.407   7.108  12.718  0.00  0.00    +0.000 NA
ATOM     21  C   UNL     1      47.387   6.993  11.833  0.00  0.00    +0.000 A 
ATOM     22  C   UNL     1      46.285   6.161  12.001  0.00  0.00    +0.000 A 
ATOM     23  C   UNL     1      46.237   5.363  13.137  0.00  0.00    +0.000 A 
BRANCH  18  25
ATOM     24  C   UNL     1      47.308   3.938  16.210  0.00  0.00    +0.000 C 
ATOM     25  C   UNL     1      47.294   4.601  15.209  0.00  0.00    +0.000 C 
BRANCH  24  26
ATOM     26  C   UNL     1      47.338   3.164  17.461  0.00  0.00    +0.000 C 
BRANCH  26  28
ATOM     27  O   UNL     1      49.005   4.671  18.315  0.00  0.00    +0.000 OA
ATOM     28  C   UNL     1      48.333   3.664  18.485  0.00  0.00    +0.000 C 
BRANCH  28  29
ATOM     29  O   UNL     1      48.380   2.974  19.647  0.00  0.00    +0.000 OA
ATOM     30  H   UNL     1      47.877   2.137  19.647  0.00  0.00    +0.000 HD
ENDBRANCH  28  29
ENDBRANCH  26  28
ENDBRANCH  24  26
ENDBRANCH  18  25
ENDBRANCH  17  22
ENDBRANCH   1  17
TORSDOF 8
ENDMDL
MODEL 5
REMARK VINA RESULT:    -7.022      2.597      4.323
REMARK INTER + INTRA:         -10.493
REMARK INTER:                  -9.778
REMARK INTRA:                  -0.716
REMARK UNBOUND:                -0.393
REMARK  Name = 
REMARK  8 active torsions:
REMARK  status: ('A' for Active; 'I' for Inactive)
REMARK    1  A    between atoms: C_2  and  O_3
REMARK    2  A    between atoms: C_2  and  C_4
REMARK    3  A    between atoms: C_4  and  C_5
REMARK    4  A    between atoms: C_6  and  C_7
REMARK    5  A    between atoms: C_11  and  O_12
REMARK    6  A    between atoms: O_12  and  C_13
REMARK    7  A    between atoms: C_13  and  C_14
REMARK    8  A    between atoms: C_18  and  C_19
REMARK                            x       y       z     vdW  Elec       q    Type
REMARK                         _______ _______ _______ _____ _____    ______ ____
ROOT
ATOM      1  C   UNL     1      46.726   7.630  12.918  0.00  0.00    +0.000 C 
ATOM      2  C   UNL     1      45.832   8.828  13.216  0.00  0.00    +0.000 C 
ATOM      3  C   UNL     1      46.298   8.588  11.821  0.00  0.00    +0.000 C 
ENDROOT
BRANCH   1   4
ATOM      4  C   UNL     1      48.156   7.659  13.438  0.00  0.00    +0.000 A 
ATOM      5  C   UNL     1      48.506   7.130  14.690  0.00  0.00    +0.000 A 
ATOM      6  C   UNL     1      49.822   7.156  15.149  0.00  0.00    +0.000 A 
ATOM      7  C   UNL     1      50.814   7.754  14.379  0.00  0.00    +0.000 A 
ATOM      8  C   UNL     1      50.514   8.342  13.145  0.00  0.00    +0.000 A 
ATOM      9  C   UNL     1      49.188   8.252  12.680  0.00  0.00    +0.000 A 
BRANCH   8  10
ATOM     10  C   UNL     1      51.548   9.102  12.318  0.00  0.00    +0.000 C 
ATOM     11  C   UNL     1      51.379   8.904  10.803  0.00  0.00    +0.000 C 
ATOM     12  C   UNL     1      51.967   7.579  10.323  0.00  0.00    +0.000 C 
ATOM     13  C   UNL     1      53.394   7.355  10.825  0.00  0.00    +0.000 C 
ATOM     14  N   UNL     1      53.533   7.537  12.267  0.00  0.00    +0.000 NA
ATOM     15  C   UNL     1      53.019   8.835  12.718  0.00  0.00    +0.000 C 
ATOM     16  H   UNL     1      54.511   7.441  12.539  0.00  0.00    +0.000 HD
ENDBRANCH   8  10
ENDBRANCH   1   4
BRANCH   1  17
ATOM     17  O   UNL     1      45.988   6.405  13.155  0.00  0.00    +0.000 OA
BRANCH  17  22
ATOM     18  C   UNL     1      44.951   4.772  10.014  0.00  0.00    +0.000 A 
ATOM     19  C   UNL     1      43.597   4.681  10.314  0.00  0.00    +0.000 A 
ATOM     20  N   UNL     1      43.056   5.112  11.474  0.00  0.00    +0.000 NA
ATOM     21  C   UNL     1      43.918   5.665  12.361  0.00  0.00    +0.000 A 
ATOM     22  C   UNL     1      45.281   5.833  12.139  0.00  0.00    +0.000 A 
ATOM     23  C   UNL     1      45.808   5.372  10.940  0.00  0.00    +0.000 A 
BRANCH  18  25
ATOM     24  C   UNL     1      45.890   3.757   7.784  0.00  0.00    +0.000 C 
ATOM     25  C   UNL     1      45.464   4.247   8.793  0.00  0.00    +0.000 C 
BRANCH  24  26
ATOM     26  C   UNL     1      46.413   3.115   6.567  0.00  0.00    +0.000 C 
BRANCH  26  28
ATOM     27  O   UNL     1      47.482   1.065   7.229  0.00  0.00    +0.000 OA
ATOM     28  C   UNL     1      47.598   2.204   6.798  0.00  0.00    +0.000 C 
BRANCH  28  29
ATOM     29  O   UNL     1      48.800   2.695   6.422  0.00  0.00    +0.000 OA
ATOM     30  H   UNL     1      49.116   3.454   6.947  0.00  0.00    +0.000 HD
ENDBRANCH  28  29
ENDBRANCH  26  28
ENDBRANCH  24  26
ENDBRANCH  18  25
ENDBRANCH  17  22
ENDBRANCH   1  17
TORSDOF 8
ENDMDL
MODEL 6
REMARK VINA RESULT:    -6.991      3.521      6.119
REMARK INTER + INTRA:         -10.448
REMARK INTER:                 -11.276
REMARK INTRA:                   0.828
REMARK UNBOUND:                -0.393
REMARK  Name = 
REMARK  8 active torsions:
REMARK  status: ('A' for Active; 'I' for Inactive)
REMARK    1  A    between atoms: C_2  and  O_3
REMARK    2  A    between atoms: C_2  and  C_4
REMARK    3  A    between atoms: C_4  and  C_5
REMARK    4  A    between atoms: C_6  and  C_7
REMARK    5  A    between atoms: C_11  and  O_12
REMARK    6  A    between atoms: O_12  and  C_13
REMARK    7  A    between atoms: C_13  and  C_14
REMARK    8  A    between atoms: C_18  and  C_19
REMARK                            x       y       z     vdW  Elec       q    Type
REMARK                         _______ _______ _______ _____ _____    ______ ____
ROOT
ATOM      1  C   UNL     1      45.194   6.991  12.105  0.00  0.00    +0.000 C 
ATOM      2  C   UNL     1      46.425   6.171  11.736  0.00  0.00    +0.000 C 
ATOM      3  C   UNL     1      46.142   6.466  13.169  0.00  0.00    +0.000 C 
ENDROOT
BRANCH   1   4
ATOM      4  C   UNL     1      45.191   8.472  11.753  0.00  0.00    +0.000 A 
ATOM      5  C   UNL     1      46.234   9.332  12.134  0.00  0.00    +0.000 A 
ATOM      6  C   UNL     1      46.221  10.684  11.796  0.00  0.00    +0.000 A 
ATOM      7  C   UNL     1      45.140  11.217  11.104  0.00  0.00    +0.000 A 
ATOM      8  C   UNL     1      44.049  10.417  10.741  0.00  0.00    +0.000 A 
ATOM      9  C   UNL     1      44.113   9.044  11.046  0.00  0.00    +0.000 A 
BRANCH   8  10
ATOM     10  C   UNL     1      42.796  10.980  10.077  0.00  0.00    +0.000 C 
ATOM     11  C   UNL     1      42.643  12.498  10.255  0.00  0.00    +0.000 C 
ATOM     12  C   UNL     1      42.083  12.867  11.627  0.00  0.00    +0.000 C 
ATOM     13  C   UNL     1      40.827  12.069  11.981  0.00  0.00    +0.000 C 
ATOM     14  N   UNL     1      40.994  10.628  11.815  0.00  0.00    +0.000 NA
ATOM     15  C   UNL     1      41.479  10.272  10.477  0.00  0.00    +0.000 C 
ATOM     16  H   UNL     1      40.113  10.150  12.000  0.00  0.00    +0.000 HD
ENDBRANCH   8  10
ENDBRANCH   1   4
BRANCH   1  17
ATOM     17  O   UNL     1      43.998   6.252  11.756  0.00  0.00    +0.000 OA
BRANCH  17  22
ATOM     18  C   UNL     1      44.804   3.689   9.228  0.00  0.00    +0.000 A 
ATOM     19  C   UNL     1      44.175   2.626   9.864  0.00  0.00    +0.000 A 
ATOM     20  N   UNL     1      43.538   2.733  11.049  0.00  0.00    +0.000 NA
ATOM     21  C   UNL     1      43.531   3.966  11.610  0.00  0.00    +0.000 A 
ATOM     22  C   UNL     1      44.101   5.098  11.037  0.00  0.00    +0.000 A 
ATOM     23  C   UNL     1      44.755   4.954   9.820  0.00  0.00    +0.000 A 
BRANCH  18  25
ATOM     24  C   UNL     1      46.060   3.297   6.957  0.00  0.00    +0.000 C 
ATOM     25  C   UNL     1      45.505   3.495   8.003  0.00  0.00    +0.000 C 
BRANCH  24  26
ATOM     26  C   UNL     1      46.710   3.019   5.666  0.00  0.00    +0.000 C 
BRANCH  26  28
ATOM     27  O   UNL     1      48.024   1.056   5.213  0.00  0.00    +0.000 OA
ATOM     28  C   UNL     1      47.943   2.147   5.759  0.00  0.00    +0.000 C 
BRANCH  28  29
ATOM     29  O   UNL     1      48.994   2.684   6.420  0.00  0.00    +0.000 OA
ATOM     30  H   UNL     1      48.927   3.643   6.586  0.00  0.00    +0.000 HD
ENDBRANCH  28  29
ENDBRANCH  26  28
ENDBRANCH  24  26
ENDBRANCH  18  25
ENDBRANCH  17  22
ENDBRANCH   1  17
TORSDOF 8
ENDMDL
MODEL 7
REMARK VINA RESULT:    -6.677      3.113      4.239
REMARK INTER + INTRA:          -9.997
REMARK INTER:                  -8.843
REMARK INTRA:                  -1.155
REMARK UNBOUND:                -0.393
REMARK  Name = 
REMARK  8 active torsions:
REMARK  status: ('A' for Active; 'I' for Inactive)
REMARK    1  A    between atoms: C_2  and  O_3
REMARK    2  A    between atoms: C_2  and  C_4
REMARK    3  A    between atoms: C_4  and  C_5
REMARK    4  A    between atoms: C_6  and  C_7
REMARK    5  A    between atoms: C_11  and  O_12
REMARK    6  A    between atoms: O_12  and  C_13
REMARK    7  A    between atoms: C_13  and  C_14
REMARK    8  A    between atoms: C_18  and  C_19
REMARK                            x       y       z     vdW  Elec       q    Type
REMARK                         _______ _______ _______ _____ _____    ______ ____
ROOT
ATOM      1  C   UNL     1      49.286   8.663  13.776  0.00  0.00    +0.000 C 
ATOM      2  C   UNL     1      50.753   8.917  13.448  0.00  0.00    +0.000 C 
ATOM      3  C   UNL     1      50.162   7.574  13.183  0.00  0.00    +0.000 C 
ENDROOT
BRANCH   1   4
ATOM      4  C   UNL     1      48.883   8.601  15.242  0.00  0.00    +0.000 A 
ATOM      5  C   UNL     1      48.417   9.729  15.938  0.00  0.00    +0.000 A 
ATOM      6  C   UNL     1      48.043   9.653  17.278  0.00  0.00    +0.000 A 
ATOM      7  C   UNL     1      48.169   8.453  17.968  0.00  0.00    +0.000 A 
ATOM      8  C   UNL     1      48.673   7.308  17.340  0.00  0.00    +0.000 A 
ATOM      9  C   UNL     1      48.991   7.397  15.971  0.00  0.00    +0.000 A 
BRANCH   8  10
ATOM     10  C   UNL     1      48.928   6.000  18.084  0.00  0.00    +0.000 C 
ATOM     11  C   UNL     1      49.304   4.835  17.155  0.00  0.00    +0.000 C 
ATOM     12  C   UNL     1      48.083   4.215  16.480  0.00  0.00    +0.000 C 
ATOM     13  C   UNL     1      46.969   3.884  17.475  0.00  0.00    +0.000 C 
ATOM     14  N   UNL     1      46.618   5.004  18.341  0.00  0.00    +0.000 NA
ATOM     15  C   UNL     1      47.785   5.563  19.032  0.00  0.00    +0.000 C 
ATOM     16  H   UNL     1      45.920   4.713  19.025  0.00  0.00    +0.000 HD
ENDBRANCH   8  10
ENDBRANCH   1   4
BRANCH   1  17
ATOM     17  O   UNL     1      48.450   9.482  12.922  0.00  0.00    +0.000 OA
BRANCH  17  22
ATOM     18  C   UNL     1      45.747   7.290  11.699  0.00  0.00    +0.000 A 
ATOM     19  C   UNL     1      44.789   8.284  11.536  0.00  0.00    +0.000 A 
ATOM     20  N   UNL     1      45.005   9.586  11.819  0.00  0.00    +0.000 NA
ATOM     21  C   UNL     1      46.241   9.896  12.279  0.00  0.00    +0.000 A 
ATOM     22  C   UNL     1      47.276   8.982  12.441  0.00  0.00    +0.000 A 
ATOM     23  C   UNL     1      47.021   7.648  12.148  0.00  0.00    +0.000 A 
BRANCH  18  25
ATOM     24  C   UNL     1      45.131   4.782  11.236  0.00  0.00    +0.000 C 
ATOM     25  C   UNL     1      45.435   5.926  11.431  0.00  0.00    +0.000 C 
BRANCH  24  26
ATOM     26  C   UNL     1      44.724   3.382  11.029  0.00  0.00    +0.000 C 
BRANCH  26  28
ATOM     27  O   UNL     1      43.713   3.324  13.210  0.00  0.00    +0.000 OA
ATOM     28  C   UNL     1      43.798   2.834  12.093  0.00  0.00    +0.000 C 
BRANCH  28  29
ATOM     29  O   UNL     1      43.002   1.810  11.710  0.00  0.00    +0.000 OA
ATOM     30  H   UNL     1      43.461   0.957  11.593  0.00  0.00    +0.000 HD
ENDBRANCH  28  29
ENDBRANCH  26  28
ENDBRANCH  24  26
ENDBRANCH  18  25
ENDBRANCH  17  22
ENDBRANCH   1  17
TORSDOF 8
ENDMDL
MODEL 8
REMARK VINA RESULT:    -6.648      1.457      2.098
REMARK INTER + INTRA:          -9.955
REMARK INTER:                 -10.053
REMARK INTRA:                   0.098
REMARK UNBOUND:                -0.393
REMARK  Name = 
REMARK  8 active torsions:
REMARK  status: ('A' for Active; 'I' for Inactive)
REMARK    1  A    between atoms: C_2  and  O_3
REMARK    2  A    between atoms: C_2  and  C_4
REMARK    3  A    between atoms: C_4  and  C_5
REMARK    4  A    between atoms: C_6  and  C_7
REMARK    5  A    between atoms: C_11  and  O_12
REMARK    6  A    between atoms: O_12  and  C_13
REMARK    7  A    between atoms: C_13  and  C_14
REMARK    8  A    between atoms: C_18  and  C_19
REMARK                            x       y       z     vdW  Elec       q    Type
REMARK                         _______ _______ _______ _____ _____    ______ ____
ROOT
ATOM      1  C   UNL     1      47.978   7.638  12.940  0.00  0.00    +0.000 C 
ATOM      2  C   UNL     1      48.490   8.938  12.332  0.00  0.00    +0.000 C 
ATOM      3  C   UNL     1      48.730   7.650  11.621  0.00  0.00    +0.000 C 
ENDROOT
BRANCH   1   4
ATOM      4  C   UNL     1      48.660   7.122  14.199  0.00  0.00    +0.000 A 
ATOM      5  C   UNL     1      49.975   7.481  14.537  0.00  0.00    +0.000 A 
ATOM      6  C   UNL     1      50.583   7.008  15.699  0.00  0.00    +0.000 A 
ATOM      7  C   UNL     1      49.900   6.127  16.531  0.00  0.00    +0.000 A 
ATOM      8  C   UNL     1      48.605   5.696  16.219  0.00  0.00    +0.000 A 
ATOM      9  C   UNL     1      47.994   6.233  15.069  0.00  0.00    +0.000 A 
BRANCH   8  10
ATOM     10  C   UNL     1      47.860   4.650  17.044  0.00  0.00    +0.000 C 
ATOM     11  C   UNL     1      47.046   5.254  18.198  0.00  0.00    +0.000 C 
ATOM     12  C   UNL     1      47.916   5.590  19.407  0.00  0.00    +0.000 C 
ATOM     13  C   UNL     1      48.817   4.426  19.823  0.00  0.00    +0.000 C 
ATOM     14  N   UNL     1      49.590   3.872  18.716  0.00  0.00    +0.000 NA
ATOM     15  C   UNL     1      48.745   3.497  17.577  0.00  0.00    +0.000 C 
ATOM     16  H   UNL     1      50.121   3.061  19.031  0.00  0.00    +0.000 HD
ENDBRANCH   8  10
ENDBRANCH   1   4
BRANCH   1  17
ATOM     17  O   UNL     1      46.530   7.651  12.962  0.00  0.00    +0.000 OA
BRANCH  17  22
ATOM     18  C   UNL     1      45.411   5.214  10.428  0.00  0.00    +0.000 A 
ATOM     19  C   UNL     1      44.234   4.841  11.065  0.00  0.00    +0.000 A 
ATOM     20  N   UNL     1      43.834   5.341  12.253  0.00  0.00    +0.000 NA
ATOM     21  C   UNL     1      44.655   6.261  12.816  0.00  0.00    +0.000 A 
ATOM     22  C   UNL     1      45.833   6.725  12.241  0.00  0.00    +0.000 A 
ATOM     23  C   UNL     1      46.221   6.186  11.021  0.00  0.00    +0.000 A 
BRANCH  18  25
ATOM     24  C   UNL     1      46.078   4.095   8.149  0.00  0.00    +0.000 C 
ATOM     25  C   UNL     1      45.800   4.605   9.200  0.00  0.00    +0.000 C 
BRANCH  24  26
ATOM     26  C   UNL     1      46.373   3.466   6.852  0.00  0.00    +0.000 C 
BRANCH  26  28
ATOM     27  O   UNL     1      47.241   1.306   7.455  0.00  0.00    +0.000 OA
ATOM     28  C   UNL     1      47.428   2.382   6.905  0.00  0.00    +0.000 C 
BRANCH  28  29
ATOM     29  O   UNL     1      48.572   2.642   6.234  0.00  0.00    +0.000 OA
ATOM     30  H   UNL     1      48.822   1.968   5.574  0.00  0.00    +0.000 HD
ENDBRANCH  28  29
ENDBRANCH  26  28
ENDBRANCH  24  26
ENDBRANCH  18  25
ENDBRANCH  17  22
ENDBRANCH   1  17
TORSDOF 8
ENDMDL
MODEL 9
REMARK VINA RESULT:    -6.329      2.493      3.680
REMARK INTER + INTRA:          -9.496
REMARK INTER:                  -9.046
REMARK INTRA:                  -0.450
REMARK UNBOUND:                -0.393
REMARK  Name = 
REMARK  8 active torsions:
REMARK  status: ('A' for Active; 'I' for Inactive)
REMARK    1  A    between atoms: C_2  and  O_3
REMARK    2  A    between atoms: C_2  and  C_4
REMARK    3  A    between atoms: C_4  and  C_5
REMARK    4  A    between atoms: C_6  and  C_7
REMARK    5  A    between atoms: C_11  and  O_12
REMARK    6  A    between atoms: O_12  and  C_13
REMARK    7  A    between atoms: C_13  and  C_14
REMARK    8  A    between atoms: C_18  and  C_19
REMARK                            x       y       z     vdW  Elec       q    Type
REMARK                         _______ _______ _______ _____ _____    ______ ____
ROOT
ATOM      1  C   UNL     1      49.279   8.228  12.898  0.00  0.00    +0.000 C 
ATOM      2  C   UNL     1      50.396   8.881  12.092  0.00  0.00    +0.000 C 
ATOM      3  C   UNL     1      49.766   7.627  11.591  0.00  0.00    +0.000 C 
ENDROOT
BRANCH   1   4
ATOM      4  C   UNL     1      49.644   7.570  14.220  0.00  0.00    +0.000 A 
ATOM      5  C   UNL     1      50.934   7.659  14.769  0.00  0.00    +0.000 A 
ATOM      6  C   UNL     1      51.250   7.058  15.986  0.00  0.00    +0.000 A 
ATOM      7  C   UNL     1      50.290   6.315  16.664  0.00  0.00    +0.000 A 
ATOM      8  C   UNL     1      49.002   6.151  16.141  0.00  0.00    +0.000 A 
ATOM      9  C   UNL     1      48.692   6.814  14.938  0.00  0.00    +0.000 A 
BRANCH   8  10
ATOM     10  C   UNL     1      47.951   5.258  16.796  0.00  0.00    +0.000 C 
ATOM     11  C   UNL     1      48.477   4.503  18.026  0.00  0.00    +0.000 C 
ATOM     12  C   UNL     1      49.290   3.268  17.645  0.00  0.00    +0.000 C 
ATOM     13  C   UNL     1      48.567   2.380  16.632  0.00  0.00    +0.000 C 
ATOM     14  N   UNL     1      48.084   3.112  15.465  0.00  0.00    +0.000 NA
ATOM     15  C   UNL     1      47.255   4.265  15.833  0.00  0.00    +0.000 C 
ATOM     16  H   UNL     1      47.554   2.489  14.855  0.00  0.00    +0.000 HD
ENDBRANCH   8  10
ENDBRANCH   1   4
BRANCH   1  17
ATOM     17  O   UNL     1      48.124   9.103  12.921  0.00  0.00    +0.000 OA
BRANCH  17  22
ATOM     18  C   UNL     1      45.351   7.114  11.521  0.00  0.00    +0.000 A 
ATOM     19  C   UNL     1      44.481   8.175  11.298  0.00  0.00    +0.000 A 
ATOM     20  N   UNL     1      44.774   9.458  11.597  0.00  0.00    +0.000 NA
ATOM     21  C   UNL     1      45.998   9.678  12.136  0.00  0.00    +0.000 A 
ATOM     22  C   UNL     1      46.950   8.689  12.364  0.00  0.00    +0.000 A 
ATOM     23  C   UNL     1      46.616   7.378  12.053  0.00  0.00    +0.000 A 
BRANCH  18  25
ATOM     24  C   UNL     1      44.643   4.654  10.941  0.00  0.00    +0.000 C 
ATOM     25  C   UNL     1      44.956   5.776  11.232  0.00  0.00    +0.000 C 
BRANCH  24  26
ATOM     26  C   UNL     1      44.269   3.288  10.539  0.00  0.00    +0.000 C 
BRANCH  26  28
ATOM     27  O   UNL     1      44.877   3.655   8.241  0.00  0.00    +0.000 OA
ATOM     28  C   UNL     1      44.780   2.873   9.176  0.00  0.00    +0.000 C 
BRANCH  28  29
ATOM     29  O   UNL     1      45.206   1.594   9.072  0.00  0.00    +0.000 OA
ATOM     30  H   UNL     1      44.497   0.935   8.952  0.00  0.00    +0.000 HD
ENDBRANCH  28  29
ENDBRANCH  26  28
ENDBRANCH  24  26
ENDBRANCH  18  25
ENDBRANCH  17  22
ENDBRANCH   1  17
TORSDOF 8
ENDMDL
