MODEL 1
REMARK VINA RESULT:    -7.311      0.000      0.000
REMARK INTER + INTRA:         -11.256
REMARK INTER:                 -10.516
REMARK INTRA:                  -0.740
REMARK UNBOUND:                -0.740
REMARK  Name = 
REMARK  9 active torsions:
REMARK  status: ('A' for Active; 'I' for Inactive)
REMARK    1  A    between atoms: C_1  and  N_2
REMARK    2  A    between atoms: C_4  and  C_5
REMARK    3  A    between atoms: N_7  and  C_8
REMARK    4  A    between atoms: C_8  and  C_9
REMARK    5  A    between atoms: C_12  and  O_13
REMARK    6  A    between atoms: O_13  and  C_14
REMARK    7  A    between atoms: C_14  and  C_15
REMARK    8  A    between atoms: C_15  and  C_16
REMARK    9  A    between atoms: C_16  and  O_17
REMARK                            x       y       z     vdW  Elec       q    Type
REMARK                         _______ _______ _______ _____ _____    ______ ____
ROOT
ATOM      1  C   UNL     1      46.524   4.672  13.868  0.00  0.00    +0.000 C 
ATOM      2  O   UNL     1      46.634   3.452  13.805  0.00  0.00    +0.000 OA
ATOM      3  N   UNL     1      45.388   5.336  13.465  0.00  0.00    +0.000 N 
ATOM      4  H   UNL     1      45.380   6.345  13.455  0.00  0.00    +0.000 HD
ENDROOT
BRANCH   1   8
ATOM      5  C   UNL     1      49.910   8.320  14.267  0.00  0.00    +0.000 C 
ATOM      6  N   UNL     1      49.089   7.172  14.580  0.00  0.00    +0.000 N 
ATOM      7  C   UNL     1      48.224   6.546  13.721  0.00  0.00    +0.000 A 
ATOM      8  C   UNL     1      47.584   5.520  14.409  0.00  0.00    +0.000 A 
ATOM      9  C   UNL     1      48.127   5.521  15.745  0.00  0.00    +0.000 A 
ATOM     10  C   UNL     1      48.007   4.807  16.935  0.00  0.00    +0.000 A 
ATOM     11 CL   UNL     1      47.023   3.432  17.046  0.00  0.00    +0.000 Cl
ATOM     12  N   UNL     1      48.720   5.115  18.033  0.00  0.00    +0.000 NA
ATOM     13  C   UNL     1      49.556   6.155  17.940  0.00  0.00    +0.000 A 
ATOM     14  N   UNL     1      49.786   6.930  16.869  0.00  0.00    +0.000 NA
ATOM     15  C   UNL     1      49.049   6.563  15.805  0.00  0.00    +0.000 A 
ENDBRANCH   1   8
BRANCH   3  16
ATOM     16  C   UNL     1      44.287   4.628  12.852  0.00  0.00    +0.000 C 
BRANCH  16  17
ATOM     17  C   UNL     1      44.559   4.284  11.409  0.00  0.00    +0.000 A 
ATOM     18  C   UNL     1      44.166   3.044  10.886  0.00  0.00    +0.000 A 
ATOM     19  C   UNL     1      44.391   2.724   9.541  0.00  0.00    +0.000 A 
ATOM     20  C   UNL     1      45.023   3.641   8.704  0.00  0.00    +0.000 A 
ATOM     21  C   UNL     1      45.446   4.866   9.224  0.00  0.00    +0.000 A 
ATOM     22  C   UNL     1      45.212   5.190  10.563  0.00  0.00    +0.000 A 
BRANCH  20  23
ATOM     23  O   UNL     1      45.333   3.427   7.390  0.00  0.00    +0.000 OA
BRANCH  23  24
ATOM     24  C   UNL     1      46.723   3.441   7.061  0.00  0.00    +0.000 C 
BRANCH  24  25
ATOM     25  C   UNL     1      47.277   2.032   7.260  0.00  0.00    +0.000 C 
BRANCH  25  26
ATOM     26  C   UNL     1      47.359   1.251   5.955  0.00  0.00    +0.000 C 
BRANCH  26  27
ATOM     27  O   UNL     1      48.501   1.674   5.220  0.00  0.00    +0.000 OA
ATOM     28  H   UNL     1      48.203   2.354   4.591  0.00  0.00    +0.000 HD
ENDBRANCH  26  27
ENDBRANCH  25  26
ENDBRANCH  24  25
ENDBRANCH  23  24
ENDBRANCH  20  23
ENDBRANCH  16  17
ENDBRANCH   3  16
TORSDOF 8
ENDMDL
MODEL 2
REMARK VINA RESULT:    -7.117      2.389      3.582
REMARK INTER + INTRA:         -10.977
REMARK INTER:                 -10.258
REMARK INTRA:                  -0.719
REMARK UNBOUND:                -0.740
REMARK  Name = 
REMARK  9 active torsions:
REMARK  status: ('A' for Active; 'I' for Inactive)
REMARK    1  A    between atoms: C_1  and  N_2
REMARK    2  A    between atoms: C_4  and  C_5
REMARK    3  A    between atoms: N_7  and  C_8
REMARK    4  A    between atoms: C_8  and  C_9
REMARK    5  A    between atoms: C_12  and  O_13
REMARK    6  A    between atoms: O_13  and  C_14
REMARK    7  A    between atoms: C_14  and  C_15
REMARK    8  A    between atoms: C_15  and  C_16
REMARK    9  A    between atoms: C_16  and  O_17
REMARK                            x       y       z     vdW  Elec       q    Type
REMARK                         _______ _______ _______ _____ _____    ______ ____
ROOT
ATOM      1  C   UNL     1      44.581   5.588  11.425  0.00  0.00    +0.000 C 
ATOM      2  O   UNL     1      43.665   5.086  12.066  0.00  0.00    +0.000 OA
ATOM      3  N   UNL     1      44.953   5.130  10.180  0.00  0.00    +0.000 N 
ATOM      4  H   UNL     1      45.768   5.519   9.732  0.00  0.00    +0.000 HD
ENDROOT
BRANCH   1   8
ATOM      5  C   UNL     1      45.981  10.308  12.259  0.00  0.00    +0.000 C 
ATOM      6  N   UNL     1      45.943   8.863  12.295  0.00  0.00    +0.000 N 
ATOM      7  C   UNL     1      45.101   8.065  11.566  0.00  0.00    +0.000 A 
ATOM      8  C   UNL     1      45.335   6.739  11.917  0.00  0.00    +0.000 A 
ATOM      9  C   UNL     1      46.401   6.754  12.888  0.00  0.00    +0.000 A 
ATOM     10  C   UNL     1      47.160   5.858  13.638  0.00  0.00    +0.000 A 
ATOM     11 CL   UNL     1      46.986   4.182  13.455  0.00  0.00    +0.000 Cl
ATOM     12  N   UNL     1      48.123   6.265  14.483  0.00  0.00    +0.000 NA
ATOM     13  C   UNL     1      48.323   7.584  14.584  0.00  0.00    +0.000 A 
ATOM     14  N   UNL     1      47.682   8.563  13.928  0.00  0.00    +0.000 NA
ATOM     15  C   UNL     1      46.740   8.089  13.094  0.00  0.00    +0.000 A 
ENDBRANCH   1   8
BRANCH   3  16
ATOM     16  C   UNL     1      44.334   3.960   9.600  0.00  0.00    +0.000 C 
BRANCH  16  17
ATOM     17  C   UNL     1      45.270   3.213   8.682  0.00  0.00    +0.000 A 
ATOM     18  C   UNL     1      45.428   1.825   8.804  0.00  0.00    +0.000 A 
ATOM     19  C   UNL     1      46.275   1.117   7.941  0.00  0.00    +0.000 A 
ATOM     20  C   UNL     1      46.983   1.794   6.951  0.00  0.00    +0.000 A 
ATOM     21  C   UNL     1      46.856   3.181   6.844  0.00  0.00    +0.000 A 
ATOM     22  C   UNL     1      46.003   3.886   7.697  0.00  0.00    +0.000 A 
BRANCH  20  23
ATOM     23  O   UNL     1      47.867   1.221   6.080  0.00  0.00    +0.000 OA
BRANCH  23  24
ATOM     24  C   UNL     1      47.829   1.702   4.735  0.00  0.00    +0.000 C 
BRANCH  24  25
ATOM     25  C   UNL     1      46.619   1.082   4.039  0.00  0.00    +0.000 C 
BRANCH  25  26
ATOM     26  C   UNL     1      46.932  -0.282   3.438  0.00  0.00    +0.000 C 
BRANCH  26  27
ATOM     27  O   UNL     1      46.700  -0.249   2.035  0.00  0.00    +0.000 OA
ATOM     28  H   UNL     1      45.792   0.074   1.902  0.00  0.00    +0.000 HD
ENDBRANCH  26  27
ENDBRANCH  25  26
ENDBRANCH  24  25
ENDBRANCH  23  24
ENDBRANCH  20  23
ENDBRANCH  16  17
ENDBRANCH   3  16
TORSDOF 8
ENDMDL
MODEL 3
REMARK VINA RESULT:    -7.029      1.523      2.650
REMARK INTER + INTRA:         -10.851
REMARK INTER:                 -10.532
REMARK INTRA:                  -0.320
REMARK UNBOUND:                -0.740
REMARK  Name = 
REMARK  9 active torsions:
REMARK  status: ('A' for Active; 'I' for Inactive)
REMARK    1  A    between atoms: C_1  and  N_2
REMARK    2  A    between atoms: C_4  and  C_5
REMARK    3  A    between atoms: N_7  and  C_8
REMARK    4  A    between atoms: C_8  and  C_9
REMARK    5  A    between atoms: C_12  and  O_13
REMARK    6  A    between atoms: O_13  and  C_14
REMARK    7  A    between atoms: C_14  and  C_15
REMARK    8  A    between atoms: C_15  and  C_16
REMARK    9  A    between atoms: C_16  and  O_17
REMARK                            x       y       z     vdW  Elec       q    Type
REMARK                         _______ _______ _______ _____ _____    ______ ____
ROOT
ATOM      1  C   UNL     1      45.984   4.314  13.561  0.00  0.00    +0.000 C 
ATOM      2  O   UNL     1      46.072   3.136  13.232  0.00  0.00    +0.000 OA
ATOM      3  N   UNL     1      44.921   5.109  13.194  0.00  0.00    +0.000 N 
ATOM      4  H   UNL     1      44.938   6.093  13.414  0.00  0.00    +0.000 HD
ENDROOT
BRANCH   1   8
ATOM      5  C   UNL     1      48.997   5.291  17.421  0.00  0.00    +0.000 C 
ATOM      6  N   UNL     1      48.347   5.382  16.133  0.00  0.00    +0.000 N 
ATOM      7  C   UNL     1      47.296   4.611  15.710  0.00  0.00    +0.000 A 
ATOM      8  C   UNL     1      46.989   4.964  14.399  0.00  0.00    +0.000 A 
ATOM      9  C   UNL     1      47.892   6.029  14.039  0.00  0.00    +0.000 A 
ATOM     10  C   UNL     1      48.161   6.868  12.960  0.00  0.00    +0.000 A 
ATOM     11 CL   UNL     1      47.203   6.844  11.561  0.00  0.00    +0.000 Cl
ATOM     12  N   UNL     1      49.134   7.795  12.995  0.00  0.00    +0.000 NA
ATOM     13  C   UNL     1      49.852   7.877  14.121  0.00  0.00    +0.000 A 
ATOM     14  N   UNL     1      49.711   7.148  15.239  0.00  0.00    +0.000 NA
ATOM     15  C   UNL     1      48.716   6.248  15.140  0.00  0.00    +0.000 A 
ENDBRANCH   1   8
BRANCH   3  16
ATOM     16  C   UNL     1      43.887   4.613  12.314  0.00  0.00    +0.000 C 
BRANCH  16  17
ATOM     17  C   UNL     1      44.419   4.258  10.948  0.00  0.00    +0.000 A 
ATOM     18  C   UNL     1      45.123   5.205  10.190  0.00  0.00    +0.000 A 
ATOM     19  C   UNL     1      45.643   4.879   8.931  0.00  0.00    +0.000 A 
ATOM     20  C   UNL     1      45.455   3.601   8.410  0.00  0.00    +0.000 A 
ATOM     21  C   UNL     1      44.729   2.662   9.144  0.00  0.00    +0.000 A 
ATOM     22  C   UNL     1      44.218   2.983  10.405  0.00  0.00    +0.000 A 
BRANCH  20  23
ATOM     23  O   UNL     1      45.878   3.179   7.180  0.00  0.00    +0.000 OA
BRANCH  23  24
ATOM     24  C   UNL     1      47.293   3.092   6.997  0.00  0.00    +0.000 C 
BRANCH  24  25
ATOM     25  C   UNL     1      47.681   1.616   6.958  0.00  0.00    +0.000 C 
BRANCH  25  26
ATOM     26  C   UNL     1      47.448   0.990   5.590  0.00  0.00    +0.000 C 
BRANCH  26  27
ATOM     27  O   UNL     1      48.190   1.703   4.608  0.00  0.00    +0.000 OA
ATOM     28  H   UNL     1      47.550   2.077   3.978  0.00  0.00    +0.000 HD
ENDBRANCH  26  27
ENDBRANCH  25  26
ENDBRANCH  24  25
ENDBRANCH  23  24
ENDBRANCH  20  23
ENDBRANCH  16  17
ENDBRANCH   3  16
TORSDOF 8
ENDMDL
MODEL 4
REMARK VINA RESULT:    -6.678      1.871      2.931
REMARK INTER + INTRA:         -10.346
REMARK INTER:                  -9.314
REMARK INTRA:                  -1.032
REMARK UNBOUND:                -0.740
REMARK  Name = 
REMARK  9 active torsions:
REMARK  status: ('A' for Active; 'I' for Inactive)
REMARK    1  A    between atoms: C_1  and  N_2
REMARK    2  A    between atoms: C_4  and  C_5
REMARK    3  A    between atoms: N_7  and  C_8
REMARK    4  A    between atoms: C_8  and  C_9
REMARK    5  A    between atoms: C_12  and  O_13
REMARK    6  A    between atoms: O_13  and  C_14
REMARK    7  A    between atoms: C_14  and  C_15
REMARK    8  A    between atoms: C_15  and  C_16
REMARK    9  A    between atoms: C_16  and  O_17
REMARK                            x       y       z     vdW  Elec       q    Type
REMARK                         _______ _______ _______ _____ _____    ______ ____
ROOT
ATOM      1  C   UNL     1      48.441   6.796  14.385  0.00  0.00    +0.000 C 
ATOM      2  O   UNL     1      49.136   6.480  13.426  0.00  0.00    +0.000 OA
ATOM      3  N   UNL     1      47.225   7.428  14.245  0.00  0.00    +0.000 N 
ATOM      4  H   UNL     1      46.734   7.745  15.066  0.00  0.00    +0.000 HD
ENDROOT
BRANCH   1   8
ATOM      5  C   UNL     1      50.300   7.340  18.988  0.00  0.00    +0.000 C 
ATOM      6  N   UNL     1      49.658   6.762  17.829  0.00  0.00    +0.000 N 
ATOM      7  C   UNL     1      49.567   7.342  16.590  0.00  0.00    +0.000 A 
ATOM      8  C   UNL     1      48.833   6.498  15.761  0.00  0.00    +0.000 A 
ATOM      9  C   UNL     1      48.500   5.337  16.548  0.00  0.00    +0.000 A 
ATOM     10  C   UNL     1      47.842   4.118  16.407  0.00  0.00    +0.000 A 
ATOM     11 CL   UNL     1      47.225   3.614  14.911  0.00  0.00    +0.000 Cl
ATOM     12  N   UNL     1      47.729   3.240  17.420  0.00  0.00    +0.000 NA
ATOM     13  C   UNL     1      48.275   3.592  18.589  0.00  0.00    +0.000 A 
ATOM     14  N   UNL     1      48.942   4.720  18.877  0.00  0.00    +0.000 NA
ATOM     15  C   UNL     1      49.026   5.548  17.821  0.00  0.00    +0.000 A 
ENDBRANCH   1   8
BRANCH   3  16
ATOM     16  C   UNL     1      46.744   7.839  12.946  0.00  0.00    +0.000 C 
BRANCH  16  17
ATOM     17  C   UNL     1      45.997   6.736  12.236  0.00  0.00    +0.000 A 
ATOM     18  C   UNL     1      45.017   5.993  12.909  0.00  0.00    +0.000 A 
ATOM     19  C   UNL     1      44.301   4.983  12.254  0.00  0.00    +0.000 A 
ATOM     20  C   UNL     1      44.565   4.699  10.916  0.00  0.00    +0.000 A 
ATOM     21  C   UNL     1      45.562   5.413  10.247  0.00  0.00    +0.000 A 
ATOM     22  C   UNL     1      46.270   6.427  10.898  0.00  0.00    +0.000 A 
BRANCH  20  23
ATOM     23  O   UNL     1      43.963   3.713  10.184  0.00  0.00    +0.000 OA
BRANCH  23  24
ATOM     24  C   UNL     1      44.578   3.392   8.935  0.00  0.00    +0.000 C 
BRANCH  24  25
ATOM     25  C   UNL     1      45.047   1.940   8.991  0.00  0.00    +0.000 C 
BRANCH  25  26
ATOM     26  C   UNL     1      46.217   1.671   8.054  0.00  0.00    +0.000 C 
BRANCH  26  27
ATOM     27  O   UNL     1      46.503   0.278   8.038  0.00  0.00    +0.000 OA
ATOM     28  H   UNL     1      45.769  -0.161   7.574  0.00  0.00    +0.000 HD
ENDBRANCH  26  27
ENDBRANCH  25  26
ENDBRANCH  24  25
ENDBRANCH  23  24
ENDBRANCH  20  23
ENDBRANCH  16  17
ENDBRANCH   3  16
TORSDOF 8
ENDMDL
MODEL 5
REMARK VINA RESULT:    -6.573      1.725      2.297
REMARK INTER + INTRA:         -10.194
REMARK INTER:                  -9.401
REMARK INTRA:                  -0.793
REMARK UNBOUND:                -0.740
REMARK  Name = 
REMARK  9 active torsions:
REMARK  status: ('A' for Active; 'I' for Inactive)
REMARK    1  A    between atoms: C_1  and  N_2
REMARK    2  A    between atoms: C_4  and  C_5
REMARK    3  A    between atoms: N_7  and  C_8
REMARK    4  A    between atoms: C_8  and  C_9
REMARK    5  A    between atoms: C_12  and  O_13
REMARK    6  A    between atoms: O_13  and  C_14
REMARK    7  A    between atoms: C_14  and  C_15
REMARK    8  A    between atoms: C_15  and  C_16
REMARK    9  A    between atoms: C_16  and  O_17
REMARK                            x       y       z     vdW  Elec       q    Type
REMARK                         _______ _______ _______ _____ _____    ______ ____
ROOT
ATOM      1  C   UNL     1      47.527   7.088  13.398  0.00  0.00    +0.000 C 
ATOM      2  O   UNL     1      48.232   7.487  12.477  0.00  0.00    +0.000 OA
ATOM      3  N   UNL     1      46.159   6.979  13.290  0.00  0.00    +0.000 N 
ATOM      4  H   UNL     1      45.616   6.731  14.102  0.00  0.00    +0.000 HD
ENDROOT
BRANCH   1   8
ATOM      5  C   UNL     1      49.808   7.245  17.837  0.00  0.00    +0.000 C 
ATOM      6  N   UNL     1      49.100   6.753  16.677  0.00  0.00    +0.000 N 
ATOM      7  C   UNL     1      48.828   7.468  15.540  0.00  0.00    +0.000 A 
ATOM      8  C   UNL     1      48.087   6.664  14.679  0.00  0.00    +0.000 A 
ATOM      9  C   UNL     1      47.942   5.388  15.333  0.00  0.00    +0.000 A 
ATOM     10  C   UNL     1      47.381   4.135  15.094  0.00  0.00    +0.000 A 
ATOM     11 CL   UNL     1      46.655   3.760  13.609  0.00  0.00    +0.000 Cl
ATOM     12  N   UNL     1      47.453   3.133  15.988  0.00  0.00    +0.000 NA
ATOM     13  C   UNL     1      48.087   3.391  17.137  0.00  0.00    +0.000 A 
ATOM     14  N   UNL     1      48.680   4.536  17.508  0.00  0.00    +0.000 NA
ATOM     15  C   UNL     1      48.579   5.492  16.567  0.00  0.00    +0.000 A 
ENDBRANCH   1   8
BRANCH   3  16
ATOM     16  C   UNL     1      45.466   7.423  12.101  0.00  0.00    +0.000 C 
BRANCH  16  17
ATOM     17  C   UNL     1      45.233   6.300  11.121  0.00  0.00    +0.000 A 
ATOM     18  C   UNL     1      44.128   5.448  11.264  0.00  0.00    +0.000 A 
ATOM     19  C   UNL     1      43.888   4.419  10.346  0.00  0.00    +0.000 A 
ATOM     20  C   UNL     1      44.759   4.222   9.277  0.00  0.00    +0.000 A 
ATOM     21  C   UNL     1      45.879   5.046   9.145  0.00  0.00    +0.000 A 
ATOM     22  C   UNL     1      46.113   6.080  10.055  0.00  0.00    +0.000 A 
BRANCH  20  23
ATOM     23  O   UNL     1      44.652   3.229   8.343  0.00  0.00    +0.000 OA
BRANCH  23  24
ATOM     24  C   UNL     1      45.763   2.336   8.245  0.00  0.00    +0.000 C 
BRANCH  24  25
ATOM     25  C   UNL     1      46.494   2.622   6.936  0.00  0.00    +0.000 C 
BRANCH  25  26
ATOM     26  C   UNL     1      47.901   2.039   6.917  0.00  0.00    +0.000 C 
BRANCH  26  27
ATOM     27  O   UNL     1      48.562   2.430   5.720  0.00  0.00    +0.000 OA
ATOM     28  H   UNL     1      47.893   2.445   5.014  0.00  0.00    +0.000 HD
ENDBRANCH  26  27
ENDBRANCH  25  26
ENDBRANCH  24  25
ENDBRANCH  23  24
ENDBRANCH  20  23
ENDBRANCH  16  17
ENDBRANCH   3  16
TORSDOF 8
ENDMDL
MODEL 6
REMARK VINA RESULT:    -6.307      4.084      8.055
REMARK INTER + INTRA:          -9.812
REMARK INTER:                  -9.052
REMARK INTRA:                  -0.760
REMARK UNBOUND:                -0.740
REMARK  Name = 
REMARK  9 active torsions:
REMARK  status: ('A' for Active; 'I' for Inactive)
REMARK    1  A    between atoms: C_1  and  N_2
REMARK    2  A    between atoms: C_4  and  C_5
REMARK    3  A    between atoms: N_7  and  C_8
REMARK    4  A    between atoms: C_8  and  C_9
REMARK    5  A    between atoms: C_12  and  O_13
REMARK    6  A    between atoms: O_13  and  C_14
REMARK    7  A    between atoms: C_14  and  C_15
REMARK    8  A    between atoms: C_15  and  C_16
REMARK    9  A    between atoms: C_16  and  O_17
REMARK                            x       y       z     vdW  Elec       q    Type
REMARK                         _______ _______ _______ _____ _____    ______ ____
ROOT
ATOM      1  C   UNL     1      47.043   4.420  14.443  0.00  0.00    +0.000 C 
ATOM      2  O   UNL     1      47.176   3.323  13.910  0.00  0.00    +0.000 OA
ATOM      3  N   UNL     1      47.177   4.605  15.801  0.00  0.00    +0.000 N 
ATOM      4  H   UNL     1      46.971   5.508  16.201  0.00  0.00    +0.000 HD
ENDROOT
BRANCH   1   8
ATOM      5  C   UNL     1      47.658   8.840  12.203  0.00  0.00    +0.000 C 
ATOM      6  N   UNL     1      47.057   7.607  12.660  0.00  0.00    +0.000 N 
ATOM      7  C   UNL     1      47.629   6.707  13.521  0.00  0.00    +0.000 A 
ATOM      8  C   UNL     1      46.762   5.629  13.673  0.00  0.00    +0.000 A 
ATOM      9  C   UNL     1      45.595   5.926  12.879  0.00  0.00    +0.000 A 
ATOM     10  C   UNL     1      44.357   5.368  12.570  0.00  0.00    +0.000 A 
ATOM     11 CL   UNL     1      43.829   3.929  13.295  0.00  0.00    +0.000 Cl
ATOM     12  N   UNL     1      43.481   5.972  11.749  0.00  0.00    +0.000 NA
ATOM     13  C   UNL     1      43.853   7.146  11.225  0.00  0.00    +0.000 A 
ATOM     14  N   UNL     1      45.000   7.810  11.431  0.00  0.00    +0.000 NA
ATOM     15  C   UNL     1      45.826   7.156  12.267  0.00  0.00    +0.000 A 
ENDBRANCH   1   8
BRANCH   3  16
ATOM     16  C   UNL     1      47.392   3.486  16.689  0.00  0.00    +0.000 C 
BRANCH  16  17
ATOM     17  C   UNL     1      48.850   3.297  17.030  0.00  0.00    +0.000 A 
ATOM     18  C   UNL     1      49.631   4.386  17.443  0.00  0.00    +0.000 A 
ATOM     19  C   UNL     1      50.979   4.218  17.785  0.00  0.00    +0.000 A 
ATOM     20  C   UNL     1      51.565   2.956  17.708  0.00  0.00    +0.000 A 
ATOM     21  C   UNL     1      50.803   1.873  17.266  0.00  0.00    +0.000 A 
ATOM     22  C   UNL     1      49.455   2.038  16.935  0.00  0.00    +0.000 A 
BRANCH  20  23
ATOM     23  O   UNL     1      52.876   2.676  17.975  0.00  0.00    +0.000 OA
BRANCH  23  24
ATOM     24  C   UNL     1      53.279   1.318  17.793  0.00  0.00    +0.000 C 
BRANCH  24  25
ATOM     25  C   UNL     1      54.582   1.307  16.997  0.00  0.00    +0.000 C 
BRANCH  25  26
ATOM     26  C   UNL     1      54.989  -0.098  16.571  0.00  0.00    +0.000 C 
BRANCH  26  27
ATOM     27  O   UNL     1      53.899  -0.730  15.911  0.00  0.00    +0.000 OA
ATOM     28  H   UNL     1      54.078  -0.691  14.956  0.00  0.00    +0.000 HD
ENDBRANCH  26  27
ENDBRANCH  25  26
ENDBRANCH  24  25
ENDBRANCH  23  24
ENDBRANCH  20  23
ENDBRANCH  16  17
ENDBRANCH   3  16
TORSDOF 8
ENDMDL
MODEL 7
REMARK VINA RESULT:    -6.194      2.640      4.450
REMARK INTER + INTRA:          -9.650
REMARK INTER:                  -8.680
REMARK INTRA:                  -0.970
REMARK UNBOUND:                -0.740
REMARK  Name = 
REMARK  9 active torsions:
REMARK  status: ('A' for Active; 'I' for Inactive)
REMARK    1  A    between atoms: C_1  and  N_2
REMARK    2  A    between atoms: C_4  and  C_5
REMARK    3  A    between atoms: N_7  and  C_8
REMARK    4  A    between atoms: C_8  and  C_9
REMARK    5  A    between atoms: C_12  and  O_13
REMARK    6  A    between atoms: O_13  and  C_14
REMARK    7  A    between atoms: C_14  and  C_15
REMARK    8  A    between atoms: C_15  and  C_16
REMARK    9  A    between atoms: C_16  and  O_17
REMARK                            x       y       z     vdW  Elec       q    Type
REMARK                         _______ _______ _______ _____ _____    ______ ____
ROOT
ATOM      1  C   UNL     1      49.141   6.434  16.255  0.00  0.00    +0.000 C 
ATOM      2  O   UNL     1      50.313   6.424  15.895  0.00  0.00    +0.000 OA
ATOM      3  N   UNL     1      48.095   6.560  15.368  0.00  0.00    +0.000 N 
ATOM      4  H   UNL     1      47.154   6.652  15.721  0.00  0.00    +0.000 HD
ENDROOT
BRANCH   1   8
ATOM      5  C   UNL     1      48.528   4.438  20.790  0.00  0.00    +0.000 C 
ATOM      6  N   UNL     1      48.501   5.377  19.691  0.00  0.00    +0.000 N 
ATOM      7  C   UNL     1      48.876   5.110  18.400  0.00  0.00    +0.000 A 
ATOM      8  C   UNL     1      48.756   6.280  17.655  0.00  0.00    +0.000 A 
ATOM      9  C   UNL     1      48.249   7.288  18.554  0.00  0.00    +0.000 A 
ATOM     10  C   UNL     1      47.866   8.627  18.532  0.00  0.00    +0.000 A 
ATOM     11 CL   UNL     1      47.847   9.518  17.091  0.00  0.00    +0.000 Cl
ATOM     12  N   UNL     1      47.414   9.263  19.627  0.00  0.00    +0.000 NA
ATOM     13  C   UNL     1      47.354   8.552  20.759  0.00  0.00    +0.000 A 
ATOM     14  N   UNL     1      47.679   7.262  20.936  0.00  0.00    +0.000 NA
ATOM     15  C   UNL     1      48.113   6.684  19.802  0.00  0.00    +0.000 A 
ENDBRANCH   1   8
BRANCH   3  16
ATOM     16  C   UNL     1      48.333   6.783  13.960  0.00  0.00    +0.000 C 
BRANCH  16  17
ATOM     17  C   UNL     1      47.258   6.174  13.094  0.00  0.00    +0.000 A 
ATOM     18  C   UNL     1      46.968   6.716  11.833  0.00  0.00    +0.000 A 
ATOM     19  C   UNL     1      45.990   6.144  11.010  0.00  0.00    +0.000 A 
ATOM     20  C   UNL     1      45.281   5.025  11.445  0.00  0.00    +0.000 A 
ATOM     21  C   UNL     1      45.542   4.499  12.711  0.00  0.00    +0.000 A 
ATOM     22  C   UNL     1      46.525   5.063  13.529  0.00  0.00    +0.000 A 
BRANCH  20  23
ATOM     23  O   UNL     1      44.279   4.407  10.751  0.00  0.00    +0.000 OA
BRANCH  23  24
ATOM     24  C   UNL     1      44.360   2.983  10.664  0.00  0.00    +0.000 C 
BRANCH  24  25
ATOM     25  C   UNL     1      45.054   2.621   9.354  0.00  0.00    +0.000 C 
BRANCH  25  26
ATOM     26  C   UNL     1      44.672   3.559   8.216  0.00  0.00    +0.000 C 
BRANCH  26  27
ATOM     27  O   UNL     1      45.709   4.512   8.016  0.00  0.00    +0.000 OA
ATOM     28  H   UNL     1      46.554   4.051   8.155  0.00  0.00    +0.000 HD
ENDBRANCH  26  27
ENDBRANCH  25  26
ENDBRANCH  24  25
ENDBRANCH  23  24
ENDBRANCH  20  23
ENDBRANCH  16  17
ENDBRANCH   3  16
TORSDOF 8
ENDMDL
MODEL 8
REMARK VINA RESULT:    -6.031      4.107      8.671
REMARK INTER + INTRA:          -9.415
REMARK INTER:                  -8.265
REMARK INTRA:                  -1.149
REMARK UNBOUND:                -0.740
REMARK  Name = 
REMARK  9 active torsions:
REMARK  status: ('A' for Active; 'I' for Inactive)
REMARK    1  A    between atoms: C_1  and  N_2
REMARK    2  A    between atoms: C_4  and  C_5
REMARK    3  A    between atoms: N_7  and  C_8
REMARK    4  A    between atoms: C_8  and  C_9
REMARK    5  A    between atoms: C_12  and  O_13
REMARK    6  A    between atoms: O_13  and  C_14
REMARK    7  A    between atoms: C_14  and  C_15
REMARK    8  A    between atoms: C_15  and  C_16
REMARK    9  A    between atoms: C_16  and  O_17
REMARK                            x       y       z     vdW  Elec       q    Type
REMARK                         _______ _______ _______ _____ _____    ______ ____
ROOT
ATOM      1  C   UNL     1      46.737   4.030  14.526  0.00  0.00    +0.000 C 
ATOM      2  O   UNL     1      47.436   3.126  14.080  0.00  0.00    +0.000 OA
ATOM      3  N   UNL     1      46.646   4.300  15.873  0.00  0.00    +0.000 N 
ATOM      4  H   UNL     1      45.990   4.996  16.196  0.00  0.00    +0.000 HD
ENDROOT
BRANCH   1   8
ATOM      5  C   UNL     1      43.004   5.852  11.756  0.00  0.00    +0.000 C 
ATOM      6  N   UNL     1      44.277   5.730  12.430  0.00  0.00    +0.000 N 
ATOM      7  C   UNL     1      44.723   4.625  13.107  0.00  0.00    +0.000 A 
ATOM      8  C   UNL     1      45.967   4.917  13.658  0.00  0.00    +0.000 A 
ATOM      9  C   UNL     1      46.287   6.264  13.255  0.00  0.00    +0.000 A 
ATOM     10  C   UNL     1      47.320   7.190  13.387  0.00  0.00    +0.000 A 
ATOM     11 CL   UNL     1      48.770   6.791  14.169  0.00  0.00    +0.000 Cl
ATOM     12  N   UNL     1      47.262   8.415  12.837  0.00  0.00    +0.000 NA
ATOM     13  C   UNL     1      46.153   8.720  12.153  0.00  0.00    +0.000 A 
ATOM     14  N   UNL     1      45.084   7.940  11.934  0.00  0.00    +0.000 NA
ATOM     15  C   UNL     1      45.211   6.727  12.502  0.00  0.00    +0.000 A 
ENDBRANCH   1   8
BRANCH   3  16
ATOM     16  C   UNL     1      47.305   3.463  16.849  0.00  0.00    +0.000 C 
BRANCH  16  17
ATOM     17  C   UNL     1      48.723   3.902  17.117  0.00  0.00    +0.000 A 
ATOM     18  C   UNL     1      49.734   2.953  17.326  0.00  0.00    +0.000 A 
ATOM     19  C   UNL     1      51.059   3.349  17.552  0.00  0.00    +0.000 A 
ATOM     20  C   UNL     1      51.386   4.703  17.579  0.00  0.00    +0.000 A 
ATOM     21  C   UNL     1      50.379   5.655  17.404  0.00  0.00    +0.000 A 
ATOM     22  C   UNL     1      49.059   5.260  17.169  0.00  0.00    +0.000 A 
BRANCH  20  23
ATOM     23  O   UNL     1      52.630   5.210  17.830  0.00  0.00    +0.000 OA
BRANCH  23  24
ATOM     24  C   UNL     1      52.774   5.956  19.040  0.00  0.00    +0.000 C 
BRANCH  24  25
ATOM     25  C   UNL     1      53.875   5.306  19.875  0.00  0.00    +0.000 C 
BRANCH  25  26
ATOM     26  C   UNL     1      53.368   4.112  20.673  0.00  0.00    +0.000 C 
BRANCH  26  27
ATOM     27  O   UNL     1      51.967   4.238  20.881  0.00  0.00    +0.000 OA
ATOM     28  H   UNL     1      51.785   3.962  21.796  0.00  0.00    +0.000 HD
ENDBRANCH  26  27
ENDBRANCH  25  26
ENDBRANCH  24  25
ENDBRANCH  23  24
ENDBRANCH  20  23
ENDBRANCH  16  17
ENDBRANCH   3  16
TORSDOF 8
ENDMDL
MODEL 9
REMARK VINA RESULT:    -6.007      4.114      8.096
REMARK INTER + INTRA:          -9.380
REMARK INTER:                  -8.128
REMARK INTRA:                  -1.252
REMARK UNBOUND:                -0.740
REMARK  Name = 
REMARK  9 active torsions:
REMARK  status: ('A' for Active; 'I' for Inactive)
REMARK    1  A    between atoms: C_1  and  N_2
REMARK    2  A    between atoms: C_4  and  C_5
REMARK    3  A    between atoms: N_7  and  C_8
REMARK    4  A    between atoms: C_8  and  C_9
REMARK    5  A    between atoms: C_12  and  O_13
REMARK    6  A    between atoms: O_13  and  C_14
REMARK    7  A    between atoms: C_14  and  C_15
REMARK    8  A    between atoms: C_15  and  C_16
REMARK    9  A    between atoms: C_16  and  O_17
REMARK                            x       y       z     vdW  Elec       q    Type
REMARK                         _______ _______ _______ _____ _____    ______ ____
ROOT
ATOM      1  C   UNL     1      46.760   4.039  14.530  0.00  0.00    +0.000 C 
ATOM      2  O   UNL     1      47.468   3.141  14.087  0.00  0.00    +0.000 OA
ATOM      3  N   UNL     1      46.687   4.332  15.874  0.00  0.00    +0.000 N 
ATOM      4  H   UNL     1      46.023   5.020  16.195  0.00  0.00    +0.000 HD
ENDROOT
BRANCH   1   8
ATOM      5  C   UNL     1      42.940   5.740  11.800  0.00  0.00    +0.000 C 
ATOM      6  N   UNL     1      44.228   5.654  12.451  0.00  0.00    +0.000 N 
ATOM      7  C   UNL     1      44.707   4.570  13.140  0.00  0.00    +0.000 A 
ATOM      8  C   UNL     1      45.957   4.895  13.660  0.00  0.00    +0.000 A 
ATOM      9  C   UNL     1      46.245   6.239  13.225  0.00  0.00    +0.000 A 
ATOM     10  C   UNL     1      47.263   7.185  13.318  0.00  0.00    +0.000 A 
ATOM     11 CL   UNL     1      48.735   6.828  14.079  0.00  0.00    +0.000 Cl
ATOM     12  N   UNL     1      47.172   8.399  12.746  0.00  0.00    +0.000 NA
ATOM     13  C   UNL     1      46.045   8.670  12.079  0.00  0.00    +0.000 A 
ATOM     14  N   UNL     1      44.985   7.867  11.896  0.00  0.00    +0.000 NA
ATOM     15  C   UNL     1      45.145   6.668  12.485  0.00  0.00    +0.000 A 
ENDBRANCH   1   8
BRANCH   3  16
ATOM     16  C   UNL     1      47.380   3.525  16.852  0.00  0.00    +0.000 C 
BRANCH  16  17
ATOM     17  C   UNL     1      48.766   4.043  17.143  0.00  0.00    +0.000 A 
ATOM     18  C   UNL     1      49.010   5.422  17.219  0.00  0.00    +0.000 A 
ATOM     19  C   UNL     1      50.287   5.913  17.513  0.00  0.00    +0.000 A 
ATOM     20  C   UNL     1      51.342   5.028  17.727  0.00  0.00    +0.000 A 
ATOM     21  C   UNL     1      51.115   3.654  17.622  0.00  0.00    +0.000 A 
ATOM     22  C   UNL     1      49.838   3.163  17.338  0.00  0.00    +0.000 A 
BRANCH  20  23
ATOM     23  O   UNL     1      52.636   5.388  17.980  0.00  0.00    +0.000 OA
BRANCH  23  24
ATOM     24  C   UNL     1      52.979   6.746  17.697  0.00  0.00    +0.000 C 
BRANCH  24  25
ATOM     25  C   UNL     1      54.267   6.754  16.877  0.00  0.00    +0.000 C 
BRANCH  25  26
ATOM     26  C   UNL     1      54.002   6.879  15.383  0.00  0.00    +0.000 C 
BRANCH  26  27
ATOM     27  O   UNL     1      52.612   7.086  15.161  0.00  0.00    +0.000 OA
ATOM     28  H   UNL     1      52.167   6.998  16.022  0.00  0.00    +0.000 HD
ENDBRANCH  26  27
ENDBRANCH  25  26
ENDBRANCH  24  25
ENDBRANCH  23  24
ENDBRANCH  20  23
ENDBRANCH  16  17
ENDBRANCH   3  16
TORSDOF 8
ENDMDL
