MODEL 1
REMARK VINA RESULT:    -6.788      0.000      0.000
REMARK INTER + INTRA:          -9.732
REMARK INTER:                  -9.169
REMARK INTRA:                  -0.563
REMARK UNBOUND:                -0.563
REMARK  Name = 
REMARK  7 active torsions:
REMARK  status: ('A' for Active; 'I' for Inactive)
REMARK    1  A    between atoms: N_1  and  C_2
REMARK    2  A    between atoms: C_2  and  C_3
REMARK    3  A    between atoms: C_7  and  C_8
REMARK    4  A    between atoms: C_8  and  O_9
REMARK    5  A    between atoms: O_9  and  C_10
REMARK    6  A    between atoms: C_14  and  C_15
REMARK    7  A    between atoms: C_15  and  O_16
REMARK                            x       y       z     vdW  Elec       q    Type
REMARK                         _______ _______ _______ _____ _____    ______ ____
ROOT
ATOM      1  C   UNL     1      44.233   4.441  10.327  0.00  0.00    +0.000 C 
ENDROOT
BRANCH   1   6
ATOM      2  C   UNL     1      46.466   5.245  13.337  0.00  0.00    +0.000 A 
ATOM      3  C   UNL     1      46.917   6.525  12.986  0.00  0.00    +0.000 A 
ATOM      4  C   UNL     1      46.471   7.144  11.816  0.00  0.00    +0.000 A 
ATOM      5  C   UNL     1      45.587   6.481  10.966  0.00  0.00    +0.000 A 
ATOM      6  C   UNL     1      45.141   5.191  11.274  0.00  0.00    +0.000 A 
ATOM      7  C   UNL     1      45.583   4.586  12.464  0.00  0.00    +0.000 A 
BRANCH   2   8
ATOM      8  C   UNL     1      46.971   4.524  14.562  0.00  0.00    +0.000 C 
BRANCH   8   9
ATOM      9  N   UNL     1      47.359   3.137  14.308  0.00  0.00    +0.000 NA
ATOM     10  H   UNL     1      46.534   2.545  14.384  0.00  0.00    +0.000 HD
ATOM     11  H   UNL     1      47.995   2.840  15.045  0.00  0.00    +0.000 HD
ENDBRANCH   8   9
ENDBRANCH   2   8
ENDBRANCH   1   6
BRANCH   1  12
ATOM     12  O   UNL     1      44.777   4.515   9.012  0.00  0.00    +0.000 OA
BRANCH  12  13
ATOM     13  C   UNL     1      45.371   3.386   8.517  0.00  0.00    +0.000 A 
ATOM     14  C   UNL     1      45.283   2.102   9.051  0.00  0.00    +0.000 A 
ATOM     15  C   UNL     1      45.937   1.038   8.422  0.00  0.00    +0.000 A 
ATOM     16  C   UNL     1      46.678   1.253   7.259  0.00  0.00    +0.000 A 
ATOM     17  C   UNL     1      46.788   2.538   6.715  0.00  0.00    +0.000 A 
ATOM     18  C   UNL     1      46.123   3.596   7.357  0.00  0.00    +0.000 A 
BRANCH  17  19
ATOM     19  C   UNL     1      47.515   2.797   5.422  0.00  0.00    +0.000 C 
BRANCH  19  20
ATOM     20  O   UNL     1      48.467   1.784   5.129  0.00  0.00    +0.000 OA
ATOM     21  H   UNL     1      49.100   1.782   5.869  0.00  0.00    +0.000 HD
ENDBRANCH  19  20
ENDBRANCH  17  19
ENDBRANCH  12  13
ENDBRANCH   1  12
TORSDOF 7
ENDMDL
MODEL 2
REMARK VINA RESULT:    -6.775      2.826      6.447
REMARK INTER + INTRA:          -9.715
REMARK INTER:                  -9.039
REMARK INTRA:                  -0.675
REMARK UNBOUND:                -0.563
REMARK  Name = 
REMARK  7 active torsions:
REMARK  status: ('A' for Active; 'I' for Inactive)
REMARK    1  A    between atoms: N_1  and  C_2
REMARK    2  A    between atoms: C_2  and  C_3
REMARK    3  A    between atoms: C_7  and  C_8
REMARK    4  A    between atoms: C_8  and  O_9
REMARK    5  A    between atoms: O_9  and  C_10
REMARK    6  A    between atoms: C_14  and  C_15
REMARK    7  A    between atoms: C_15  and  O_16
REMARK                            x       y       z     vdW  Elec       q    Type
REMARK                         _______ _______ _______ _____ _____    ______ ____
ROOT
ATOM      1  C   UNL     1      44.169   4.503   9.163  0.00  0.00    +0.000 C 
ENDROOT
BRANCH   1   6
ATOM      2  C   UNL     1      46.850   2.568   7.227  0.00  0.00    +0.000 A 
ATOM      3  C   UNL     1      46.606   1.265   7.684  0.00  0.00    +0.000 A 
ATOM      4  C   UNL     1      45.559   1.004   8.569  0.00  0.00    +0.000 A 
ATOM      5  C   UNL     1      44.756   2.045   9.033  0.00  0.00    +0.000 A 
ATOM      6  C   UNL     1      44.993   3.360   8.618  0.00  0.00    +0.000 A 
ATOM      7  C   UNL     1      46.039   3.608   7.712  0.00  0.00    +0.000 A 
BRANCH   2   8
ATOM      8  C   UNL     1      48.008   2.895   6.315  0.00  0.00    +0.000 C 
BRANCH   8   9
ATOM      9  N   UNL     1      48.455   1.762   5.507  0.00  0.00    +0.000 NA
ATOM     10  H   UNL     1      48.558   2.066   4.541  0.00  0.00    +0.000 HD
ATOM     11  H   UNL     1      47.722   1.055   5.509  0.00  0.00    +0.000 HD
ENDBRANCH   8   9
ENDBRANCH   2   8
ENDBRANCH   1   6
BRANCH   1  12
ATOM     12  O   UNL     1      44.150   4.419  10.586  0.00  0.00    +0.000 OA
BRANCH  12  13
ATOM     13  C   UNL     1      45.180   5.017  11.261  0.00  0.00    +0.000 A 
ATOM     14  C   UNL     1      45.906   6.132  10.845  0.00  0.00    +0.000 A 
ATOM     15  C   UNL     1      46.927   6.641  11.654  0.00  0.00    +0.000 A 
ATOM     16  C   UNL     1      47.223   6.041  12.878  0.00  0.00    +0.000 A 
ATOM     17  C   UNL     1      46.513   4.912  13.306  0.00  0.00    +0.000 A 
ATOM     18  C   UNL     1      45.489   4.414  12.484  0.00  0.00    +0.000 A 
BRANCH  17  19
ATOM     19  C   UNL     1      46.753   4.283  14.653  0.00  0.00    +0.000 C 
BRANCH  19  20
ATOM     20  O   UNL     1      47.516   3.088  14.559  0.00  0.00    +0.000 OA
ATOM     21  H   UNL     1      47.976   3.124  13.701  0.00  0.00    +0.000 HD
ENDBRANCH  19  20
ENDBRANCH  17  19
ENDBRANCH  12  13
ENDBRANCH   1  12
TORSDOF 7
ENDMDL
MODEL 3
REMARK VINA RESULT:    -6.534      3.004      6.308
REMARK INTER + INTRA:          -9.389
REMARK INTER:                  -9.017
REMARK INTRA:                  -0.372
REMARK UNBOUND:                -0.563
REMARK  Name = 
REMARK  7 active torsions:
REMARK  status: ('A' for Active; 'I' for Inactive)
REMARK    1  A    between atoms: N_1  and  C_2
REMARK    2  A    between atoms: C_2  and  C_3
REMARK    3  A    between atoms: C_7  and  C_8
REMARK    4  A    between atoms: C_8  and  O_9
REMARK    5  A    between atoms: O_9  and  C_10
REMARK    6  A    between atoms: C_14  and  C_15
REMARK    7  A    between atoms: C_15  and  O_16
REMARK                            x       y       z     vdW  Elec       q    Type
REMARK                         _______ _______ _______ _____ _____    ______ ____
ROOT
ATOM      1  C   UNL     1      44.220   2.525  10.183  0.00  0.00    +0.000 C 
ENDROOT
BRANCH   1   6
ATOM      2  C   UNL     1      46.794   2.097   7.376  0.00  0.00    +0.000 A 
ATOM      3  C   UNL     1      46.928   3.425   6.947  0.00  0.00    +0.000 A 
ATOM      4  C   UNL     1      46.235   4.455   7.585  0.00  0.00    +0.000 A 
ATOM      5  C   UNL     1      45.375   4.170   8.645  0.00  0.00    +0.000 A 
ATOM      6  C   UNL     1      45.197   2.851   9.077  0.00  0.00    +0.000 A 
ATOM      7  C   UNL     1      45.915   1.825   8.438  0.00  0.00    +0.000 A 
BRANCH   2   8
ATOM      8  C   UNL     1      47.483   0.953   6.673  0.00  0.00    +0.000 C 
BRANCH   8   9
ATOM      9  N   UNL     1      48.277   1.367   5.518  0.00  0.00    +0.000 NA
ATOM     10  H   UNL     1      48.080   2.346   5.317  0.00  0.00    +0.000 HD
ATOM     11  H   UNL     1      47.965   0.838   4.705  0.00  0.00    +0.000 HD
ENDBRANCH   8   9
ENDBRANCH   2   8
ENDBRANCH   1   6
BRANCH   1  12
ATOM     12  O   UNL     1      43.925   3.720  10.904  0.00  0.00    +0.000 OA
BRANCH  12  13
ATOM     13  C   UNL     1      44.838   4.125  11.840  0.00  0.00    +0.000 A 
ATOM     14  C   UNL     1      45.635   3.300  12.631  0.00  0.00    +0.000 A 
ATOM     15  C   UNL     1      46.537   3.864  13.538  0.00  0.00    +0.000 A 
ATOM     16  C   UNL     1      46.647   5.250  13.656  0.00  0.00    +0.000 A 
ATOM     17  C   UNL     1      45.845   6.095  12.879  0.00  0.00    +0.000 A 
ATOM     18  C   UNL     1      44.945   5.513  11.970  0.00  0.00    +0.000 A 
BRANCH  17  19
ATOM     19  C   UNL     1      45.987   7.593  12.924  0.00  0.00    +0.000 C 
BRANCH  19  20
ATOM     20  O   UNL     1      44.761   8.257  12.652  0.00  0.00    +0.000 OA
ATOM     21  H   UNL     1      44.988   9.187  12.473  0.00  0.00    +0.000 HD
ENDBRANCH  19  20
ENDBRANCH  17  19
ENDBRANCH  12  13
ENDBRANCH   1  12
TORSDOF 7
ENDMDL
MODEL 4
REMARK VINA RESULT:    -6.165      2.775      6.373
REMARK INTER + INTRA:          -8.891
REMARK INTER:                  -8.382
REMARK INTRA:                  -0.508
REMARK UNBOUND:                -0.563
REMARK  Name = 
REMARK  7 active torsions:
REMARK  status: ('A' for Active; 'I' for Inactive)
REMARK    1  A    between atoms: N_1  and  C_2
REMARK    2  A    between atoms: C_2  and  C_3
REMARK    3  A    between atoms: C_7  and  C_8
REMARK    4  A    between atoms: C_8  and  O_9
REMARK    5  A    between atoms: O_9  and  C_10
REMARK    6  A    between atoms: C_14  and  C_15
REMARK    7  A    between atoms: C_15  and  O_16
REMARK                            x       y       z     vdW  Elec       q    Type
REMARK                         _______ _______ _______ _____ _____    ______ ____
ROOT
ATOM      1  C   UNL     1      44.036   2.990  10.192  0.00  0.00    +0.000 C 
ENDROOT
BRANCH   1   6
ATOM      2  C   UNL     1      46.679   1.856   7.658  0.00  0.00    +0.000 A 
ATOM      3  C   UNL     1      46.909   3.058   6.974  0.00  0.00    +0.000 A 
ATOM      4  C   UNL     1      46.256   4.232   7.353  0.00  0.00    +0.000 A 
ATOM      5  C   UNL     1      45.343   4.218   8.406  0.00  0.00    +0.000 A 
ATOM      6  C   UNL     1      45.070   3.028   9.091  0.00  0.00    +0.000 A 
ATOM      7  C   UNL     1      45.748   1.856   8.711  0.00  0.00    +0.000 A 
BRANCH   2   8
ATOM      8  C   UNL     1      47.323   0.557   7.239  0.00  0.00    +0.000 C 
BRANCH   8   9
ATOM      9  N   UNL     1      46.624  -0.629   7.732  0.00  0.00    +0.000 NA
ATOM     10  H   UNL     1      47.120  -0.990   8.544  0.00  0.00    +0.000 HD
ATOM     11  H   UNL     1      46.676  -1.353   7.018  0.00  0.00    +0.000 HD
ENDBRANCH   8   9
ENDBRANCH   2   8
ENDBRANCH   1   6
BRANCH   1  12
ATOM     12  O   UNL     1      44.692   3.164  11.446  0.00  0.00    +0.000 OA
BRANCH  12  13
ATOM     13  C   UNL     1      44.940   4.448  11.848  0.00  0.00    +0.000 A 
ATOM     14  C   UNL     1      44.195   5.578  11.518  0.00  0.00    +0.000 A 
ATOM     15  C   UNL     1      44.565   6.829  12.019  0.00  0.00    +0.000 A 
ATOM     16  C   UNL     1      45.677   6.955  12.853  0.00  0.00    +0.000 A 
ATOM     17  C   UNL     1      46.446   5.833  13.185  0.00  0.00    +0.000 A 
ATOM     18  C   UNL     1      46.059   4.582  12.675  0.00  0.00    +0.000 A 
BRANCH  17  19
ATOM     19  C   UNL     1      47.607   5.916  14.140  0.00  0.00    +0.000 C 
BRANCH  19  20
ATOM     20  O   UNL     1      47.349   5.234  15.360  0.00  0.00    +0.000 OA
ATOM     21  H   UNL     1      47.573   5.857  16.074  0.00  0.00    +0.000 HD
ENDBRANCH  19  20
ENDBRANCH  17  19
ENDBRANCH  12  13
ENDBRANCH   1  12
TORSDOF 7
ENDMDL
MODEL 5
REMARK VINA RESULT:    -6.051      2.793      6.558
REMARK INTER + INTRA:          -8.736
REMARK INTER:                  -8.232
REMARK INTRA:                  -0.504
REMARK UNBOUND:                -0.563
REMARK  Name = 
REMARK  7 active torsions:
REMARK  status: ('A' for Active; 'I' for Inactive)
REMARK    1  A    between atoms: N_1  and  C_2
REMARK    2  A    between atoms: C_2  and  C_3
REMARK    3  A    between atoms: C_7  and  C_8
REMARK    4  A    between atoms: C_8  and  O_9
REMARK    5  A    between atoms: O_9  and  C_10
REMARK    6  A    between atoms: C_14  and  C_15
REMARK    7  A    between atoms: C_15  and  O_16
REMARK                            x       y       z     vdW  Elec       q    Type
REMARK                         _______ _______ _______ _____ _____    ______ ____
ROOT
ATOM      1  C   UNL     1      44.787   5.291  10.650  0.00  0.00    +0.000 C 
ENDROOT
BRANCH   1   6
ATOM      2  C   UNL     1      46.081   3.312   7.634  0.00  0.00    +0.000 A 
ATOM      3  C   UNL     1      45.654   2.021   7.973  0.00  0.00    +0.000 A 
ATOM      4  C   UNL     1      44.917   1.795   9.136  0.00  0.00    +0.000 A 
ATOM      5  C   UNL     1      44.617   2.853   9.993  0.00  0.00    +0.000 A 
ATOM      6  C   UNL     1      45.053   4.149   9.697  0.00  0.00    +0.000 A 
ATOM      7  C   UNL     1      45.780   4.366   8.513  0.00  0.00    +0.000 A 
BRANCH   2   8
ATOM      8  C   UNL     1      46.929   3.584   6.415  0.00  0.00    +0.000 C 
BRANCH   8   9
ATOM      9  N   UNL     1      48.237   2.932   6.454  0.00  0.00    +0.000 NA
ATOM     10  H   UNL     1      48.845   3.371   5.765  0.00  0.00    +0.000 HD
ATOM     11  H   UNL     1      48.123   1.963   6.161  0.00  0.00    +0.000 HD
ENDBRANCH   8   9
ENDBRANCH   2   8
ENDBRANCH   1   6
BRANCH   1  12
ATOM     12  O   UNL     1      45.837   6.247  10.528  0.00  0.00    +0.000 OA
BRANCH  12  13
ATOM     13  C   UNL     1      46.609   6.472  11.635  0.00  0.00    +0.000 A 
ATOM     14  C   UNL     1      47.417   7.584  11.869  0.00  0.00    +0.000 A 
ATOM     15  C   UNL     1      48.141   7.682  13.062  0.00  0.00    +0.000 A 
ATOM     16  C   UNL     1      48.058   6.674  14.023  0.00  0.00    +0.000 A 
ATOM     17  C   UNL     1      47.261   5.544  13.800  0.00  0.00    +0.000 A 
ATOM     18  C   UNL     1      46.538   5.462  12.598  0.00  0.00    +0.000 A 
BRANCH  17  19
ATOM     19  C   UNL     1      47.087   4.473  14.844  0.00  0.00    +0.000 C 
BRANCH  19  20
ATOM     20  O   UNL     1      47.307   3.171  14.319  0.00  0.00    +0.000 OA
ATOM     21  H   UNL     1      46.438   2.731  14.307  0.00  0.00    +0.000 HD
ENDBRANCH  19  20
ENDBRANCH  17  19
ENDBRANCH  12  13
ENDBRANCH   1  12
TORSDOF 7
ENDMDL
MODEL 6
REMARK VINA RESULT:    -5.858      1.698      2.320
REMARK INTER + INTRA:          -8.476
REMARK INTER:                  -7.848
REMARK INTRA:                  -0.628
REMARK UNBOUND:                -0.563
REMARK  Name = 
REMARK  7 active torsions:
REMARK  status: ('A' for Active; 'I' for Inactive)
REMARK    1  A    between atoms: N_1  and  C_2
REMARK    2  A    between atoms: C_2  and  C_3
REMARK    3  A    between atoms: C_7  and  C_8
REMARK    4  A    between atoms: C_8  and  O_9
REMARK    5  A    between atoms: O_9  and  C_10
REMARK    6  A    between atoms: C_14  and  C_15
REMARK    7  A    between atoms: C_15  and  O_16
REMARK                            x       y       z     vdW  Elec       q    Type
REMARK                         _______ _______ _______ _____ _____    ______ ____
ROOT
ATOM      1  C   UNL     1      44.348   5.325  11.372  0.00  0.00    +0.000 C 
ENDROOT
BRANCH   1   6
ATOM      2  C   UNL     1      47.770   6.634  12.498  0.00  0.00    +0.000 A 
ATOM      3  C   UNL     1      47.926   5.938  13.705  0.00  0.00    +0.000 A 
ATOM      4  C   UNL     1      46.963   5.020  14.130  0.00  0.00    +0.000 A 
ATOM      5  C   UNL     1      45.815   4.804  13.368  0.00  0.00    +0.000 A 
ATOM      6  C   UNL     1      45.617   5.505  12.173  0.00  0.00    +0.000 A 
ATOM      7  C   UNL     1      46.603   6.413  11.747  0.00  0.00    +0.000 A 
BRANCH   2   8
ATOM      8  C   UNL     1      48.761   7.674  12.038  0.00  0.00    +0.000 C 
BRANCH   8   9
ATOM      9  N   UNL     1      50.154   7.312  12.299  0.00  0.00    +0.000 NA
ATOM     10  H   UNL     1      50.660   8.144  12.597  0.00  0.00    +0.000 HD
ATOM     11  H   UNL     1      50.579   7.016  11.422  0.00  0.00    +0.000 HD
ENDBRANCH   8   9
ENDBRANCH   2   8
ENDBRANCH   1   6
BRANCH   1  12
ATOM     12  O   UNL     1      44.673   5.340   9.984  0.00  0.00    +0.000 OA
BRANCH  12  13
ATOM     13  C   UNL     1      45.011   4.145   9.409  0.00  0.00    +0.000 A 
ATOM     14  C   UNL     1      44.611   2.879   9.833  0.00  0.00    +0.000 A 
ATOM     15  C   UNL     1      45.027   1.744   9.131  0.00  0.00    +0.000 A 
ATOM     16  C   UNL     1      45.839   1.870   8.004  0.00  0.00    +0.000 A 
ATOM     17  C   UNL     1      46.262   3.132   7.570  0.00  0.00    +0.000 A 
ATOM     18  C   UNL     1      45.833   4.263   8.285  0.00  0.00    +0.000 A 
BRANCH  17  19
ATOM     19  C   UNL     1      47.076   3.314   6.317  0.00  0.00    +0.000 C 
BRANCH  19  20
ATOM     20  O   UNL     1      48.411   2.852   6.471  0.00  0.00    +0.000 OA
ATOM     21  H   UNL     1      48.856   3.493   7.053  0.00  0.00    +0.000 HD
ENDBRANCH  19  20
ENDBRANCH  17  19
ENDBRANCH  12  13
ENDBRANCH   1  12
TORSDOF 7
ENDMDL
MODEL 7
REMARK VINA RESULT:    -5.660      3.888      6.448
REMARK INTER + INTRA:          -8.208
REMARK INTER:                  -7.805
REMARK INTRA:                  -0.403
REMARK UNBOUND:                -0.563
REMARK  Name = 
REMARK  7 active torsions:
REMARK  status: ('A' for Active; 'I' for Inactive)
REMARK    1  A    between atoms: N_1  and  C_2
REMARK    2  A    between atoms: C_2  and  C_3
REMARK    3  A    between atoms: C_7  and  C_8
REMARK    4  A    between atoms: C_8  and  O_9
REMARK    5  A    between atoms: O_9  and  C_10
REMARK    6  A    between atoms: C_14  and  C_15
REMARK    7  A    between atoms: C_15  and  O_16
REMARK                            x       y       z     vdW  Elec       q    Type
REMARK                         _______ _______ _______ _____ _____    ______ ____
ROOT
ATOM      1  C   UNL     1      47.165   3.921  16.000  0.00  0.00    +0.000 C 
ENDROOT
BRANCH   1   6
ATOM      2  C   UNL     1      50.486   2.619  17.402  0.00  0.00    +0.000 A 
ATOM      3  C   UNL     1      51.067   3.817  17.840  0.00  0.00    +0.000 A 
ATOM      4  C   UNL     1      50.378   5.027  17.729  0.00  0.00    +0.000 A 
ATOM      5  C   UNL     1      49.108   5.060  17.154  0.00  0.00    +0.000 A 
ATOM      6  C   UNL     1      48.514   3.885  16.682  0.00  0.00    +0.000 A 
ATOM      7  C   UNL     1      49.210   2.671  16.816  0.00  0.00    +0.000 A 
BRANCH   2   8
ATOM      8  C   UNL     1      51.224   1.303  17.454  0.00  0.00    +0.000 C 
BRANCH   8   9
ATOM      9  N   UNL     1      52.438   1.344  18.268  0.00  0.00    +0.000 NA
ATOM     10  H   UNL     1      52.518   2.265  18.694  0.00  0.00    +0.000 HD
ATOM     11  H   UNL     1      53.242   1.241  17.652  0.00  0.00    +0.000 HD
ENDBRANCH   8   9
ENDBRANCH   2   8
ENDBRANCH   1   6
BRANCH   1  12
ATOM     12  O   UNL     1      47.300   3.393  14.683  0.00  0.00    +0.000 OA
BRANCH  12  13
ATOM     13  C   UNL     1      46.724   4.101  13.664  0.00  0.00    +0.000 A 
ATOM     14  C   UNL     1      46.974   5.432  13.335  0.00  0.00    +0.000 A 
ATOM     15  C   UNL     1      46.316   6.018  12.250  0.00  0.00    +0.000 A 
ATOM     16  C   UNL     1      45.409   5.278  11.491  0.00  0.00    +0.000 A 
ATOM     17  C   UNL     1      45.135   3.944  11.814  0.00  0.00    +0.000 A 
ATOM     18  C   UNL     1      45.806   3.368  12.905  0.00  0.00    +0.000 A 
BRANCH  17  19
ATOM     19  C   UNL     1      44.220   3.092  10.974  0.00  0.00    +0.000 C 
BRANCH  19  20
ATOM     20  O   UNL     1      42.879   3.123  11.441  0.00  0.00    +0.000 OA
ATOM     21  H   UNL     1      42.886   2.707  12.321  0.00  0.00    +0.000 HD
ENDBRANCH  19  20
ENDBRANCH  17  19
ENDBRANCH  12  13
ENDBRANCH   1  12
TORSDOF 7
ENDMDL
MODEL 8
REMARK VINA RESULT:    -5.643      4.082      7.977
REMARK INTER + INTRA:          -8.185
REMARK INTER:                  -7.768
REMARK INTRA:                  -0.417
REMARK UNBOUND:                -0.563
REMARK  Name = 
REMARK  7 active torsions:
REMARK  status: ('A' for Active; 'I' for Inactive)
REMARK    1  A    between atoms: N_1  and  C_2
REMARK    2  A    between atoms: C_2  and  C_3
REMARK    3  A    between atoms: C_7  and  C_8
REMARK    4  A    between atoms: C_8  and  O_9
REMARK    5  A    between atoms: O_9  and  C_10
REMARK    6  A    between atoms: C_14  and  C_15
REMARK    7  A    between atoms: C_15  and  O_16
REMARK                            x       y       z     vdW  Elec       q    Type
REMARK                         _______ _______ _______ _____ _____    ______ ____
ROOT
ATOM      1  C   UNL     1      47.039   5.118  14.299  0.00  0.00    +0.000 C 
ENDROOT
BRANCH   1   6
ATOM      2  C   UNL     1      44.683   4.013  11.485  0.00  0.00    +0.000 A 
ATOM      3  C   UNL     1      44.930   5.015  10.536  0.00  0.00    +0.000 A 
ATOM      4  C   UNL     1      45.880   6.009  10.778  0.00  0.00    +0.000 A 
ATOM      5  C   UNL     1      46.578   6.033  11.985  0.00  0.00    +0.000 A 
ATOM      6  C   UNL     1      46.333   5.063  12.964  0.00  0.00    +0.000 A 
ATOM      7  C   UNL     1      45.387   4.057  12.700  0.00  0.00    +0.000 A 
BRANCH   2   8
ATOM      8  C   UNL     1      43.624   2.958  11.280  0.00  0.00    +0.000 C 
BRANCH   8   9
ATOM      9  N   UNL     1      43.485   2.040  12.410  0.00  0.00    +0.000 NA
ATOM     10  H   UNL     1      43.630   1.087  12.081  0.00  0.00    +0.000 HD
ATOM     11  H   UNL     1      42.525   2.085  12.746  0.00  0.00    +0.000 HD
ENDBRANCH   8   9
ENDBRANCH   2   8
ENDBRANCH   1   6
BRANCH   1  12
ATOM     12  O   UNL     1      47.203   3.788  14.787  0.00  0.00    +0.000 OA
BRANCH  12  13
ATOM     13  C   UNL     1      47.717   3.644  16.047  0.00  0.00    +0.000 A 
ATOM     14  C   UNL     1      48.569   2.631  16.483  0.00  0.00    +0.000 A 
ATOM     15  C   UNL     1      49.027   2.625  17.804  0.00  0.00    +0.000 A 
ATOM     16  C   UNL     1      48.638   3.629  18.691  0.00  0.00    +0.000 A 
ATOM     17  C   UNL     1      47.772   4.647  18.275  0.00  0.00    +0.000 A 
ATOM     18  C   UNL     1      47.323   4.642  16.944  0.00  0.00    +0.000 A 
BRANCH  17  19
ATOM     19  C   UNL     1      47.389   5.788  19.181  0.00  0.00    +0.000 C 
BRANCH  19  20
ATOM     20  O   UNL     1      47.229   7.008  18.470  0.00  0.00    +0.000 OA
ATOM     21  H   UNL     1      47.917   7.014  17.780  0.00  0.00    +0.000 HD
ENDBRANCH  19  20
ENDBRANCH  17  19
ENDBRANCH  12  13
ENDBRANCH   1  12
TORSDOF 7
ENDMDL
MODEL 9
REMARK VINA RESULT:    -5.599      3.028      6.658
REMARK INTER + INTRA:          -8.125
REMARK INTER:                  -7.721
REMARK INTRA:                  -0.404
REMARK UNBOUND:                -0.563
REMARK  Name = 
REMARK  7 active torsions:
REMARK  status: ('A' for Active; 'I' for Inactive)
REMARK    1  A    between atoms: N_1  and  C_2
REMARK    2  A    between atoms: C_2  and  C_3
REMARK    3  A    between atoms: C_7  and  C_8
REMARK    4  A    between atoms: C_8  and  O_9
REMARK    5  A    between atoms: O_9  and  C_10
REMARK    6  A    between atoms: C_14  and  C_15
REMARK    7  A    between atoms: C_15  and  O_16
REMARK                            x       y       z     vdW  Elec       q    Type
REMARK                         _______ _______ _______ _____ _____    ______ ____
ROOT
ATOM      1  C   UNL     1      44.851   5.404  10.133  0.00  0.00    +0.000 C 
ENDROOT
BRANCH   1   6
ATOM      2  C   UNL     1      46.311   3.111   7.431  0.00  0.00    +0.000 A 
ATOM      3  C   UNL     1      45.910   1.858   7.915  0.00  0.00    +0.000 A 
ATOM      4  C   UNL     1      45.137   1.754   9.073  0.00  0.00    +0.000 A 
ATOM      5  C   UNL     1      44.776   2.899   9.780  0.00  0.00    +0.000 A 
ATOM      6  C   UNL     1      45.185   4.163   9.338  0.00  0.00    +0.000 A 
ATOM      7  C   UNL     1      45.948   4.256   8.161  0.00  0.00    +0.000 A 
BRANCH   2   8
ATOM      8  C   UNL     1      47.194   3.258   6.216  0.00  0.00    +0.000 C 
BRANCH   8   9
ATOM      9  N   UNL     1      48.487   2.586   6.347  0.00  0.00    +0.000 NA
ATOM     10  H   UNL     1      49.228   3.279   6.269  0.00  0.00    +0.000 HD
ATOM     11  H   UNL     1      48.602   1.952   5.558  0.00  0.00    +0.000 HD
ENDBRANCH   8   9
ENDBRANCH   2   8
ENDBRANCH   1   6
BRANCH   1  12
ATOM     12  O   UNL     1      45.614   5.400  11.337  0.00  0.00    +0.000 OA
BRANCH  12  13
ATOM     13  C   UNL     1      45.984   6.614  11.847  0.00  0.00    +0.000 A 
ATOM     14  C   UNL     1      45.135   7.579  12.387  0.00  0.00    +0.000 A 
ATOM     15  C   UNL     1      45.664   8.774  12.885  0.00  0.00    +0.000 A 
ATOM     16  C   UNL     1      47.040   9.006  12.849  0.00  0.00    +0.000 A 
ATOM     17  C   UNL     1      47.907   8.054  12.299  0.00  0.00    +0.000 A 
ATOM     18  C   UNL     1      47.360   6.858  11.804  0.00  0.00    +0.000 A 
BRANCH  17  19
ATOM     19  C   UNL     1      49.401   8.237  12.309  0.00  0.00    +0.000 C 
BRANCH  19  20
ATOM     20  O   UNL     1      50.093   7.009  12.130  0.00  0.00    +0.000 OA
ATOM     21  H   UNL     1      51.009   7.166  12.423  0.00  0.00    +0.000 HD
ENDBRANCH  19  20
ENDBRANCH  17  19
ENDBRANCH  12  13
ENDBRANCH   1  12
TORSDOF 7
ENDMDL
