MODEL 1
REMARK VINA RESULT:    -7.404      0.000      0.000
REMARK INTER + INTRA:         -10.134
REMARK INTER:                  -9.568
REMARK INTRA:                  -0.566
REMARK UNBOUND:                -0.566
REMARK  Name = 
REMARK  5 active torsions:
REMARK  status: ('A' for Active; 'I' for Inactive)
REMARK    1  A    between atoms: C_2  and  C_4
REMARK    2  A    between atoms: C_8  and  S_9
REMARK    3  A    between atoms: S_9  and  C_10
REMARK    4  A    between atoms: C_10  and  C_11
REMARK    5  A    between atoms: C_15  and  C_16
REMARK                            x       y       z     vdW  Elec       q    Type
REMARK                         _______ _______ _______ _____ _____    ______ ____
ROOT
ATOM      1  C   UNL     1      43.985   6.285  12.156  0.00  0.00    +0.000 C 
ENDROOT
BRANCH   1   2
ATOM      2  C   UNL     1      43.984   4.875  11.603  0.00  0.00    +0.000 A 
ATOM      3  N   UNL     1      43.258   3.954  12.268  0.00  0.00    +0.000 NA
ATOM      4  C   UNL     1      43.280   2.704  11.779  0.00  0.00    +0.000 A 
ATOM      5  C   UNL     1      43.981   2.340  10.655  0.00  0.00    +0.000 A 
ATOM      6  C   UNL     1      44.710   3.336  10.033  0.00  0.00    +0.000 A 
ATOM      7  N   UNL     1      44.739   4.595  10.521  0.00  0.00    +0.000 NA
BRANCH   6   8
ATOM      8  C   UNL     1      45.503   3.109   8.815  0.00  0.00    +0.000 A 
ATOM      9  C   UNL     1      45.991   1.846   8.447  0.00  0.00    +0.000 A 
ATOM     10  C   UNL     1      46.757   1.689   7.291  0.00  0.00    +0.000 A 
ATOM     11  C   UNL     1      47.017   2.806   6.519  0.00  0.00    +0.000 A 
ATOM     12  N   UNL     1      46.558   4.038   6.814  0.00  0.00    +0.000 NA
ATOM     13  C   UNL     1      45.810   4.155   7.942  0.00  0.00    +0.000 A 
ENDBRANCH   6   8
ENDBRANCH   1   2
BRANCH   1  14
ATOM     14  S   UNL     1      45.346   7.327  11.505  0.00  0.00    +0.000 S 
BRANCH  14  19
ATOM     15  C   UNL     1      47.489   5.526  14.249  0.00  0.00    +0.000 A 
ATOM     16  N   UNL     1      48.619   6.252  14.414  0.00  0.00    +0.000 NA
ATOM     17  C   UNL     1      48.721   7.339  13.631  0.00  0.00    +0.000 A 
ATOM     18  C   UNL     1      47.759   7.712  12.720  0.00  0.00    +0.000 A 
ATOM     19  C   UNL     1      46.646   6.898  12.640  0.00  0.00    +0.000 A 
ATOM     20  N   UNL     1      46.492   5.801  13.392  0.00  0.00    +0.000 NA
BRANCH  15  22
ATOM     21  N   UNL     1      47.073   4.529  16.442  0.00  0.00    +0.000 N 
ATOM     22  C   UNL     1      47.332   4.297  15.113  0.00  0.00    +0.000 C 
ATOM     23  O   UNL     1      47.423   3.152  14.686  0.00  0.00    +0.000 OA
ATOM     24  H   UNL     1      46.955   3.739  17.061  0.00  0.00    +0.000 HD
ATOM     25  H   UNL     1      46.995   5.477  16.793  0.00  0.00    +0.000 HD
ENDBRANCH  15  22
ENDBRANCH  14  19
ENDBRANCH   1  14
TORSDOF 5
ENDMDL
MODEL 2
REMARK VINA RESULT:    -7.312      1.726      2.199
REMARK INTER + INTRA:         -10.015
REMARK INTER:                  -9.436
REMARK INTRA:                  -0.580
REMARK UNBOUND:                -0.566
REMARK  Name = 
REMARK  5 active torsions:
REMARK  status: ('A' for Active; 'I' for Inactive)
REMARK    1  A    between atoms: C_2  and  C_4
REMARK    2  A    between atoms: C_8  and  S_9
REMARK    3  A    between atoms: S_9  and  C_10
REMARK    4  A    between atoms: C_10  and  C_11
REMARK    5  A    between atoms: C_15  and  C_16
REMARK                            x       y       z     vdW  Elec       q    Type
REMARK                         _______ _______ _______ _____ _____    ______ ____
ROOT
ATOM      1  C   UNL     1      45.784   6.952  12.961  0.00  0.00    +0.000 C 
ENDROOT
BRANCH   1   2
ATOM      2  C   UNL     1      44.904   5.954  12.238  0.00  0.00    +0.000 A 
ATOM      3  N   UNL     1      43.645   5.799  12.693  0.00  0.00    +0.000 NA
ATOM      4  C   UNL     1      42.881   4.898  12.056  0.00  0.00    +0.000 A 
ATOM      5  C   UNL     1      43.315   4.159  10.982  0.00  0.00    +0.000 A 
ATOM      6  C   UNL     1      44.620   4.364  10.578  0.00  0.00    +0.000 A 
ATOM      7  N   UNL     1      45.426   5.236  11.222  0.00  0.00    +0.000 NA
BRANCH   6   8
ATOM      8  C   UNL     1      45.229   3.658   9.440  0.00  0.00    +0.000 A 
ATOM      9  C   UNL     1      45.767   4.324   8.329  0.00  0.00    +0.000 A 
ATOM     10  C   UNL     1      46.315   3.605   7.266  0.00  0.00    +0.000 A 
ATOM     11  C   UNL     1      46.317   2.224   7.339  0.00  0.00    +0.000 A 
ATOM     12  N   UNL     1      45.831   1.533   8.389  0.00  0.00    +0.000 NA
ATOM     13  C   UNL     1      45.312   2.264   9.410  0.00  0.00    +0.000 A 
ENDBRANCH   6   8
ENDBRANCH   1   2
BRANCH   1  14
ATOM     14  S   UNL     1      47.578   6.637  12.750  0.00  0.00    +0.000 S 
BRANCH  14  19
ATOM     15  C   UNL     1      48.018   4.792  16.180  0.00  0.00    +0.000 A 
ATOM     16  N   UNL     1      48.683   5.633  17.005  0.00  0.00    +0.000 NA
ATOM     17  C   UNL     1      49.017   6.818  16.466  0.00  0.00    +0.000 A 
ATOM     18  C   UNL     1      48.715   7.176  15.172  0.00  0.00    +0.000 A 
ATOM     19  C   UNL     1      48.029   6.239  14.424  0.00  0.00    +0.000 A 
ATOM     20  N   UNL     1      47.674   5.042  14.906  0.00  0.00    +0.000 NA
BRANCH  15  22
ATOM     21  N   UNL     1      48.570   2.461  16.672  0.00  0.00    +0.000 N 
ATOM     22  C   UNL     1      47.619   3.450  16.748  0.00  0.00    +0.000 C 
ATOM     23  O   UNL     1      46.525   3.226  17.253  0.00  0.00    +0.000 OA
ATOM     24  H   UNL     1      48.353   1.547  17.042  0.00  0.00    +0.000 HD
ATOM     25  H   UNL     1      49.476   2.649  16.256  0.00  0.00    +0.000 HD
ENDBRANCH  15  22
ENDBRANCH  14  19
ENDBRANCH   1  14
TORSDOF 5
ENDMDL
MODEL 3
REMARK VINA RESULT:    -7.162      2.682      6.530
REMARK INTER + INTRA:          -9.821
REMARK INTER:                  -9.323
REMARK INTRA:                  -0.498
REMARK UNBOUND:                -0.566
REMARK  Name = 
REMARK  5 active torsions:
REMARK  status: ('A' for Active; 'I' for Inactive)
REMARK    1  A    between atoms: C_2  and  C_4
REMARK    2  A    between atoms: C_8  and  S_9
REMARK    3  A    between atoms: S_9  and  C_10
REMARK    4  A    between atoms: C_10  and  C_11
REMARK    5  A    between atoms: C_15  and  C_16
REMARK                            x       y       z     vdW  Elec       q    Type
REMARK                         _______ _______ _______ _____ _____    ______ ____
ROOT
ATOM      1  C   UNL     1      43.376   4.095  12.129  0.00  0.00    +0.000 C 
ENDROOT
BRANCH   1   2
ATOM      2  C   UNL     1      44.691   4.684  12.594  0.00  0.00    +0.000 A 
ATOM      3  N   UNL     1      45.543   3.860  13.236  0.00  0.00    +0.000 NA
ATOM      4  C   UNL     1      46.697   4.398  13.659  0.00  0.00    +0.000 A 
ATOM      5  C   UNL     1      47.040   5.713  13.458  0.00  0.00    +0.000 A 
ATOM      6  C   UNL     1      46.113   6.500  12.802  0.00  0.00    +0.000 A 
ATOM      7  N   UNL     1      44.926   5.998  12.397  0.00  0.00    +0.000 NA
BRANCH   6   8
ATOM      8  C   UNL     1      46.335   7.923  12.503  0.00  0.00    +0.000 A 
ATOM      9  C   UNL     1      47.613   8.497  12.435  0.00  0.00    +0.000 A 
ATOM     10  C   UNL     1      47.768   9.858  12.167  0.00  0.00    +0.000 A 
ATOM     11  C   UNL     1      46.633  10.621  11.967  0.00  0.00    +0.000 A 
ATOM     12  N   UNL     1      45.382  10.119  12.001  0.00  0.00    +0.000 NA
ATOM     13  C   UNL     1      45.268   8.789  12.257  0.00  0.00    +0.000 A 
ENDBRANCH   6   8
ENDBRANCH   1   2
BRANCH   1  14
ATOM     14  S   UNL     1      43.537   2.416  11.410  0.00  0.00    +0.000 S 
BRANCH  14  19
ATOM     15  C   UNL     1      45.940   2.153   8.325  0.00  0.00    +0.000 A 
ATOM     16  N   UNL     1      45.935   3.359   7.710  0.00  0.00    +0.000 NA
ATOM     17  C   UNL     1      45.142   4.285   8.273  0.00  0.00    +0.000 A 
ATOM     18  C   UNL     1      44.381   4.053   9.397  0.00  0.00    +0.000 A 
ATOM     19  C   UNL     1      44.469   2.787   9.942  0.00  0.00    +0.000 A 
ATOM     20  N   UNL     1      45.239   1.823   9.422  0.00  0.00    +0.000 NA
BRANCH  15  22
ATOM     21  N   UNL     1      47.873   1.532   6.963  0.00  0.00    +0.000 N 
ATOM     22  C   UNL     1      46.822   1.083   7.726  0.00  0.00    +0.000 C 
ATOM     23  O   UNL     1      46.639  -0.118   7.892  0.00  0.00    +0.000 OA
ATOM     24  H   UNL     1      48.495   0.855   6.544  0.00  0.00    +0.000 HD
ATOM     25  H   UNL     1      48.025   2.525   6.829  0.00  0.00    +0.000 HD
ENDBRANCH  15  22
ENDBRANCH  14  19
ENDBRANCH   1  14
TORSDOF 5
ENDMDL
MODEL 4
REMARK VINA RESULT:    -6.836      2.471      6.562
REMARK INTER + INTRA:          -9.400
REMARK INTER:                  -8.803
REMARK INTRA:                  -0.597
REMARK UNBOUND:                -0.566
REMARK  Name = 
REMARK  5 active torsions:
REMARK  status: ('A' for Active; 'I' for Inactive)
REMARK    1  A    between atoms: C_2  and  C_4
REMARK    2  A    between atoms: C_8  and  S_9
REMARK    3  A    between atoms: S_9  and  C_10
REMARK    4  A    between atoms: C_10  and  C_11
REMARK    5  A    between atoms: C_15  and  C_16
REMARK                            x       y       z     vdW  Elec       q    Type
REMARK                         _______ _______ _______ _____ _____    ______ ____
ROOT
ATOM      1  C   UNL     1      44.936   3.156  12.373  0.00  0.00    +0.000 C 
ENDROOT
BRANCH   1   2
ATOM      2  C   UNL     1      45.086   4.659  12.475  0.00  0.00    +0.000 A 
ATOM      3  N   UNL     1      43.957   5.395  12.423  0.00  0.00    +0.000 NA
ATOM      4  C   UNL     1      44.104   6.727  12.495  0.00  0.00    +0.000 A 
ATOM      5  C   UNL     1      45.321   7.351  12.629  0.00  0.00    +0.000 A 
ATOM      6  C   UNL     1      46.434   6.532  12.665  0.00  0.00    +0.000 A 
ATOM      7  N   UNL     1      46.323   5.191  12.557  0.00  0.00    +0.000 NA
BRANCH   6   8
ATOM      8  C   UNL     1      47.804   7.046  12.815  0.00  0.00    +0.000 A 
ATOM      9  C   UNL     1      48.509   7.654  11.767  0.00  0.00    +0.000 A 
ATOM     10  C   UNL     1      49.816   8.107  11.957  0.00  0.00    +0.000 A 
ATOM     11  C   UNL     1      50.392   7.944  13.203  0.00  0.00    +0.000 A 
ATOM     12  N   UNL     1      49.755   7.384  14.250  0.00  0.00    +0.000 NA
ATOM     13  C   UNL     1      48.482   6.962  14.033  0.00  0.00    +0.000 A 
ENDBRANCH   6   8
ENDBRANCH   1   2
BRANCH   1  14
ATOM     14  S   UNL     1      43.748   2.622  11.082  0.00  0.00    +0.000 S 
BRANCH  14  19
ATOM     15  C   UNL     1      46.183   2.053   8.063  0.00  0.00    +0.000 A 
ATOM     16  N   UNL     1      46.286   3.231   7.405  0.00  0.00    +0.000 NA
ATOM     17  C   UNL     1      45.558   4.238   7.916  0.00  0.00    +0.000 A 
ATOM     18  C   UNL     1      44.759   4.109   9.030  0.00  0.00    +0.000 A 
ATOM     19  C   UNL     1      44.736   2.862   9.622  0.00  0.00    +0.000 A 
ATOM     20  N   UNL     1      45.436   1.821   9.155  0.00  0.00    +0.000 NA
BRANCH  15  22
ATOM     21  N   UNL     1      48.025   1.226   6.685  0.00  0.00    +0.000 N 
ATOM     22  C   UNL     1      46.988   0.895   7.524  0.00  0.00    +0.000 C 
ATOM     23  O   UNL     1      46.759  -0.277   7.799  0.00  0.00    +0.000 OA
ATOM     24  H   UNL     1      48.596   0.487   6.301  0.00  0.00    +0.000 HD
ATOM     25  H   UNL     1      48.215   2.196   6.460  0.00  0.00    +0.000 HD
ENDBRANCH  15  22
ENDBRANCH  14  19
ENDBRANCH   1  14
TORSDOF 5
ENDMDL
MODEL 5
REMARK VINA RESULT:    -6.797      2.214      3.874
REMARK INTER + INTRA:          -9.349
REMARK INTER:                  -8.719
REMARK INTRA:                  -0.630
REMARK UNBOUND:                -0.566
REMARK  Name = 
REMARK  5 active torsions:
REMARK  status: ('A' for Active; 'I' for Inactive)
REMARK    1  A    between atoms: C_2  and  C_4
REMARK    2  A    between atoms: C_8  and  S_9
REMARK    3  A    between atoms: S_9  and  C_10
REMARK    4  A    between atoms: C_10  and  C_11
REMARK    5  A    between atoms: C_15  and  C_16
REMARK                            x       y       z     vdW  Elec       q    Type
REMARK                         _______ _______ _______ _____ _____    ______ ____
ROOT
ATOM      1  C   UNL     1      48.657   6.859  13.350  0.00  0.00    +0.000 C 
ENDROOT
BRANCH   1   2
ATOM      2  C   UNL     1      47.285   6.964  12.719  0.00  0.00    +0.000 A 
ATOM      3  N   UNL     1      46.553   8.056  13.016  0.00  0.00    +0.000 NA
ATOM      4  C   UNL     1      45.331   8.130  12.465  0.00  0.00    +0.000 A 
ATOM      5  C   UNL     1      44.818   7.171  11.626  0.00  0.00    +0.000 A 
ATOM      6  C   UNL     1      45.622   6.076  11.375  0.00  0.00    +0.000 A 
ATOM      7  N   UNL     1      46.841   5.954  11.943  0.00  0.00    +0.000 NA
BRANCH   6   8
ATOM      8  C   UNL     1      45.221   4.971  10.490  0.00  0.00    +0.000 A 
ATOM      9  C   UNL     1      45.588   4.905   9.138  0.00  0.00    +0.000 A 
ATOM     10  C   UNL     1      45.163   3.844   8.337  0.00  0.00    +0.000 A 
ATOM     11  C   UNL     1      44.378   2.861   8.911  0.00  0.00    +0.000 A 
ATOM     12  N   UNL     1      44.012   2.863  10.208  0.00  0.00    +0.000 NA
ATOM     13  C   UNL     1      44.449   3.906  10.961  0.00  0.00    +0.000 A 
ENDBRANCH   6   8
ENDBRANCH   1   2
BRANCH   1  14
ATOM     14  S   UNL     1      48.902   7.994  14.769  0.00  0.00    +0.000 S 
BRANCH  14  19
ATOM     15  C   UNL     1      48.332   4.755  16.903  0.00  0.00    +0.000 A 
ATOM     16  N   UNL     1      48.598   5.073  18.191  0.00  0.00    +0.000 NA
ATOM     17  C   UNL     1      48.982   6.344  18.400  0.00  0.00    +0.000 A 
ATOM     18  C   UNL     1      49.101   7.276  17.395  0.00  0.00    +0.000 A 
ATOM     19  C   UNL     1      48.798   6.841  16.120  0.00  0.00    +0.000 A 
ATOM     20  N   UNL     1      48.415   5.586  15.851  0.00  0.00    +0.000 NA
BRANCH  15  22
ATOM     21  N   UNL     1      46.987   2.806  17.510  0.00  0.00    +0.000 N 
ATOM     22  C   UNL     1      47.894   3.337  16.624  0.00  0.00    +0.000 C 
ATOM     23  O   UNL     1      48.301   2.675  15.676  0.00  0.00    +0.000 OA
ATOM     24  H   UNL     1      46.659   1.862  17.364  0.00  0.00    +0.000 HD
ATOM     25  H   UNL     1      46.648   3.356  18.291  0.00  0.00    +0.000 HD
ENDBRANCH  15  22
ENDBRANCH  14  19
ENDBRANCH   1  14
TORSDOF 5
ENDMDL
MODEL 6
REMARK VINA RESULT:    -6.548      3.272      5.766
REMARK INTER + INTRA:          -9.027
REMARK INTER:                  -8.254
REMARK INTRA:                  -0.774
REMARK UNBOUND:                -0.566
REMARK  Name = 
REMARK  5 active torsions:
REMARK  status: ('A' for Active; 'I' for Inactive)
REMARK    1  A    between atoms: C_2  and  C_4
REMARK    2  A    between atoms: C_8  and  S_9
REMARK    3  A    between atoms: S_9  and  C_10
REMARK    4  A    between atoms: C_10  and  C_11
REMARK    5  A    between atoms: C_15  and  C_16
REMARK                            x       y       z     vdW  Elec       q    Type
REMARK                         _______ _______ _______ _____ _____    ______ ____
ROOT
ATOM      1  C   UNL     1      50.436   7.079  15.327  0.00  0.00    +0.000 C 
ENDROOT
BRANCH   1   2
ATOM      2  C   UNL     1      49.460   7.353  14.201  0.00  0.00    +0.000 A 
ATOM      3  N   UNL     1      49.553   8.548  13.584  0.00  0.00    +0.000 NA
ATOM      4  C   UNL     1      48.671   8.787  12.600  0.00  0.00    +0.000 A 
ATOM      5  C   UNL     1      47.715   7.884  12.202  0.00  0.00    +0.000 A 
ATOM      6  C   UNL     1      47.674   6.685  12.888  0.00  0.00    +0.000 A 
ATOM      7  N   UNL     1      48.523   6.429  13.907  0.00  0.00    +0.000 NA
BRANCH   6   8
ATOM      8  C   UNL     1      46.717   5.613  12.574  0.00  0.00    +0.000 A 
ATOM      9  C   UNL     1      45.857   5.658  11.468  0.00  0.00    +0.000 A 
ATOM     10  C   UNL     1      44.953   4.623  11.227  0.00  0.00    +0.000 A 
ATOM     11  C   UNL     1      44.931   3.553  12.103  0.00  0.00    +0.000 A 
ATOM     12  N   UNL     1      45.746   3.448  13.170  0.00  0.00    +0.000 NA
ATOM     13  C   UNL     1      46.620   4.470  13.371  0.00  0.00    +0.000 A 
ENDBRANCH   6   8
ENDBRANCH   1   2
BRANCH   1  14
ATOM     14  S   UNL     1      49.739   7.392  16.994  0.00  0.00    +0.000 S 
BRANCH  14  19
ATOM     15  C   UNL     1      49.273   3.515  17.337  0.00  0.00    +0.000 A 
ATOM     16  N   UNL     1      48.064   3.306  17.909  0.00  0.00    +0.000 NA
ATOM     17  C   UNL     1      47.374   4.419  18.209  0.00  0.00    +0.000 A 
ATOM     18  C   UNL     1      47.837   5.691  17.962  0.00  0.00    +0.000 A 
ATOM     19  C   UNL     1      49.082   5.782  17.371  0.00  0.00    +0.000 A 
ATOM     20  N   UNL     1      49.817   4.710  17.053  0.00  0.00    +0.000 NA
BRANCH  15  22
ATOM     21  N   UNL     1      51.092   1.964  17.852  0.00  0.00    +0.000 N 
ATOM     22  C   UNL     1      50.081   2.290  16.979  0.00  0.00    +0.000 C 
ATOM     23  O   UNL     1      49.873   1.608  15.982  0.00  0.00    +0.000 OA
ATOM     24  H   UNL     1      51.658   1.150  17.659  0.00  0.00    +0.000 HD
ATOM     25  H   UNL     1      51.261   2.527  18.677  0.00  0.00    +0.000 HD
ENDBRANCH  15  22
ENDBRANCH  14  19
ENDBRANCH   1  14
TORSDOF 5
ENDMDL
MODEL 7
REMARK VINA RESULT:    -6.533      2.115      7.334
REMARK INTER + INTRA:          -9.008
REMARK INTER:                  -8.392
REMARK INTRA:                  -0.616
REMARK UNBOUND:                -0.566
REMARK  Name = 
REMARK  5 active torsions:
REMARK  status: ('A' for Active; 'I' for Inactive)
REMARK    1  A    between atoms: C_2  and  C_4
REMARK    2  A    between atoms: C_8  and  S_9
REMARK    3  A    between atoms: S_9  and  C_10
REMARK    4  A    between atoms: C_10  and  C_11
REMARK    5  A    between atoms: C_15  and  C_16
REMARK                            x       y       z     vdW  Elec       q    Type
REMARK                         _______ _______ _______ _____ _____    ______ ____
ROOT
ATOM      1  C   UNL     1      46.915   6.640  11.866  0.00  0.00    +0.000 C 
ENDROOT
BRANCH   1   2
ATOM      2  C   UNL     1      47.783   6.783  13.099  0.00  0.00    +0.000 A 
ATOM      3  N   UNL     1      48.672   7.796  13.111  0.00  0.00    +0.000 NA
ATOM      4  C   UNL     1      49.448   7.902  14.201  0.00  0.00    +0.000 A 
ATOM      5  C   UNL     1      49.367   7.050  15.277  0.00  0.00    +0.000 A 
ATOM      6  C   UNL     1      48.440   6.030  15.187  0.00  0.00    +0.000 A 
ATOM      7  N   UNL     1      47.670   5.874  14.089  0.00  0.00    +0.000 NA
BRANCH   6   8
ATOM      8  C   UNL     1      48.226   5.044  16.258  0.00  0.00    +0.000 A 
ATOM      9  C   UNL     1      49.103   4.892  17.342  0.00  0.00    +0.000 A 
ATOM     10  C   UNL     1      48.863   3.927  18.321  0.00  0.00    +0.000 A 
ATOM     11  C   UNL     1      47.739   3.131  18.198  0.00  0.00    +0.000 A 
ATOM     12  N   UNL     1      46.853   3.246  17.189  0.00  0.00    +0.000 NA
ATOM     13  C   UNL     1      47.112   4.201  16.257  0.00  0.00    +0.000 A 
ENDBRANCH   6   8
ENDBRANCH   1   2
BRANCH   1  14
ATOM     14  S   UNL     1      45.120   6.787  12.212  0.00  0.00    +0.000 S 
BRANCH  14  19
ATOM     15  C   UNL     1      44.594   3.450  10.224  0.00  0.00    +0.000 A 
ATOM     16  N   UNL     1      43.693   2.712  10.912  0.00  0.00    +0.000 NA
ATOM     17  C   UNL     1      43.241   3.272  12.047  0.00  0.00    +0.000 A 
ATOM     18  C   UNL     1      43.647   4.508  12.498  0.00  0.00    +0.000 A 
ATOM     19  C   UNL     1      44.566   5.173  11.711  0.00  0.00    +0.000 A 
ATOM     20  N   UNL     1      45.054   4.662  10.573  0.00  0.00    +0.000 NA
BRANCH  15  22
ATOM     21  N   UNL     1      45.373   3.752   7.926  0.00  0.00    +0.000 N 
ATOM     22  C   UNL     1      45.124   2.858   8.939  0.00  0.00    +0.000 C 
ATOM     23  O   UNL     1      45.332   1.661   8.780  0.00  0.00    +0.000 OA
ATOM     24  H   UNL     1      45.734   3.406   7.048  0.00  0.00    +0.000 HD
ATOM     25  H   UNL     1      45.204   4.743   8.060  0.00  0.00    +0.000 HD
ENDBRANCH  15  22
ENDBRANCH  14  19
ENDBRANCH   1  14
TORSDOF 5
ENDMDL
MODEL 8
REMARK VINA RESULT:    -6.465      2.499      3.459
REMARK INTER + INTRA:          -8.920
REMARK INTER:                  -8.496
REMARK INTRA:                  -0.424
REMARK UNBOUND:                -0.566
REMARK  Name = 
REMARK  5 active torsions:
REMARK  status: ('A' for Active; 'I' for Inactive)
REMARK    1  A    between atoms: C_2  and  C_4
REMARK    2  A    between atoms: C_8  and  S_9
REMARK    3  A    between atoms: S_9  and  C_10
REMARK    4  A    between atoms: C_10  and  C_11
REMARK    5  A    between atoms: C_15  and  C_16
REMARK                            x       y       z     vdW  Elec       q    Type
REMARK                         _______ _______ _______ _____ _____    ______ ____
ROOT
ATOM      1  C   UNL     1      46.086   5.083  14.124  0.00  0.00    +0.000 C 
ENDROOT
BRANCH   1   2
ATOM      2  C   UNL     1      45.101   4.910  12.987  0.00  0.00    +0.000 A 
ATOM      3  N   UNL     1      43.820   5.252  13.226  0.00  0.00    +0.000 NA
ATOM      4  C   UNL     1      42.952   5.077  12.216  0.00  0.00    +0.000 A 
ATOM      5  C   UNL     1      43.312   4.589  10.982  0.00  0.00    +0.000 A 
ATOM      6  C   UNL     1      44.641   4.251  10.816  0.00  0.00    +0.000 A 
ATOM      7  N   UNL     1      45.531   4.379  11.823  0.00  0.00    +0.000 NA
BRANCH   6   8
ATOM      8  C   UNL     1      45.183   3.726   9.553  0.00  0.00    +0.000 A 
ATOM      9  C   UNL     1      45.285   2.355   9.278  0.00  0.00    +0.000 A 
ATOM     10  C   UNL     1      45.826   1.910   8.071  0.00  0.00    +0.000 A 
ATOM     11  C   UNL     1      46.254   2.853   7.156  0.00  0.00    +0.000 A 
ATOM     12  N   UNL     1      46.163   4.182   7.359  0.00  0.00    +0.000 NA
ATOM     13  C   UNL     1      45.624   4.581   8.541  0.00  0.00    +0.000 A 
ENDBRANCH   6   8
ENDBRANCH   1   2
BRANCH   1  14
ATOM     14  S   UNL     1      47.154   3.618  14.400  0.00  0.00    +0.000 S 
BRANCH  14  19
ATOM     15  C   UNL     1      48.218   5.347  17.752  0.00  0.00    +0.000 A 
ATOM     16  N   UNL     1      48.487   4.364  18.642  0.00  0.00    +0.000 NA
ATOM     17  C   UNL     1      48.318   3.113  18.182  0.00  0.00    +0.000 A 
ATOM     18  C   UNL     1      47.905   2.824  16.901  0.00  0.00    +0.000 A 
ATOM     19  C   UNL     1      47.665   3.908  16.079  0.00  0.00    +0.000 A 
ATOM     20  N   UNL     1      47.812   5.175  16.484  0.00  0.00    +0.000 NA
BRANCH  15  22
ATOM     21  N   UNL     1      47.257   7.414  18.637  0.00  0.00    +0.000 N 
ATOM     22  C   UNL     1      48.400   6.769  18.228  0.00  0.00    +0.000 C 
ATOM     23  O   UNL     1      49.484   7.340  18.262  0.00  0.00    +0.000 OA
ATOM     24  H   UNL     1      47.327   8.365  18.969  0.00  0.00    +0.000 HD
ATOM     25  H   UNL     1      46.362   6.940  18.612  0.00  0.00    +0.000 HD
ENDBRANCH  15  22
ENDBRANCH  14  19
ENDBRANCH   1  14
TORSDOF 5
ENDMDL
MODEL 9
REMARK VINA RESULT:    -6.201      3.256      7.142
REMARK INTER + INTRA:          -8.579
REMARK INTER:                  -7.723
REMARK INTRA:                  -0.856
REMARK UNBOUND:                -0.566
REMARK  Name = 
REMARK  5 active torsions:
REMARK  status: ('A' for Active; 'I' for Inactive)
REMARK    1  A    between atoms: C_2  and  C_4
REMARK    2  A    between atoms: C_8  and  S_9
REMARK    3  A    between atoms: S_9  and  C_10
REMARK    4  A    between atoms: C_10  and  C_11
REMARK    5  A    between atoms: C_15  and  C_16
REMARK                            x       y       z     vdW  Elec       q    Type
REMARK                         _______ _______ _______ _____ _____    ______ ____
ROOT
ATOM      1  C   UNL     1      48.357   8.736  13.743  0.00  0.00    +0.000 C 
ENDROOT
BRANCH   1   2
ATOM      2  C   UNL     1      49.168   7.955  14.756  0.00  0.00    +0.000 A 
ATOM      3  N   UNL     1      50.409   8.404  15.030  0.00  0.00    +0.000 NA
ATOM      4  C   UNL     1      51.124   7.693  15.916  0.00  0.00    +0.000 A 
ATOM      5  C   UNL     1      50.651   6.567  16.544  0.00  0.00    +0.000 A 
ATOM      6  C   UNL     1      49.375   6.161  16.205  0.00  0.00    +0.000 A 
ATOM      7  N   UNL     1      48.643   6.833  15.290  0.00  0.00    +0.000 NA
BRANCH   6   8
ATOM      8  C   UNL     1      48.723   4.982  16.797  0.00  0.00    +0.000 A 
ATOM      9  C   UNL     1      49.402   4.064  17.612  0.00  0.00    +0.000 A 
ATOM     10  C   UNL     1      48.741   2.951  18.133  0.00  0.00    +0.000 A 
ATOM     11  C   UNL     1      47.403   2.780  17.829  0.00  0.00    +0.000 A 
ATOM     12  N   UNL     1      46.697   3.639  17.068  0.00  0.00    +0.000 NA
ATOM     13  C   UNL     1      47.369   4.717  16.584  0.00  0.00    +0.000 A 
ENDBRANCH   6   8
ENDBRANCH   1   2
BRANCH   1  14
ATOM     14  S   UNL     1      48.363   7.992  12.067  0.00  0.00    +0.000 S 
BRANCH  14  19
ATOM     15  C   UNL     1      45.838   5.029  12.519  0.00  0.00    +0.000 A 
ATOM     16  N   UNL     1      44.605   5.506  12.232  0.00  0.00    +0.000 NA
ATOM     17  C   UNL     1      44.559   6.806  11.897  0.00  0.00    +0.000 A 
ATOM     18  C   UNL     1      45.670   7.616  11.838  0.00  0.00    +0.000 A 
ATOM     19  C   UNL     1      46.876   7.019  12.146  0.00  0.00    +0.000 A 
ATOM     20  N   UNL     1      46.983   5.730  12.492  0.00  0.00    +0.000 NA
BRANCH  15  22
ATOM     21  N   UNL     1      44.935   2.759  12.420  0.00  0.00    +0.000 N 
ATOM     22  C   UNL     1      45.935   3.570  12.898  0.00  0.00    +0.000 C 
ATOM     23  O   UNL     1      46.838   3.106  13.586  0.00  0.00    +0.000 OA
ATOM     24  H   UNL     1      44.958   1.774  12.642  0.00  0.00    +0.000 HD
ATOM     25  H   UNL     1      44.190   3.143  11.849  0.00  0.00    +0.000 HD
ENDBRANCH  15  22
ENDBRANCH  14  19
ENDBRANCH   1  14
TORSDOF 5
ENDMDL
