MODEL 1
REMARK VINA RESULT:    -7.138      0.000      0.000
REMARK INTER + INTRA:         -11.109
REMARK INTER:                 -10.267
REMARK INTRA:                  -0.842
REMARK UNBOUND:                -0.842
REMARK  Name = 
REMARK  10 active torsions:
REMARK  status: ('A' for Active; 'I' for Inactive)
REMARK    1  A    between atoms: C_1  and  O_2
REMARK    2  A    between atoms: O_2  and  C_3
REMARK    3  A    between atoms: C_5  and  O_6
REMARK    4  A    between atoms: O_6  and  C_7
REMARK    5  A    between atoms: C_9  and  C_10
REMARK    6  A    between atoms: C_10  and  C_11
REMARK    7  A    between atoms: C_11  and  C_12
REMARK    8  A    between atoms: C_16  and  C_17
REMARK    9  A    between atoms: C_17  and  C_18
REMARK   10  A    between atoms: C_18  and  O_20
REMARK                            x       y       z     vdW  Elec       q    Type
REMARK                         _______ _______ _______ _____ _____    ______ ____
ROOT
ATOM      1  C   UNL     1      43.957   4.603  10.107  0.00  0.00    +0.000 C 
ENDROOT
BRANCH   1   2
ATOM      2  C   UNL     1      44.693   3.607   9.249  0.00  0.00    +0.000 A 
ATOM      3  C   UNL     1      44.701   2.251   9.573  0.00  0.00    +0.000 A 
ATOM      4  C   UNL     1      45.403   1.384   8.755  0.00  0.00    +0.000 A 
ATOM      5  N   UNL     1      46.090   1.772   7.656  0.00  0.00    +0.000 NA
ATOM      6  C   UNL     1      46.114   3.097   7.375  0.00  0.00    +0.000 A 
ATOM      7  C   UNL     1      45.425   4.036   8.138  0.00  0.00    +0.000 A 
BRANCH   6   8
ATOM      8  C   UNL     1      46.941   3.520   6.194  0.00  0.00    +0.000 C 
BRANCH   8   9
ATOM      9  C   UNL     1      47.362   2.361   5.332  0.00  0.00    +0.000 C 
ATOM     10  O   UNL     1      46.712   1.955   4.379  0.00  0.00    +0.000 OA
BRANCH   9  11
ATOM     11  O   UNL     1      48.548   1.811   5.685  0.00  0.00    +0.000 OA
ATOM     12  H   UNL     1      48.527   1.391   6.571  0.00  0.00    +0.000 HD
ENDBRANCH   9  11
ENDBRANCH   8   9
ENDBRANCH   6   8
ENDBRANCH   1   2
BRANCH   1  13
ATOM     13  C   UNL     1      43.884   4.131  11.557  0.00  0.00    +0.000 C 
BRANCH  13  18
ATOM     14  C   UNL     1      46.579   6.199  12.892  0.00  0.00    +0.000 A 
ATOM     15  C   UNL     1      47.283   5.344  13.701  0.00  0.00    +0.000 A 
ATOM     16  C   UNL     1      46.800   4.062  13.749  0.00  0.00    +0.000 A 
ATOM     17  N   UNL     1      45.721   3.644  13.068  0.00  0.00    +0.000 NA
ATOM     18  C   UNL     1      45.114   4.557  12.299  0.00  0.00    +0.000 A 
ATOM     19  N   UNL     1      45.494   5.838  12.184  0.00  0.00    +0.000 NA
BRANCH  14  21
ATOM     20  C   UNL     1      45.984   8.454  13.050  0.00  0.00    +0.000 C 
ATOM     21  O   UNL     1      47.025   7.506  12.820  0.00  0.00    +0.000 OA
ENDBRANCH  14  21
BRANCH  16  22
ATOM     22  O   UNL     1      47.473   3.164  14.556  0.00  0.00    +0.000 OA
ATOM     23  C   UNL     1      47.545   3.600  15.914  0.00  0.00    +0.000 C 
ENDBRANCH  16  22
ENDBRANCH  13  18
ENDBRANCH   1  13
TORSDOF 8
ENDMDL
MODEL 2
REMARK VINA RESULT:    -7.094      0.523      2.428
REMARK INTER + INTRA:         -11.046
REMARK INTER:                 -10.185
REMARK INTRA:                  -0.861
REMARK UNBOUND:                -0.842
REMARK  Name = 
REMARK  10 active torsions:
REMARK  status: ('A' for Active; 'I' for Inactive)
REMARK    1  A    between atoms: C_1  and  O_2
REMARK    2  A    between atoms: O_2  and  C_3
REMARK    3  A    between atoms: C_5  and  O_6
REMARK    4  A    between atoms: O_6  and  C_7
REMARK    5  A    between atoms: C_9  and  C_10
REMARK    6  A    between atoms: C_10  and  C_11
REMARK    7  A    between atoms: C_11  and  C_12
REMARK    8  A    between atoms: C_16  and  C_17
REMARK    9  A    between atoms: C_17  and  C_18
REMARK   10  A    between atoms: C_18  and  O_20
REMARK                            x       y       z     vdW  Elec       q    Type
REMARK                         _______ _______ _______ _____ _____    ______ ____
ROOT
ATOM      1  C   UNL     1      43.935   4.606   9.981  0.00  0.00    +0.000 C 
ENDROOT
BRANCH   1   2
ATOM      2  C   UNL     1      44.690   3.589   9.164  0.00  0.00    +0.000 A 
ATOM      3  C   UNL     1      44.707   2.244   9.532  0.00  0.00    +0.000 A 
ATOM      4  C   UNL     1      45.427   1.358   8.750  0.00  0.00    +0.000 A 
ATOM      5  N   UNL     1      46.122   1.716   7.648  0.00  0.00    +0.000 NA
ATOM      6  C   UNL     1      46.138   3.032   7.324  0.00  0.00    +0.000 A 
ATOM      7  C   UNL     1      45.432   3.989   8.048  0.00  0.00    +0.000 A 
BRANCH   6   8
ATOM      8  C   UNL     1      46.975   3.425   6.140  0.00  0.00    +0.000 C 
BRANCH   8   9
ATOM      9  C   UNL     1      47.378   2.247   5.295  0.00  0.00    +0.000 C 
ATOM     10  O   UNL     1      46.723   1.838   4.346  0.00  0.00    +0.000 OA
BRANCH   9  11
ATOM     11  O   UNL     1      48.554   1.683   5.658  0.00  0.00    +0.000 OA
ATOM     12  H   UNL     1      48.525   1.276   6.549  0.00  0.00    +0.000 HD
ENDBRANCH   9  11
ENDBRANCH   8   9
ENDBRANCH   6   8
ENDBRANCH   1   2
BRANCH   1  13
ATOM     13  C   UNL     1      43.811   4.158  11.435  0.00  0.00    +0.000 C 
BRANCH  13  18
ATOM     14  C   UNL     1      46.706   4.088  13.656  0.00  0.00    +0.000 A 
ATOM     15  C   UNL     1      47.236   5.349  13.550  0.00  0.00    +0.000 A 
ATOM     16  C   UNL     1      46.558   6.193  12.710  0.00  0.00    +0.000 A 
ATOM     17  N   UNL     1      45.455   5.843  12.028  0.00  0.00    +0.000 NA
ATOM     18  C   UNL     1      45.016   4.592  12.213  0.00  0.00    +0.000 A 
ATOM     19  N   UNL     1      45.604   3.681  13.002  0.00  0.00    +0.000 NA
BRANCH  14  21
ATOM     20  C   UNL     1      47.561   3.720  15.800  0.00  0.00    +0.000 C 
ATOM     21  O   UNL     1      47.362   3.199  14.487  0.00  0.00    +0.000 OA
ENDBRANCH  14  21
BRANCH  16  22
ATOM     22  O   UNL     1      47.057   7.474  12.565  0.00  0.00    +0.000 OA
ATOM     23  C   UNL     1      48.381   7.486  12.031  0.00  0.00    +0.000 C 
ENDBRANCH  16  22
ENDBRANCH  13  18
ENDBRANCH   1  13
TORSDOF 8
ENDMDL
MODEL 3
REMARK VINA RESULT:    -6.480      2.960      4.938
REMARK INTER + INTRA:         -10.163
REMARK INTER:                  -9.540
REMARK INTRA:                  -0.623
REMARK UNBOUND:                -0.842
REMARK  Name = 
REMARK  10 active torsions:
REMARK  status: ('A' for Active; 'I' for Inactive)
REMARK    1  A    between atoms: C_1  and  O_2
REMARK    2  A    between atoms: O_2  and  C_3
REMARK    3  A    between atoms: C_5  and  O_6
REMARK    4  A    between atoms: O_6  and  C_7
REMARK    5  A    between atoms: C_9  and  C_10
REMARK    6  A    between atoms: C_10  and  C_11
REMARK    7  A    between atoms: C_11  and  C_12
REMARK    8  A    between atoms: C_16  and  C_17
REMARK    9  A    between atoms: C_17  and  C_18
REMARK   10  A    between atoms: C_18  and  O_20
REMARK                            x       y       z     vdW  Elec       q    Type
REMARK                         _______ _______ _______ _____ _____    ______ ____
ROOT
ATOM      1  C   UNL     1      46.161   5.073  13.658  0.00  0.00    +0.000 C 
ENDROOT
BRANCH   1   2
ATOM      2  C   UNL     1      45.086   5.037  12.602  0.00  0.00    +0.000 A 
ATOM      3  C   UNL     1      43.788   5.458  12.888  0.00  0.00    +0.000 A 
ATOM      4  C   UNL     1      42.839   5.392  11.882  0.00  0.00    +0.000 A 
ATOM      5  N   UNL     1      43.093   4.939  10.634  0.00  0.00    +0.000 NA
ATOM      6  C   UNL     1      44.346   4.490  10.378  0.00  0.00    +0.000 A 
ATOM      7  C   UNL     1      45.363   4.532  11.329  0.00  0.00    +0.000 A 
BRANCH   6   8
ATOM      8  C   UNL     1      44.592   3.922   9.010  0.00  0.00    +0.000 C 
BRANCH   8   9
ATOM      9  C   UNL     1      44.827   2.436   9.029  0.00  0.00    +0.000 C 
ATOM     10  O   UNL     1      45.719   1.884   8.400  0.00  0.00    +0.000 OA
BRANCH   9  11
ATOM     11  O   UNL     1      43.976   1.752   9.829  0.00  0.00    +0.000 OA
ATOM     12  H   UNL     1      43.033   1.908   9.609  0.00  0.00    +0.000 HD
ENDBRANCH   9  11
ENDBRANCH   8   9
ENDBRANCH   6   8
ENDBRANCH   1   2
BRANCH   1  13
ATOM     13  C   UNL     1      46.853   3.718  13.783  0.00  0.00    +0.000 C 
BRANCH  13  18
ATOM     14  C   UNL     1      48.741   2.486  16.653  0.00  0.00    +0.000 A 
ATOM     15  C   UNL     1      48.231   3.191  17.713  0.00  0.00    +0.000 A 
ATOM     16  C   UNL     1      47.231   4.074  17.395  0.00  0.00    +0.000 A 
ATOM     17  N   UNL     1      46.764   4.257  16.149  0.00  0.00    +0.000 NA
ATOM     18  C   UNL     1      47.324   3.509  15.190  0.00  0.00    +0.000 A 
ATOM     19  N   UNL     1      48.312   2.624  15.386  0.00  0.00    +0.000 NA
BRANCH  14  21
ATOM     20  C   UNL     1      50.947   2.234  17.384  0.00  0.00    +0.000 C 
ATOM     21  O   UNL     1      49.758   1.591  16.926  0.00  0.00    +0.000 OA
ENDBRANCH  14  21
BRANCH  16  22
ATOM     22  O   UNL     1      46.689   4.813  18.429  0.00  0.00    +0.000 OA
ATOM     23  C   UNL     1      47.656   5.642  19.072  0.00  0.00    +0.000 C 
ENDBRANCH  16  22
ENDBRANCH  13  18
ENDBRANCH   1  13
TORSDOF 8
ENDMDL
MODEL 4
REMARK VINA RESULT:    -6.423      2.310      7.234
REMARK INTER + INTRA:         -10.081
REMARK INTER:                  -9.406
REMARK INTRA:                  -0.675
REMARK UNBOUND:                -0.842
REMARK  Name = 
REMARK  10 active torsions:
REMARK  status: ('A' for Active; 'I' for Inactive)
REMARK    1  A    between atoms: C_1  and  O_2
REMARK    2  A    between atoms: O_2  and  C_3
REMARK    3  A    between atoms: C_5  and  O_6
REMARK    4  A    between atoms: O_6  and  C_7
REMARK    5  A    between atoms: C_9  and  C_10
REMARK    6  A    between atoms: C_10  and  C_11
REMARK    7  A    between atoms: C_11  and  C_12
REMARK    8  A    between atoms: C_16  and  C_17
REMARK    9  A    between atoms: C_17  and  C_18
REMARK   10  A    between atoms: C_18  and  O_20
REMARK                            x       y       z     vdW  Elec       q    Type
REMARK                         _______ _______ _______ _____ _____    ______ ____
ROOT
ATOM      1  C   UNL     1      45.684   6.403  12.253  0.00  0.00    +0.000 C 
ENDROOT
BRANCH   1   2
ATOM      2  C   UNL     1      46.894   6.466  13.149  0.00  0.00    +0.000 A 
ATOM      3  C   UNL     1      48.015   7.212  12.788  0.00  0.00    +0.000 A 
ATOM      4  C   UNL     1      49.102   7.223  13.644  0.00  0.00    +0.000 A 
ATOM      5  N   UNL     1      49.147   6.549  14.816  0.00  0.00    +0.000 NA
ATOM      6  C   UNL     1      48.071   5.790  15.138  0.00  0.00    +0.000 A 
ATOM      7  C   UNL     1      46.932   5.732  14.338  0.00  0.00    +0.000 A 
BRANCH   6   8
ATOM      8  C   UNL     1      48.165   4.990  16.405  0.00  0.00    +0.000 C 
BRANCH   8   9
ATOM      9  C   UNL     1      47.656   3.584  16.246  0.00  0.00    +0.000 C 
ATOM     10  O   UNL     1      48.117   2.783  15.445  0.00  0.00    +0.000 OA
BRANCH   9  11
ATOM     11  O   UNL     1      46.647   3.261  17.090  0.00  0.00    +0.000 OA
ATOM     12  H   UNL     1      46.664   2.320  17.365  0.00  0.00    +0.000 HD
ENDBRANCH   9  11
ENDBRANCH   8   9
ENDBRANCH   6   8
ENDBRANCH   1   2
BRANCH   1  13
ATOM     13  C   UNL     1      46.086   6.481  10.783  0.00  0.00    +0.000 C 
BRANCH  13  18
ATOM     14  C   UNL     1      45.558   3.995   8.163  0.00  0.00    +0.000 A 
ATOM     15  C   UNL     1      44.740   3.063   8.749  0.00  0.00    +0.000 A 
ATOM     16  C   UNL     1      44.388   3.336  10.046  0.00  0.00    +0.000 A 
ATOM     17  N   UNL     1      44.795   4.425  10.718  0.00  0.00    +0.000 NA
ATOM     18  C   UNL     1      45.582   5.276  10.047  0.00  0.00    +0.000 A 
ATOM     19  N   UNL     1      45.995   5.105   8.783  0.00  0.00    +0.000 NA
BRANCH  14  21
ATOM     20  C   UNL     1      47.002   2.801   6.766  0.00  0.00    +0.000 C 
ATOM     21  O   UNL     1      45.947   3.757   6.858  0.00  0.00    +0.000 OA
ENDBRANCH  14  21
BRANCH  16  22
ATOM     22  O   UNL     1      43.569   2.422  10.682  0.00  0.00    +0.000 OA
ATOM     23  C   UNL     1      43.479   2.657  12.088  0.00  0.00    +0.000 C 
ENDBRANCH  16  22
ENDBRANCH  13  18
ENDBRANCH   1  13
TORSDOF 8
ENDMDL
MODEL 5
REMARK VINA RESULT:    -6.323      2.684      4.483
REMARK INTER + INTRA:          -9.938
REMARK INTER:                  -9.209
REMARK INTRA:                  -0.729
REMARK UNBOUND:                -0.842
REMARK  Name = 
REMARK  10 active torsions:
REMARK  status: ('A' for Active; 'I' for Inactive)
REMARK    1  A    between atoms: C_1  and  O_2
REMARK    2  A    between atoms: O_2  and  C_3
REMARK    3  A    between atoms: C_5  and  O_6
REMARK    4  A    between atoms: O_6  and  C_7
REMARK    5  A    between atoms: C_9  and  C_10
REMARK    6  A    between atoms: C_10  and  C_11
REMARK    7  A    between atoms: C_11  and  C_12
REMARK    8  A    between atoms: C_16  and  C_17
REMARK    9  A    between atoms: C_17  and  C_18
REMARK   10  A    between atoms: C_18  and  O_20
REMARK                            x       y       z     vdW  Elec       q    Type
REMARK                         _______ _______ _______ _____ _____    ______ ____
ROOT
ATOM      1  C   UNL     1      45.867   4.875  13.800  0.00  0.00    +0.000 C 
ENDROOT
BRANCH   1   2
ATOM      2  C   UNL     1      44.961   4.854  12.596  0.00  0.00    +0.000 A 
ATOM      3  C   UNL     1      43.832   5.671  12.535  0.00  0.00    +0.000 A 
ATOM      4  C   UNL     1      43.029   5.600  11.409  0.00  0.00    +0.000 A 
ATOM      5  N   UNL     1      43.271   4.782  10.361  0.00  0.00    +0.000 NA
ATOM      6  C   UNL     1      44.344   3.958  10.449  0.00  0.00    +0.000 A 
ATOM      7  C   UNL     1      45.210   3.974  11.539  0.00  0.00    +0.000 A 
BRANCH   6   8
ATOM      8  C   UNL     1      44.556   3.004   9.309  0.00  0.00    +0.000 C 
BRANCH   8   9
ATOM      9  C   UNL     1      45.529   3.524   8.286  0.00  0.00    +0.000 C 
ATOM     10  O   UNL     1      46.268   2.806   7.627  0.00  0.00    +0.000 OA
BRANCH   9  11
ATOM     11  O   UNL     1      45.504   4.869   8.133  0.00  0.00    +0.000 OA
ATOM     12  H   UNL     1      46.126   5.335   8.731  0.00  0.00    +0.000 HD
ENDBRANCH   9  11
ENDBRANCH   8   9
ENDBRANCH   6   8
ENDBRANCH   1   2
BRANCH   1  13
ATOM     13  C   UNL     1      46.759   3.638  13.838  0.00  0.00    +0.000 C 
BRANCH  13  18
ATOM     14  C   UNL     1      47.520   4.139  17.372  0.00  0.00    +0.000 A 
ATOM     15  C   UNL     1      48.493   3.210  17.637  0.00  0.00    +0.000 A 
ATOM     16  C   UNL     1      48.864   2.438  16.566  0.00  0.00    +0.000 A 
ATOM     17  N   UNL     1      48.333   2.559  15.338  0.00  0.00    +0.000 NA
ATOM     18  C   UNL     1      47.399   3.505  15.186  0.00  0.00    +0.000 A 
ATOM     19  N   UNL     1      46.954   4.309  16.163  0.00  0.00    +0.000 NA
BRANCH  14  21
ATOM     20  C   UNL     1      48.170   5.246  19.325  0.00  0.00    +0.000 C 
ATOM     21  O   UNL     1      47.107   4.934  18.425  0.00  0.00    +0.000 OA
ENDBRANCH  14  21
BRANCH  16  22
ATOM     22  O   UNL     1      49.838   1.482  16.784  0.00  0.00    +0.000 OA
ATOM     23  C   UNL     1      51.035   2.038  17.329  0.00  0.00    +0.000 C 
ENDBRANCH  16  22
ENDBRANCH  13  18
ENDBRANCH   1  13
TORSDOF 8
ENDMDL
MODEL 6
REMARK VINA RESULT:    -6.311      2.421      3.580
REMARK INTER + INTRA:          -9.919
REMARK INTER:                  -9.164
REMARK INTRA:                  -0.755
REMARK UNBOUND:                -0.842
REMARK  Name = 
REMARK  10 active torsions:
REMARK  status: ('A' for Active; 'I' for Inactive)
REMARK    1  A    between atoms: C_1  and  O_2
REMARK    2  A    between atoms: O_2  and  C_3
REMARK    3  A    between atoms: C_5  and  O_6
REMARK    4  A    between atoms: O_6  and  C_7
REMARK    5  A    between atoms: C_9  and  C_10
REMARK    6  A    between atoms: C_10  and  C_11
REMARK    7  A    between atoms: C_11  and  C_12
REMARK    8  A    between atoms: C_16  and  C_17
REMARK    9  A    between atoms: C_17  and  C_18
REMARK   10  A    between atoms: C_18  and  O_20
REMARK                            x       y       z     vdW  Elec       q    Type
REMARK                         _______ _______ _______ _____ _____    ______ ____
ROOT
ATOM      1  C   UNL     1      45.440   6.041  12.842  0.00  0.00    +0.000 C 
ENDROOT
BRANCH   1   2
ATOM      2  C   UNL     1      44.793   4.975  11.996  0.00  0.00    +0.000 A 
ATOM      3  C   UNL     1      44.108   3.912  12.583  0.00  0.00    +0.000 A 
ATOM      4  C   UNL     1      43.544   2.957  11.756  0.00  0.00    +0.000 A 
ATOM      5  N   UNL     1      43.619   2.987  10.406  0.00  0.00    +0.000 NA
ATOM      6  C   UNL     1      44.326   3.999   9.846  0.00  0.00    +0.000 A 
ATOM      7  C   UNL     1      44.914   5.008  10.603  0.00  0.00    +0.000 A 
BRANCH   6   8
ATOM      8  C   UNL     1      44.462   3.978   8.350  0.00  0.00    +0.000 C 
BRANCH   8   9
ATOM      9  C   UNL     1      45.803   3.472   7.894  0.00  0.00    +0.000 C 
ATOM     10  O   UNL     1      46.595   4.143   7.248  0.00  0.00    +0.000 OA
BRANCH   9  11
ATOM     11  O   UNL     1      46.079   2.205   8.284  0.00  0.00    +0.000 OA
ATOM     12  H   UNL     1      45.402   1.835   8.889  0.00  0.00    +0.000 HD
ENDBRANCH   9  11
ENDBRANCH   8   9
ENDBRANCH   6   8
ENDBRANCH   1   2
BRANCH   1  13
ATOM     13  C   UNL     1      46.959   5.900  12.836  0.00  0.00    +0.000 C 
BRANCH  13  18
ATOM     14  C   UNL     1      48.846   6.081  15.955  0.00  0.00    +0.000 A 
ATOM     15  C   UNL     1      48.290   5.100  16.736  0.00  0.00    +0.000 A 
ATOM     16  C   UNL     1      47.274   4.395  16.145  0.00  0.00    +0.000 A 
ATOM     17  N   UNL     1      46.834   4.623  14.897  0.00  0.00    +0.000 NA
ATOM     18  C   UNL     1      47.454   5.595  14.217  0.00  0.00    +0.000 A 
ATOM     19  N   UNL     1      48.451   6.352  14.698  0.00  0.00    +0.000 NA
BRANCH  14  21
ATOM     20  C   UNL     1      50.231   6.367  17.816  0.00  0.00    +0.000 C 
ATOM     21  O   UNL     1      49.869   6.824  16.513  0.00  0.00    +0.000 OA
ENDBRANCH  14  21
BRANCH  16  22
ATOM     22  O   UNL     1      46.677   3.400  16.895  0.00  0.00    +0.000 OA
ATOM     23  C   UNL     1      47.596   2.757  17.778  0.00  0.00    +0.000 C 
ENDBRANCH  16  22
ENDBRANCH  13  18
ENDBRANCH   1  13
TORSDOF 8
ENDMDL
MODEL 7
REMARK VINA RESULT:    -6.265      2.740      4.526
REMARK INTER + INTRA:          -9.854
REMARK INTER:                  -9.000
REMARK INTRA:                  -0.854
REMARK UNBOUND:                -0.842
REMARK  Name = 
REMARK  10 active torsions:
REMARK  status: ('A' for Active; 'I' for Inactive)
REMARK    1  A    between atoms: C_1  and  O_2
REMARK    2  A    between atoms: O_2  and  C_3
REMARK    3  A    between atoms: C_5  and  O_6
REMARK    4  A    between atoms: O_6  and  C_7
REMARK    5  A    between atoms: C_9  and  C_10
REMARK    6  A    between atoms: C_10  and  C_11
REMARK    7  A    between atoms: C_11  and  C_12
REMARK    8  A    between atoms: C_16  and  C_17
REMARK    9  A    between atoms: C_17  and  C_18
REMARK   10  A    between atoms: C_18  and  O_20
REMARK                            x       y       z     vdW  Elec       q    Type
REMARK                         _______ _______ _______ _____ _____    ______ ____
ROOT
ATOM      1  C   UNL     1      46.119   6.704  12.738  0.00  0.00    +0.000 C 
ENDROOT
BRANCH   1   2
ATOM      2  C   UNL     1      45.067   5.851  12.078  0.00  0.00    +0.000 A 
ATOM      3  C   UNL     1      43.881   5.537  12.740  0.00  0.00    +0.000 A 
ATOM      4  C   UNL     1      42.955   4.740  12.089  0.00  0.00    +0.000 A 
ATOM      5  N   UNL     1      43.132   4.239  10.845  0.00  0.00    +0.000 NA
ATOM      6  C   UNL     1      44.308   4.511  10.227  0.00  0.00    +0.000 A 
ATOM      7  C   UNL     1      45.287   5.315  10.805  0.00  0.00    +0.000 A 
BRANCH   6   8
ATOM      8  C   UNL     1      44.519   3.888   8.877  0.00  0.00    +0.000 C 
BRANCH   8   9
ATOM      9  C   UNL     1      45.034   2.478   8.960  0.00  0.00    +0.000 C 
ATOM     10  O   UNL     1      46.004   2.073   8.336  0.00  0.00    +0.000 OA
BRANCH   9  11
ATOM     11  O   UNL     1      44.342   1.686   9.814  0.00  0.00    +0.000 OA
ATOM     12  H   UNL     1      44.667   1.744  10.738  0.00  0.00    +0.000 HD
ENDBRANCH   9  11
ENDBRANCH   8   9
ENDBRANCH   6   8
ENDBRANCH   1   2
BRANCH   1  13
ATOM     13  C   UNL     1      47.434   5.943  12.879  0.00  0.00    +0.000 C 
BRANCH  13  18
ATOM     14  C   UNL     1      47.342   4.474  16.219  0.00  0.00    +0.000 A 
ATOM     15  C   UNL     1      48.309   5.159  16.909  0.00  0.00    +0.000 A 
ATOM     16  C   UNL     1      48.962   6.124  16.187  0.00  0.00    +0.000 A 
ATOM     17  N   UNL     1      48.698   6.403  14.900  0.00  0.00    +0.000 NA
ATOM     18  C   UNL     1      47.726   5.683  14.325  0.00  0.00    +0.000 A 
ATOM     19  N   UNL     1      47.030   4.711  14.932  0.00  0.00    +0.000 NA
BRANCH  14  21
ATOM     20  C   UNL     1      47.519   2.718  17.751  0.00  0.00    +0.000 C 
ATOM     21  O   UNL     1      46.663   3.484  16.905  0.00  0.00    +0.000 OA
ENDBRANCH  14  21
BRANCH  16  22
ATOM     22  O   UNL     1      49.951   6.837  16.838  0.00  0.00    +0.000 OA
ATOM     23  C   UNL     1      51.048   7.155  15.981  0.00  0.00    +0.000 C 
ENDBRANCH  16  22
ENDBRANCH  13  18
ENDBRANCH   1  13
TORSDOF 8
ENDMDL
MODEL 8
REMARK VINA RESULT:    -5.875      2.250      2.650
REMARK INTER + INTRA:          -9.294
REMARK INTER:                  -8.457
REMARK INTRA:                  -0.837
REMARK UNBOUND:                -0.842
REMARK  Name = 
REMARK  10 active torsions:
REMARK  status: ('A' for Active; 'I' for Inactive)
REMARK    1  A    between atoms: C_1  and  O_2
REMARK    2  A    between atoms: O_2  and  C_3
REMARK    3  A    between atoms: C_5  and  O_6
REMARK    4  A    between atoms: O_6  and  C_7
REMARK    5  A    between atoms: C_9  and  C_10
REMARK    6  A    between atoms: C_10  and  C_11
REMARK    7  A    between atoms: C_11  and  C_12
REMARK    8  A    between atoms: C_16  and  C_17
REMARK    9  A    between atoms: C_17  and  C_18
REMARK   10  A    between atoms: C_18  and  O_20
REMARK                            x       y       z     vdW  Elec       q    Type
REMARK                         _______ _______ _______ _____ _____    ______ ____
ROOT
ATOM      1  C   UNL     1      45.640   6.202  10.738  0.00  0.00    +0.000 C 
ENDROOT
BRANCH   1   2
ATOM      2  C   UNL     1      45.309   4.909  10.039  0.00  0.00    +0.000 A 
ATOM      3  C   UNL     1      44.463   3.972  10.631  0.00  0.00    +0.000 A 
ATOM      4  C   UNL     1      44.203   2.797   9.947  0.00  0.00    +0.000 A 
ATOM      5  N   UNL     1      44.724   2.497   8.736  0.00  0.00    +0.000 NA
ATOM      6  C   UNL     1      45.581   3.393   8.189  0.00  0.00    +0.000 A 
ATOM      7  C   UNL     1      45.887   4.605   8.803  0.00  0.00    +0.000 A 
BRANCH   6   8
ATOM      8  C   UNL     1      46.208   3.013   6.878  0.00  0.00    +0.000 C 
BRANCH   8   9
ATOM      9  C   UNL     1      47.334   2.029   7.035  0.00  0.00    +0.000 C 
ATOM     10  O   UNL     1      48.476   2.240   6.651  0.00  0.00    +0.000 OA
BRANCH   9  11
ATOM     11  O   UNL     1      46.985   0.883   7.667  0.00  0.00    +0.000 OA
ATOM     12  H   UNL     1      46.690   1.030   8.591  0.00  0.00    +0.000 HD
ENDBRANCH   9  11
ENDBRANCH   8   9
ENDBRANCH   6   8
ENDBRANCH   1   2
BRANCH   1  13
ATOM     13  C   UNL     1      45.738   6.001  12.247  0.00  0.00    +0.000 C 
BRANCH  13  18
ATOM     14  C   UNL     1      48.977   7.670  12.442  0.00  0.00    +0.000 A 
ATOM     15  C   UNL     1      49.476   7.287  13.661  0.00  0.00    +0.000 A 
ATOM     16  C   UNL     1      48.666   6.444  14.379  0.00  0.00    +0.000 A 
ATOM     17  N   UNL     1      47.470   6.010  13.948  0.00  0.00    +0.000 NA
ATOM     18  C   UNL     1      47.085   6.436  12.739  0.00  0.00    +0.000 A 
ATOM     19  N   UNL     1      47.790   7.266  11.957  0.00  0.00    +0.000 NA
BRANCH  14  21
ATOM     20  C   UNL     1      50.909   7.884  11.144  0.00  0.00    +0.000 C 
ATOM     21  O   UNL     1      49.757   8.527  11.687  0.00  0.00    +0.000 OA
ENDBRANCH  14  21
BRANCH  16  22
ATOM     22  O   UNL     1      49.122   6.035  15.618  0.00  0.00    +0.000 OA
ATOM     23  C   UNL     1      48.144   5.285  16.338  0.00  0.00    +0.000 C 
ENDBRANCH  16  22
ENDBRANCH  13  18
ENDBRANCH   1  13
TORSDOF 8
ENDMDL
MODEL 9
REMARK VINA RESULT:    -5.868      3.757      5.725
REMARK INTER + INTRA:          -9.283
REMARK INTER:                  -8.787
REMARK INTRA:                  -0.496
REMARK UNBOUND:                -0.842
REMARK  Name = 
REMARK  10 active torsions:
REMARK  status: ('A' for Active; 'I' for Inactive)
REMARK    1  A    between atoms: C_1  and  O_2
REMARK    2  A    between atoms: O_2  and  C_3
REMARK    3  A    between atoms: C_5  and  O_6
REMARK    4  A    between atoms: O_6  and  C_7
REMARK    5  A    between atoms: C_9  and  C_10
REMARK    6  A    between atoms: C_10  and  C_11
REMARK    7  A    between atoms: C_11  and  C_12
REMARK    8  A    between atoms: C_16  and  C_17
REMARK    9  A    between atoms: C_17  and  C_18
REMARK   10  A    between atoms: C_18  and  O_20
REMARK                            x       y       z     vdW  Elec       q    Type
REMARK                         _______ _______ _______ _____ _____    ______ ____
ROOT
ATOM      1  C   UNL     1      47.145   5.366  14.127  0.00  0.00    +0.000 C 
ENDROOT
BRANCH   1   2
ATOM      2  C   UNL     1      46.138   5.814  13.099  0.00  0.00    +0.000 A 
ATOM      3  C   UNL     1      46.090   7.141  12.674  0.00  0.00    +0.000 A 
ATOM      4  C   UNL     1      45.136   7.497  11.736  0.00  0.00    +0.000 A 
ATOM      5  N   UNL     1      44.240   6.635  11.207  0.00  0.00    +0.000 NA
ATOM      6  C   UNL     1      44.264   5.357  11.659  0.00  0.00    +0.000 A 
ATOM      7  C   UNL     1      45.198   4.913  12.592  0.00  0.00    +0.000 A 
BRANCH   6   8
ATOM      8  C   UNL     1      43.215   4.430  11.116  0.00  0.00    +0.000 C 
BRANCH   8   9
ATOM      9  C   UNL     1      43.734   3.039  10.877  0.00  0.00    +0.000 C 
ATOM     10  O   UNL     1      44.611   2.773  10.067  0.00  0.00    +0.000 OA
BRANCH   9  11
ATOM     11  O   UNL     1      43.164   2.093  11.660  0.00  0.00    +0.000 OA
ATOM     12  H   UNL     1      43.020   1.243  11.192  0.00  0.00    +0.000 HD
ENDBRANCH   9  11
ENDBRANCH   8   9
ENDBRANCH   6   8
ENDBRANCH   1   2
BRANCH   1  13
ATOM     13  C   UNL     1      46.660   4.122  14.865  0.00  0.00    +0.000 C 
BRANCH  13  18
ATOM     14  C   UNL     1      48.380   4.109  18.084  0.00  0.00    +0.000 A 
ATOM     15  C   UNL     1      49.283   3.082  17.974  0.00  0.00    +0.000 A 
ATOM     16  C   UNL     1      49.271   2.427  16.769  0.00  0.00    +0.000 A 
ATOM     17  N   UNL     1      48.450   2.743  15.755  0.00  0.00    +0.000 NA
ATOM     18  C   UNL     1      47.616   3.770  15.964  0.00  0.00    +0.000 A 
ATOM     19  N   UNL     1      47.536   4.474  17.103  0.00  0.00    +0.000 NA
BRANCH  14  21
ATOM     20  C   UNL     1      49.633   5.288  19.666  0.00  0.00    +0.000 C 
ATOM     21  O   UNL     1      48.350   4.792  19.286  0.00  0.00    +0.000 OA
ENDBRANCH  14  21
BRANCH  16  22
ATOM     22  O   UNL     1      50.158   1.380  16.612  0.00  0.00    +0.000 OA
ATOM     23  C   UNL     1      51.340   1.544  17.397  0.00  0.00    +0.000 C 
ENDBRANCH  16  22
ENDBRANCH  13  18
ENDBRANCH   1  13
TORSDOF 8
ENDMDL
