MODEL 1
REMARK VINA RESULT:    -6.984      0.000      0.000
REMARK INTER + INTRA:         -10.318
REMARK INTER:                  -9.434
REMARK INTRA:                  -0.883
REMARK UNBOUND:                -0.883
REMARK  Name = 
REMARK  11 active torsions:
REMARK  status: ('A' for Active; 'I' for Inactive)
REMARK    1  A    between atoms: C_1  and  C_2
REMARK    2  A    between atoms: C_5  and  O_6
REMARK    3  A    between atoms: O_6  and  C_7
REMARK    4  A    between atoms: C_7  and  C_8
REMARK    5  A    between atoms: C_8  and  C_11
REMARK    6  A    between atoms: N_16  and  C_17
REMARK    7  A    between atoms: C_20  and  C_21
REMARK    8  A    between atoms: C_20  and  C_22
REMARK    9  A    between atoms: C_26  and  C_27
REMARK   10  A    between atoms: N_29  and  C_30
REMARK   11  A    between atoms: N_29  and  C_31
REMARK                            x       y       z     vdW  Elec       q    Type
REMARK                         _______ _______ _______ _____ _____    ______ ____
ROOT
ATOM      1  C   UNL     1      45.779   5.190  12.965  0.00  0.00    +0.000 C 
ATOM      2  F   UNL     1      45.614   4.392  11.867  0.00  0.00    +0.000 F 
ATOM      3  F   UNL     1      44.697   4.932  13.762  0.00  0.00    +0.000 F 
ENDROOT
BRANCH   1   4
ATOM      4  C   UNL     1      45.828   6.661  12.576  0.00  0.00    +0.000 A 
ATOM      5  C   UNL     1      46.851   7.511  12.975  0.00  0.00    +0.000 A 
ATOM      6  C   UNL     1      46.799   8.843  12.588  0.00  0.00    +0.000 A 
ATOM      7  N   UNL     1      45.794   9.388  11.840  0.00  0.00    +0.000 NA
ATOM      8  C   UNL     1      44.818   8.564  11.412  0.00  0.00    +0.000 A 
ATOM      9  N   UNL     1      43.761   9.018  10.620  0.00  0.00    +0.000 N 
ATOM     10  C   UNL     1      44.815   7.206  11.757  0.00  0.00    +0.000 A 
ATOM     11  H   UNL     1      43.756   8.543   9.721  0.00  0.00    +0.000 HD
BRANCH   9  12
ATOM     12  C   UNL     1      43.458  10.449  10.550  0.00  0.00    +0.000 C 
ATOM     13  C   UNL     1      42.755  10.907   9.279  0.00  0.00    +0.000 C 
ATOM     14  O   UNL     1      41.404  11.296   9.584  0.00  0.00    +0.000 OA
ATOM     15  C   UNL     1      41.151  11.156  10.987  0.00  0.00    +0.000 C 
ATOM     16  C   UNL     1      40.060  10.091  11.147  0.00  0.00    +0.000 C 
ATOM     17  C   UNL     1      40.625  12.488  11.537  0.00  0.00    +0.000 C 
ATOM     18  C   UNL     1      42.471  10.781  11.661  0.00  0.00    +0.000 C 
ENDBRANCH   9  12
ENDBRANCH   1   4
BRANCH   1  19
ATOM     19  C   UNL     1      47.053   4.745  13.710  0.00  0.00    +0.000 C 
BRANCH  19  20
ATOM     20  O   UNL     1      46.865   3.493  14.416  0.00  0.00    +0.000 OA
BRANCH  20  25
ATOM     21  C   UNL     1      48.813   4.101  19.665  0.00  0.00    +0.000 C 
ATOM     22  C   UNL     1      48.398   3.761  18.268  0.00  0.00    +0.000 A 
ATOM     23  C   UNL     1      47.164   4.290  17.866  0.00  0.00    +0.000 A 
ATOM     24  N   UNL     1      46.627   4.204  16.636  0.00  0.00    +0.000 NA
ATOM     25  C   UNL     1      47.339   3.539  15.713  0.00  0.00    +0.000 A 
ATOM     26  C   UNL     1      48.551   2.924  16.008  0.00  0.00    +0.000 A 
ATOM     27  C   UNL     1      49.108   3.014  17.311  0.00  0.00    +0.000 A 
BRANCH  27  28
ATOM     28  C   UNL     1      50.496   2.434  17.395  0.00  0.00    +0.000 C 
ATOM     29  O   UNL     1      50.542   1.198  17.292  0.00  0.00    +0.000 OA
ATOM     30  N   UNL     1      51.680   3.142  17.645  0.00  0.00    +0.000 N 
ATOM     31  C   UNL     1      51.861   4.575  17.719  0.00  0.00    +0.000 C 
ATOM     32  C   UNL     1      52.916   2.379  17.826  0.00  0.00    +0.000 C 
ENDBRANCH  27  28
ENDBRANCH  20  25
ENDBRANCH  19  20
ENDBRANCH   1  19
TORSDOF 6
ENDMDL
MODEL 2
REMARK VINA RESULT:    -6.904      4.376      7.039
REMARK INTER + INTRA:         -10.209
REMARK INTER:                  -8.654
REMARK INTRA:                  -1.555
REMARK UNBOUND:                -0.883
REMARK  Name = 
REMARK  11 active torsions:
REMARK  status: ('A' for Active; 'I' for Inactive)
REMARK    1  A    between atoms: C_1  and  C_2
REMARK    2  A    between atoms: C_5  and  O_6
REMARK    3  A    between atoms: O_6  and  C_7
REMARK    4  A    between atoms: C_7  and  C_8
REMARK    5  A    between atoms: C_8  and  C_11
REMARK    6  A    between atoms: N_16  and  C_17
REMARK    7  A    between atoms: C_20  and  C_21
REMARK    8  A    between atoms: C_20  and  C_22
REMARK    9  A    between atoms: C_26  and  C_27
REMARK   10  A    between atoms: N_29  and  C_30
REMARK   11  A    between atoms: N_29  and  C_31
REMARK                            x       y       z     vdW  Elec       q    Type
REMARK                         _______ _______ _______ _____ _____    ______ ____
ROOT
ATOM      1  C   UNL     1      48.472   4.685  19.436  0.00  0.00    +0.000 C 
ATOM      2  F   UNL     1      48.472   3.758  20.441  0.00  0.00    +0.000 F 
ATOM      3  F   UNL     1      47.397   5.491  19.692  0.00  0.00    +0.000 F 
ENDROOT
BRANCH   1   4
ATOM      4  C   UNL     1      48.339   4.020  18.072  0.00  0.00    +0.000 A 
ATOM      5  C   UNL     1      49.039   2.873  17.723  0.00  0.00    +0.000 A 
ATOM      6  C   UNL     1      48.867   2.351  16.449  0.00  0.00    +0.000 A 
ATOM      7  N   UNL     1      48.056   2.898  15.496  0.00  0.00    +0.000 NA
ATOM      8  C   UNL     1      47.341   3.988  15.836  0.00  0.00    +0.000 A 
ATOM      9  N   UNL     1      46.463   4.606  14.943  0.00  0.00    +0.000 N 
ATOM     10  C   UNL     1      47.457   4.560  17.110  0.00  0.00    +0.000 A 
ATOM     11  H   UNL     1      45.513   4.587  15.301  0.00  0.00    +0.000 HD
BRANCH   9  12
ATOM     12  C   UNL     1      46.574   4.345  13.506  0.00  0.00    +0.000 C 
ATOM     13  C   UNL     1      45.860   3.093  13.013  0.00  0.00    +0.000 C 
ATOM     14  O   UNL     1      44.732   3.465  12.200  0.00  0.00    +0.000 OA
ATOM     15  C   UNL     1      44.648   4.891  12.089  0.00  0.00    +0.000 C 
ATOM     16  C   UNL     1      43.333   5.322  12.748  0.00  0.00    +0.000 C 
ATOM     17  C   UNL     1      44.607   5.276  10.604  0.00  0.00    +0.000 C 
ATOM     18  C   UNL     1      45.887   5.482  12.762  0.00  0.00    +0.000 C 
ENDBRANCH   9  12
ENDBRANCH   1   4
BRANCH   1  19
ATOM     19  C   UNL     1      49.756   5.530  19.545  0.00  0.00    +0.000 C 
BRANCH  19  20
ATOM     20  O   UNL     1      49.582   6.863  19.001  0.00  0.00    +0.000 OA
BRANCH  20  25
ATOM     21  C   UNL     1      52.737   8.090  14.500  0.00  0.00    +0.000 C 
ATOM     22  C   UNL     1      51.778   7.660  15.565  0.00  0.00    +0.000 A 
ATOM     23  C   UNL     1      52.329   7.527  16.847  0.00  0.00    +0.000 A 
ATOM     24  N   UNL     1      51.653   7.248  17.977  0.00  0.00    +0.000 NA
ATOM     25  C   UNL     1      50.329   7.072  17.857  0.00  0.00    +0.000 A 
ATOM     26  C   UNL     1      49.677   7.125  16.630  0.00  0.00    +0.000 A 
ATOM     27  C   UNL     1      50.398   7.413  15.442  0.00  0.00    +0.000 A 
BRANCH  27  28
ATOM     28  C   UNL     1      49.504   7.593  14.243  0.00  0.00    +0.000 C 
ATOM     29  O   UNL     1      49.219   6.540  13.653  0.00  0.00    +0.000 OA
ATOM     30  N   UNL     1      49.048   8.813  13.721  0.00  0.00    +0.000 N 
ATOM     31  C   UNL     1      49.195  10.134  14.289  0.00  0.00    +0.000 C 
ATOM     32  C   UNL     1      48.296   8.788  12.465  0.00  0.00    +0.000 C 
ENDBRANCH  27  28
ENDBRANCH  20  25
ENDBRANCH  19  20
ENDBRANCH   1  19
TORSDOF 6
ENDMDL
MODEL 3
REMARK VINA RESULT:    -6.864      3.990      7.894
REMARK INTER + INTRA:         -10.155
REMARK INTER:                  -8.767
REMARK INTRA:                  -1.388
REMARK UNBOUND:                -0.883
REMARK  Name = 
REMARK  11 active torsions:
REMARK  status: ('A' for Active; 'I' for Inactive)
REMARK    1  A    between atoms: C_1  and  C_2
REMARK    2  A    between atoms: C_5  and  O_6
REMARK    3  A    between atoms: O_6  and  C_7
REMARK    4  A    between atoms: C_7  and  C_8
REMARK    5  A    between atoms: C_8  and  C_11
REMARK    6  A    between atoms: N_16  and  C_17
REMARK    7  A    between atoms: C_20  and  C_21
REMARK    8  A    between atoms: C_20  and  C_22
REMARK    9  A    between atoms: C_26  and  C_27
REMARK   10  A    between atoms: N_29  and  C_30
REMARK   11  A    between atoms: N_29  and  C_31
REMARK                            x       y       z     vdW  Elec       q    Type
REMARK                         _______ _______ _______ _____ _____    ______ ____
ROOT
ATOM      1  C   UNL     1      48.527   3.344  17.138  0.00  0.00    +0.000 C 
ATOM      2  F   UNL     1      48.071   2.899  18.348  0.00  0.00    +0.000 F 
ATOM      3  F   UNL     1      49.325   2.339  16.664  0.00  0.00    +0.000 F 
ENDROOT
BRANCH   1   4
ATOM      4  C   UNL     1      49.316   4.638  17.286  0.00  0.00    +0.000 A 
ATOM      5  C   UNL     1      50.689   4.662  17.489  0.00  0.00    +0.000 A 
ATOM      6  C   UNL     1      51.318   5.890  17.634  0.00  0.00    +0.000 A 
ATOM      7  N   UNL     1      50.674   7.094  17.601  0.00  0.00    +0.000 NA
ATOM      8  C   UNL     1      49.348   7.085  17.365  0.00  0.00    +0.000 A 
ATOM      9  N   UNL     1      48.602   8.263  17.285  0.00  0.00    +0.000 N 
ATOM     10  C   UNL     1      48.652   5.881  17.197  0.00  0.00    +0.000 A 
ATOM     11  H   UNL     1      48.177   8.358  16.368  0.00  0.00    +0.000 HD
BRANCH   9  12
ATOM     12  C   UNL     1      49.139   9.510  17.837  0.00  0.00    +0.000 C 
ATOM     13  C   UNL     1      48.448  10.783  17.366  0.00  0.00    +0.000 C 
ATOM     14  O   UNL     1      47.719  11.373  18.456  0.00  0.00    +0.000 OA
ATOM     15  C   UNL     1      47.890  10.595  19.647  0.00  0.00    +0.000 C 
ATOM     16  C   UNL     1      46.511  10.049  20.036  0.00  0.00    +0.000 C 
ATOM     17  C   UNL     1      48.396  11.506  20.772  0.00  0.00    +0.000 C 
ATOM     18  C   UNL     1      48.913   9.500  19.342  0.00  0.00    +0.000 C 
ENDBRANCH   9  12
ENDBRANCH   1   4
BRANCH   1  19
ATOM     19  C   UNL     1      47.325   3.504  16.187  0.00  0.00    +0.000 C 
BRANCH  19  20
ATOM     20  O   UNL     1      47.635   3.081  14.835  0.00  0.00    +0.000 OA
BRANCH  20  25
ATOM     21  C   UNL     1      44.971   5.759  10.659  0.00  0.00    +0.000 C 
ATOM     22  C   UNL     1      45.709   5.234  11.850  0.00  0.00    +0.000 A 
ATOM     23  C   UNL     1      45.355   3.938  12.249  0.00  0.00    +0.000 A 
ATOM     24  N   UNL     1      45.940   3.220  13.224  0.00  0.00    +0.000 NA
ATOM     25  C   UNL     1      46.951   3.809  13.881  0.00  0.00    +0.000 A 
ATOM     26  C   UNL     1      47.357   5.111  13.611  0.00  0.00    +0.000 A 
ATOM     27  C   UNL     1      46.729   5.865  12.585  0.00  0.00    +0.000 A 
BRANCH  27  28
ATOM     28  C   UNL     1      47.410   7.184  12.328  0.00  0.00    +0.000 C 
ATOM     29  O   UNL     1      48.601   7.091  11.995  0.00  0.00    +0.000 OA
ATOM     30  N   UNL     1      46.847   8.458  12.500  0.00  0.00    +0.000 N 
ATOM     31  C   UNL     1      45.473   8.791  12.802  0.00  0.00    +0.000 C 
ATOM     32  C   UNL     1      47.715   9.624  12.328  0.00  0.00    +0.000 C 
ENDBRANCH  27  28
ENDBRANCH  20  25
ENDBRANCH  19  20
ENDBRANCH   1  19
TORSDOF 6
ENDMDL
MODEL 4
REMARK VINA RESULT:    -6.818      1.951      2.529
REMARK INTER + INTRA:         -10.093
REMARK INTER:                  -8.914
REMARK INTRA:                  -1.179
REMARK UNBOUND:                -0.883
REMARK  Name = 
REMARK  11 active torsions:
REMARK  status: ('A' for Active; 'I' for Inactive)
REMARK    1  A    between atoms: C_1  and  C_2
REMARK    2  A    between atoms: C_5  and  O_6
REMARK    3  A    between atoms: O_6  and  C_7
REMARK    4  A    between atoms: C_7  and  C_8
REMARK    5  A    between atoms: C_8  and  C_11
REMARK    6  A    between atoms: N_16  and  C_17
REMARK    7  A    between atoms: C_20  and  C_21
REMARK    8  A    between atoms: C_20  and  C_22
REMARK    9  A    between atoms: C_26  and  C_27
REMARK   10  A    between atoms: N_29  and  C_30
REMARK   11  A    between atoms: N_29  and  C_31
REMARK                            x       y       z     vdW  Elec       q    Type
REMARK                         _______ _______ _______ _____ _____    ______ ____
ROOT
ATOM      1  C   UNL     1      45.678   5.294  12.912  0.00  0.00    +0.000 C 
ATOM      2  F   UNL     1      45.604   4.497  11.803  0.00  0.00    +0.000 F 
ATOM      3  F   UNL     1      44.543   5.021  13.626  0.00  0.00    +0.000 F 
ENDROOT
BRANCH   1   4
ATOM      4  C   UNL     1      45.738   6.767  12.530  0.00  0.00    +0.000 A 
ATOM      5  C   UNL     1      46.758   7.611  12.948  0.00  0.00    +0.000 A 
ATOM      6  C   UNL     1      46.715   8.945  12.567  0.00  0.00    +0.000 A 
ATOM      7  N   UNL     1      45.724   9.497  11.806  0.00  0.00    +0.000 NA
ATOM      8  C   UNL     1      44.751   8.679  11.361  0.00  0.00    +0.000 A 
ATOM      9  N   UNL     1      43.708   9.140  10.556  0.00  0.00    +0.000 N 
ATOM     10  C   UNL     1      44.739   7.319  11.699  0.00  0.00    +0.000 A 
ATOM     11  H   UNL     1      43.714   8.670   9.655  0.00  0.00    +0.000 HD
BRANCH   9  12
ATOM     12  C   UNL     1      43.411  10.573  10.488  0.00  0.00    +0.000 C 
ATOM     13  C   UNL     1      42.753  11.044   9.198  0.00  0.00    +0.000 C 
ATOM     14  O   UNL     1      41.393  11.434   9.459  0.00  0.00    +0.000 OA
ATOM     15  C   UNL     1      41.091  11.282  10.851  0.00  0.00    +0.000 C 
ATOM     16  C   UNL     1      39.993  10.218  10.964  0.00  0.00    +0.000 C 
ATOM     17  C   UNL     1      40.550  12.611  11.394  0.00  0.00    +0.000 C 
ATOM     18  C   UNL     1      42.386  10.897  11.567  0.00  0.00    +0.000 C 
ENDBRANCH   9  12
ENDBRANCH   1   4
BRANCH   1  19
ATOM     19  C   UNL     1      46.898   4.863  13.747  0.00  0.00    +0.000 C 
BRANCH  19  20
ATOM     20  O   UNL     1      46.543   3.917  14.788  0.00  0.00    +0.000 OA
BRANCH  20  25
ATOM     21  C   UNL     1      49.155   4.650  19.723  0.00  0.00    +0.000 C 
ATOM     22  C   UNL     1      48.609   4.575  18.332  0.00  0.00    +0.000 A 
ATOM     23  C   UNL     1      47.906   3.401  18.029  0.00  0.00    +0.000 A 
ATOM     24  N   UNL     1      47.245   3.144  16.885  0.00  0.00    +0.000 NA
ATOM     25  C   UNL     1      47.274   4.102  15.946  0.00  0.00    +0.000 A 
ATOM     26  C   UNL     1      47.983   5.287  16.111  0.00  0.00    +0.000 A 
ATOM     27  C   UNL     1      48.683   5.547  17.318  0.00  0.00    +0.000 A 
BRANCH  27  28
ATOM     28  C   UNL     1      49.248   6.942  17.377  0.00  0.00    +0.000 C 
ATOM     29  O   UNL     1      50.275   7.109  16.703  0.00  0.00    +0.000 OA
ATOM     30  N   UNL     1      48.768   8.002  18.161  0.00  0.00    +0.000 N 
ATOM     31  C   UNL     1      47.557   8.047  18.950  0.00  0.00    +0.000 C 
ATOM     32  C   UNL     1      49.537   9.247  18.185  0.00  0.00    +0.000 C 
ENDBRANCH  27  28
ENDBRANCH  20  25
ENDBRANCH  19  20
ENDBRANCH   1  19
TORSDOF 6
ENDMDL
MODEL 5
REMARK VINA RESULT:    -6.691      3.751      5.527
REMARK INTER + INTRA:          -9.921
REMARK INTER:                  -8.367
REMARK INTRA:                  -1.554
REMARK UNBOUND:                -0.883
REMARK  Name = 
REMARK  11 active torsions:
REMARK  status: ('A' for Active; 'I' for Inactive)
REMARK    1  A    between atoms: C_1  and  C_2
REMARK    2  A    between atoms: C_5  and  O_6
REMARK    3  A    between atoms: O_6  and  C_7
REMARK    4  A    between atoms: C_7  and  C_8
REMARK    5  A    between atoms: C_8  and  C_11
REMARK    6  A    between atoms: N_16  and  C_17
REMARK    7  A    between atoms: C_20  and  C_21
REMARK    8  A    between atoms: C_20  and  C_22
REMARK    9  A    between atoms: C_26  and  C_27
REMARK   10  A    between atoms: N_29  and  C_30
REMARK   11  A    between atoms: N_29  and  C_31
REMARK                            x       y       z     vdW  Elec       q    Type
REMARK                         _______ _______ _______ _____ _____    ______ ____
ROOT
ATOM      1  C   UNL     1      50.045   8.950  11.852  0.00  0.00    +0.000 C 
ATOM      2  F   UNL     1      50.186   9.890  10.868  0.00  0.00    +0.000 F 
ATOM      3  F   UNL     1      50.694   7.841  11.384  0.00  0.00    +0.000 F 
ENDROOT
BRANCH   1   4
ATOM      4  C   UNL     1      48.576   8.647  12.118  0.00  0.00    +0.000 A 
ATOM      5  C   UNL     1      47.718   9.558  12.720  0.00  0.00    +0.000 A 
ATOM      6  C   UNL     1      46.400   9.183  12.941  0.00  0.00    +0.000 A 
ATOM      7  N   UNL     1      45.881   7.963  12.614  0.00  0.00    +0.000 NA
ATOM      8  C   UNL     1      46.694   7.087  11.993  0.00  0.00    +0.000 A 
ATOM      9  N   UNL     1      46.252   5.823  11.592  0.00  0.00    +0.000 N 
ATOM     10  C   UNL     1      48.033   7.404  11.728  0.00  0.00    +0.000 A 
ATOM     11  H   UNL     1      46.329   5.718  10.585  0.00  0.00    +0.000 HD
BRANCH   9  12
ATOM     12  C   UNL     1      45.032   5.256  12.170  0.00  0.00    +0.000 C 
ATOM     13  C   UNL     1      43.751   5.538  11.396  0.00  0.00    +0.000 C 
ATOM     14  O   UNL     1      43.262   4.322  10.804  0.00  0.00    +0.000 OA
ATOM     15  C   UNL     1      44.116   3.224  11.147  0.00  0.00    +0.000 C 
ATOM     16  C   UNL     1      44.730   2.701   9.842  0.00  0.00    +0.000 C 
ATOM     17  C   UNL     1      43.270   2.109  11.777  0.00  0.00    +0.000 C 
ATOM     18  C   UNL     1      45.155   3.738  12.144  0.00  0.00    +0.000 C 
ENDBRANCH   9  12
ENDBRANCH   1   4
BRANCH   1  19
ATOM     19  C   UNL     1      50.772   9.447  13.116  0.00  0.00    +0.000 C 
BRANCH  19  20
ATOM     20  O   UNL     1      51.197   8.354  13.968  0.00  0.00    +0.000 OA
BRANCH  20  25
ATOM     21  C   UNL     1      48.059   7.568  18.578  0.00  0.00    +0.000 C 
ATOM     22  C   UNL     1      48.762   7.648  17.259  0.00  0.00    +0.000 A 
ATOM     23  C   UNL     1      49.438   8.852  17.015  0.00  0.00    +0.000 A 
ATOM     24  N   UNL     1      50.216   9.123  15.952  0.00  0.00    +0.000 NA
ATOM     25  C   UNL     1      50.345   8.151  15.037  0.00  0.00    +0.000 A 
ATOM     26  C   UNL     1      49.679   6.934  15.143  0.00  0.00    +0.000 A 
ATOM     27  C   UNL     1      48.855   6.658  16.265  0.00  0.00    +0.000 A 
BRANCH  27  28
ATOM     28  C   UNL     1      48.354   5.237  16.288  0.00  0.00    +0.000 C 
ATOM     29  O   UNL     1      47.445   5.001  15.479  0.00  0.00    +0.000 OA
ATOM     30  N   UNL     1      48.767   4.224  17.166  0.00  0.00    +0.000 N 
ATOM     31  C   UNL     1      49.851   4.262  18.122  0.00  0.00    +0.000 C 
ATOM     32  C   UNL     1      48.062   2.942  17.120  0.00  0.00    +0.000 C 
ENDBRANCH  27  28
ENDBRANCH  20  25
ENDBRANCH  19  20
ENDBRANCH   1  19
TORSDOF 6
ENDMDL
MODEL 6
REMARK VINA RESULT:    -6.639      4.428      7.372
REMARK INTER + INTRA:          -9.851
REMARK INTER:                  -8.481
REMARK INTRA:                  -1.370
REMARK UNBOUND:                -0.883
REMARK  Name = 
REMARK  11 active torsions:
REMARK  status: ('A' for Active; 'I' for Inactive)
REMARK    1  A    between atoms: C_1  and  C_2
REMARK    2  A    between atoms: C_5  and  O_6
REMARK    3  A    between atoms: O_6  and  C_7
REMARK    4  A    between atoms: C_7  and  C_8
REMARK    5  A    between atoms: C_8  and  C_11
REMARK    6  A    between atoms: N_16  and  C_17
REMARK    7  A    between atoms: C_20  and  C_21
REMARK    8  A    between atoms: C_20  and  C_22
REMARK    9  A    between atoms: C_26  and  C_27
REMARK   10  A    between atoms: N_29  and  C_30
REMARK   11  A    between atoms: N_29  and  C_31
REMARK                            x       y       z     vdW  Elec       q    Type
REMARK                         _______ _______ _______ _____ _____    ______ ____
ROOT
ATOM      1  C   UNL     1      48.548   4.800  19.428  0.00  0.00    +0.000 C 
ATOM      2  F   UNL     1      49.771   5.406  19.518  0.00  0.00    +0.000 F 
ATOM      3  F   UNL     1      48.511   3.912  20.468  0.00  0.00    +0.000 F 
ENDROOT
BRANCH   1   4
ATOM      4  C   UNL     1      48.386   4.081  18.095  0.00  0.00    +0.000 A 
ATOM      5  C   UNL     1      49.090   2.928  17.773  0.00  0.00    +0.000 A 
ATOM      6  C   UNL     1      48.890   2.355  16.525  0.00  0.00    +0.000 A 
ATOM      7  N   UNL     1      48.046   2.855  15.574  0.00  0.00    +0.000 NA
ATOM      8  C   UNL     1      47.328   3.949  15.891  0.00  0.00    +0.000 A 
ATOM      9  N   UNL     1      46.419   4.521  14.999  0.00  0.00    +0.000 N 
ATOM     10  C   UNL     1      47.472   4.572  17.138  0.00  0.00    +0.000 A 
ATOM     11  H   UNL     1      45.479   4.506  15.384  0.00  0.00    +0.000 HD
BRANCH   9  12
ATOM     12  C   UNL     1      46.494   4.205  13.571  0.00  0.00    +0.000 C 
ATOM     13  C   UNL     1      45.178   3.793  12.923  0.00  0.00    +0.000 C 
ATOM     14  O   UNL     1      44.743   4.818  12.011  0.00  0.00    +0.000 OA
ATOM     15  C   UNL     1      45.693   5.890  11.978  0.00  0.00    +0.000 C 
ATOM     16  C   UNL     1      44.984   7.142  12.508  0.00  0.00    +0.000 C 
ATOM     17  C   UNL     1      46.117   6.139  10.525  0.00  0.00    +0.000 C 
ATOM     18  C   UNL     1      46.896   5.470  12.824  0.00  0.00    +0.000 C 
ENDBRANCH   9  12
ENDBRANCH   1   4
BRANCH   1  19
ATOM     19  C   UNL     1      47.454   5.862  19.650  0.00  0.00    +0.000 C 
BRANCH  19  20
ATOM     20  O   UNL     1      47.832   6.835  20.657  0.00  0.00    +0.000 OA
BRANCH  20  25
ATOM     21  C   UNL     1      46.891  12.093  18.873  0.00  0.00    +0.000 C 
ATOM     22  C   UNL     1      47.306  10.699  19.224  0.00  0.00    +0.000 A 
ATOM     23  C   UNL     1      46.932  10.269  20.505  0.00  0.00    +0.000 A 
ATOM     24  N   UNL     1      47.106   9.034  21.009  0.00  0.00    +0.000 NA
ATOM     25  C   UNL     1      47.704   8.137  20.212  0.00  0.00    +0.000 A 
ATOM     26  C   UNL     1      48.168   8.461  18.941  0.00  0.00    +0.000 A 
ATOM     27  C   UNL     1      47.987   9.769  18.418  0.00  0.00    +0.000 A 
BRANCH  27  28
ATOM     28  C   UNL     1      48.402   9.884  16.975  0.00  0.00    +0.000 C 
ATOM     29  O   UNL     1      47.780   9.141  16.201  0.00  0.00    +0.000 OA
ATOM     30  N   UNL     1      49.442  10.678  16.470  0.00  0.00    +0.000 N 
ATOM     31  C   UNL     1      50.232  11.664  17.173  0.00  0.00    +0.000 C 
ATOM     32  C   UNL     1      49.781  10.551  15.051  0.00  0.00    +0.000 C 
ENDBRANCH  27  28
ENDBRANCH  20  25
ENDBRANCH  19  20
ENDBRANCH   1  19
TORSDOF 6
ENDMDL
MODEL 7
REMARK VINA RESULT:    -6.463      3.237      5.183
REMARK INTER + INTRA:          -9.614
REMARK INTER:                  -8.529
REMARK INTRA:                  -1.085
REMARK UNBOUND:                -0.883
REMARK  Name = 
REMARK  11 active torsions:
REMARK  status: ('A' for Active; 'I' for Inactive)
REMARK    1  A    between atoms: C_1  and  C_2
REMARK    2  A    between atoms: C_5  and  O_6
REMARK    3  A    between atoms: O_6  and  C_7
REMARK    4  A    between atoms: C_7  and  C_8
REMARK    5  A    between atoms: C_8  and  C_11
REMARK    6  A    between atoms: N_16  and  C_17
REMARK    7  A    between atoms: C_20  and  C_21
REMARK    8  A    between atoms: C_20  and  C_22
REMARK    9  A    between atoms: C_26  and  C_27
REMARK   10  A    between atoms: N_29  and  C_30
REMARK   11  A    between atoms: N_29  and  C_31
REMARK                            x       y       z     vdW  Elec       q    Type
REMARK                         _______ _______ _______ _____ _____    ______ ____
ROOT
ATOM      1  C   UNL     1      47.725   3.877  17.641  0.00  0.00    +0.000 C 
ATOM      2  F   UNL     1      46.922   2.787  17.448  0.00  0.00    +0.000 F 
ATOM      3  F   UNL     1      47.133   4.584  18.652  0.00  0.00    +0.000 F 
ENDROOT
BRANCH   1   4
ATOM      4  C   UNL     1      47.825   4.719  16.376  0.00  0.00    +0.000 A 
ATOM      5  C   UNL     1      48.633   5.845  16.284  0.00  0.00    +0.000 A 
ATOM      6  C   UNL     1      48.642   6.561  15.096  0.00  0.00    +0.000 A 
ATOM      7  N   UNL     1      47.897   6.240  13.997  0.00  0.00    +0.000 NA
ATOM      8  C   UNL     1      47.141   5.127  14.061  0.00  0.00    +0.000 A 
ATOM      9  N   UNL     1      46.363   4.698  12.983  0.00  0.00    +0.000 N 
ATOM     10  C   UNL     1      47.093   4.351  15.226  0.00  0.00    +0.000 A 
ATOM     11  H   UNL     1      46.659   3.778  12.670  0.00  0.00    +0.000 HD
BRANCH   9  12
ATOM     12  C   UNL     1      46.031   5.628  11.901  0.00  0.00    +0.000 C 
ATOM     13  C   UNL     1      45.481   4.987  10.634  0.00  0.00    +0.000 C 
ATOM     14  O   UNL     1      44.092   5.328  10.480  0.00  0.00    +0.000 OA
ATOM     15  C   UNL     1      43.668   6.182  11.549  0.00  0.00    +0.000 C 
ATOM     16  C   UNL     1      42.596   5.422  12.339  0.00  0.00    +0.000 C 
ATOM     17  C   UNL     1      43.040   7.451  10.958  0.00  0.00    +0.000 C 
ATOM     18  C   UNL     1      44.903   6.531  12.381  0.00  0.00    +0.000 C 
ENDBRANCH   9  12
ENDBRANCH   1   4
BRANCH   1  19
ATOM     19  C   UNL     1      49.106   3.393  18.125  0.00  0.00    +0.000 C 
BRANCH  19  20
ATOM     20  O   UNL     1      49.694   2.424  17.220  0.00  0.00    +0.000 OA
BRANCH  20  25
ATOM     21  C   UNL     1      54.994   1.180  18.664  0.00  0.00    +0.000 C 
ATOM     22  C   UNL     1      53.659   1.695  18.223  0.00  0.00    +0.000 A 
ATOM     23  C   UNL     1      52.760   0.716  17.775  0.00  0.00    +0.000 A 
ATOM     24  N   UNL     1      51.478   0.919  17.422  0.00  0.00    +0.000 NA
ATOM     25  C   UNL     1      51.026   2.180  17.496  0.00  0.00    +0.000 A 
ATOM     26  C   UNL     1      51.840   3.243  17.874  0.00  0.00    +0.000 A 
ATOM     27  C   UNL     1      53.193   3.022  18.239  0.00  0.00    +0.000 A 
BRANCH  27  28
ATOM     28  C   UNL     1      53.864   4.259  18.776  0.00  0.00    +0.000 C 
ATOM     29  O   UNL     1      54.323   5.012  17.905  0.00  0.00    +0.000 OA
ATOM     30  N   UNL     1      54.068   4.574  20.127  0.00  0.00    +0.000 N 
ATOM     31  C   UNL     1      53.555   3.885  21.290  0.00  0.00    +0.000 C 
ATOM     32  C   UNL     1      54.864   5.761  20.447  0.00  0.00    +0.000 C 
ENDBRANCH  27  28
ENDBRANCH  20  25
ENDBRANCH  19  20
ENDBRANCH   1  19
TORSDOF 6
ENDMDL
MODEL 8
REMARK VINA RESULT:    -6.439      4.355      6.410
REMARK INTER + INTRA:          -9.581
REMARK INTER:                  -8.242
REMARK INTRA:                  -1.339
REMARK UNBOUND:                -0.883
REMARK  Name = 
REMARK  11 active torsions:
REMARK  status: ('A' for Active; 'I' for Inactive)
REMARK    1  A    between atoms: C_1  and  C_2
REMARK    2  A    between atoms: C_5  and  O_6
REMARK    3  A    between atoms: O_6  and  C_7
REMARK    4  A    between atoms: C_7  and  C_8
REMARK    5  A    between atoms: C_8  and  C_11
REMARK    6  A    between atoms: N_16  and  C_17
REMARK    7  A    between atoms: C_20  and  C_21
REMARK    8  A    between atoms: C_20  and  C_22
REMARK    9  A    between atoms: C_26  and  C_27
REMARK   10  A    between atoms: N_29  and  C_30
REMARK   11  A    between atoms: N_29  and  C_31
REMARK                            x       y       z     vdW  Elec       q    Type
REMARK                         _______ _______ _______ _____ _____    ______ ____
ROOT
ATOM      1  C   UNL     1      49.107   3.513  18.058  0.00  0.00    +0.000 C 
ATOM      2  F   UNL     1      50.010   2.569  17.654  0.00  0.00    +0.000 F 
ATOM      3  F   UNL     1      48.024   2.806  18.504  0.00  0.00    +0.000 F 
ENDROOT
BRANCH   1   4
ATOM      4  C   UNL     1      48.718   4.432  16.907  0.00  0.00    +0.000 A 
ATOM      5  C   UNL     1      49.328   5.660  16.686  0.00  0.00    +0.000 A 
ATOM      6  C   UNL     1      48.891   6.438  15.623  0.00  0.00    +0.000 A 
ATOM      7  N   UNL     1      47.883   6.082  14.772  0.00  0.00    +0.000 NA
ATOM      8  C   UNL     1      47.312   4.876  14.953  0.00  0.00    +0.000 A 
ATOM      9  N   UNL     1      46.292   4.408  14.120  0.00  0.00    +0.000 N 
ATOM     10  C   UNL     1      47.712   4.035  15.999  0.00  0.00    +0.000 A 
ATOM     11  H   UNL     1      46.577   3.556  13.646  0.00  0.00    +0.000 HD
BRANCH   9  12
ATOM     12  C   UNL     1      45.542   5.346  13.281  0.00  0.00    +0.000 C 
ATOM     13  C   UNL     1      45.897   5.325  11.800  0.00  0.00    +0.000 C 
ATOM     14  O   UNL     1      44.800   4.780  11.045  0.00  0.00    +0.000 OA
ATOM     15  C   UNL     1      43.711   4.452  11.916  0.00  0.00    +0.000 C 
ATOM     16  C   UNL     1      43.509   2.934  11.839  0.00  0.00    +0.000 C 
ATOM     17  C   UNL     1      42.440   5.147  11.412  0.00  0.00    +0.000 C 
ATOM     18  C   UNL     1      44.074   4.946  13.317  0.00  0.00    +0.000 C 
ENDBRANCH   9  12
ENDBRANCH   1   4
BRANCH   1  19
ATOM     19  C   UNL     1      49.706   4.293  19.244  0.00  0.00    +0.000 C 
BRANCH  19  20
ATOM     20  O   UNL     1      48.850   4.253  20.414  0.00  0.00    +0.000 OA
BRANCH  20  25
ATOM     21  C   UNL     1      46.730   9.221  22.007  0.00  0.00    +0.000 C 
ATOM     22  C   UNL     1      47.439   8.010  21.487  0.00  0.00    +0.000 A 
ATOM     23  C   UNL     1      47.315   6.860  22.278  0.00  0.00    +0.000 A 
ATOM     24  N   UNL     1      47.778   5.634  21.973  0.00  0.00    +0.000 NA
ATOM     25  C   UNL     1      48.427   5.509  20.806  0.00  0.00    +0.000 A 
ATOM     26  C   UNL     1      48.659   6.590  19.962  0.00  0.00    +0.000 A 
ATOM     27  C   UNL     1      48.174   7.882  20.294  0.00  0.00    +0.000 A 
BRANCH  27  28
ATOM     28  C   UNL     1      48.375   8.884  19.188  0.00  0.00    +0.000 C 
ATOM     29  O   UNL     1      47.498   8.863  18.311  0.00  0.00    +0.000 OA
ATOM     30  N   UNL     1      49.468   9.751  19.039  0.00  0.00    +0.000 N 
ATOM     31  C   UNL     1      50.547   9.990  19.971  0.00  0.00    +0.000 C 
ATOM     32  C   UNL     1      49.548  10.558  17.820  0.00  0.00    +0.000 C 
ENDBRANCH  27  28
ENDBRANCH  20  25
ENDBRANCH  19  20
ENDBRANCH   1  19
TORSDOF 6
ENDMDL
MODEL 9
REMARK VINA RESULT:    -6.330      3.896      6.520
REMARK INTER + INTRA:          -9.434
REMARK INTER:                  -7.940
REMARK INTRA:                  -1.494
REMARK UNBOUND:                -0.883
REMARK  Name = 
REMARK  11 active torsions:
REMARK  status: ('A' for Active; 'I' for Inactive)
REMARK    1  A    between atoms: C_1  and  C_2
REMARK    2  A    between atoms: C_5  and  O_6
REMARK    3  A    between atoms: O_6  and  C_7
REMARK    4  A    between atoms: C_7  and  C_8
REMARK    5  A    between atoms: C_8  and  C_11
REMARK    6  A    between atoms: N_16  and  C_17
REMARK    7  A    between atoms: C_20  and  C_21
REMARK    8  A    between atoms: C_20  and  C_22
REMARK    9  A    between atoms: C_26  and  C_27
REMARK   10  A    between atoms: N_29  and  C_30
REMARK   11  A    between atoms: N_29  and  C_31
REMARK                            x       y       z     vdW  Elec       q    Type
REMARK                         _______ _______ _______ _____ _____    ______ ____
ROOT
ATOM      1  C   UNL     1      45.781   5.971  12.236  0.00  0.00    +0.000 C 
ATOM      2  F   UNL     1      46.091   5.018  11.306  0.00  0.00    +0.000 F 
ATOM      3  F   UNL     1      44.532   6.412  11.896  0.00  0.00    +0.000 F 
ENDROOT
BRANCH   1   4
ATOM      4  C   UNL     1      46.786   7.115  12.209  0.00  0.00    +0.000 A 
ATOM      5  C   UNL     1      46.405   8.450  12.184  0.00  0.00    +0.000 A 
ATOM      6  C   UNL     1      47.393   9.423  12.139  0.00  0.00    +0.000 A 
ATOM      7  N   UNL     1      48.733   9.159  12.107  0.00  0.00    +0.000 NA
ATOM      8  C   UNL     1      49.115   7.869  12.172  0.00  0.00    +0.000 A 
ATOM      9  N   UNL     1      50.461   7.495  12.173  0.00  0.00    +0.000 N 
ATOM     10  C   UNL     1      48.170   6.837  12.231  0.00  0.00    +0.000 A 
ATOM     11  H   UNL     1      50.697   7.004  13.030  0.00  0.00    +0.000 HD
BRANCH   9  12
ATOM     12  C   UNL     1      51.485   8.437  11.713  0.00  0.00    +0.000 C 
ATOM     13  C   UNL     1      52.820   8.357  12.441  0.00  0.00    +0.000 C 
ATOM     14  O   UNL     1      53.826   7.835  11.555  0.00  0.00    +0.000 OA
ATOM     15  C   UNL     1      53.266   7.579  10.262  0.00  0.00    +0.000 C 
ATOM     16  C   UNL     1      53.366   6.069  10.015  0.00  0.00    +0.000 C 
ATOM     17  C   UNL     1      54.098   8.310   9.201  0.00  0.00    +0.000 C 
ATOM     18  C   UNL     1      51.828   8.099  10.269  0.00  0.00    +0.000 C 
ENDBRANCH   9  12
ENDBRANCH   1   4
BRANCH   1  19
ATOM     19  C   UNL     1      45.704   5.301  13.621  0.00  0.00    +0.000 C 
BRANCH  19  20
ATOM     20  O   UNL     1      46.466   4.068  13.677  0.00  0.00    +0.000 OA
BRANCH  20  25
ATOM     21  C   UNL     1      49.541   3.586  18.370  0.00  0.00    +0.000 C 
ATOM     22  C   UNL     1      48.815   3.897  17.099  0.00  0.00    +0.000 A 
ATOM     23  C   UNL     1      48.439   2.782  16.338  0.00  0.00    +0.000 A 
ATOM     24  N   UNL     1      47.699   2.802  15.215  0.00  0.00    +0.000 NA
ATOM     25  C   UNL     1      47.295   4.005  14.781  0.00  0.00    +0.000 A 
ATOM     26  C   UNL     1      47.651   5.187  15.422  0.00  0.00    +0.000 A 
ATOM     27  C   UNL     1      48.438   5.158  16.603  0.00  0.00    +0.000 A 
BRANCH  27  28
ATOM     28  C   UNL     1      48.581   6.514  17.244  0.00  0.00    +0.000 C 
ATOM     29  O   UNL     1      49.312   7.301  16.622  0.00  0.00    +0.000 OA
ATOM     30  N   UNL     1      48.038   6.915  18.473  0.00  0.00    +0.000 N 
ATOM     31  C   UNL     1      47.107   6.194  19.312  0.00  0.00    +0.000 C 
ATOM     32  C   UNL     1      48.403   8.234  18.992  0.00  0.00    +0.000 C 
ENDBRANCH  27  28
ENDBRANCH  20  25
ENDBRANCH  19  20
ENDBRANCH   1  19
TORSDOF 6
ENDMDL
