MODEL 1
REMARK VINA RESULT:    -7.667      0.000      0.000
REMARK INTER + INTRA:         -10.698
REMARK INTER:                 -10.357
REMARK INTRA:                  -0.341
REMARK UNBOUND:                -0.341
REMARK  Name = 
REMARK  7 active torsions:
REMARK  status: ('A' for Active; 'I' for Inactive)
REMARK    1  A    between atoms: C_1  and  C_2
REMARK    2  A    between atoms: C_7  and  C_8
REMARK    3  A    between atoms: C_13  and  C_14
REMARK    4  A    between atoms: C_14  and  C_15
REMARK    5  A    between atoms: C_15  and  O_16
REMARK    6  A    between atoms: O_16  and  C_17
REMARK    7  A    between atoms: C_20  and  C_21
REMARK                            x       y       z     vdW  Elec       q    Type
REMARK                         _______ _______ _______ _____ _____    ______ ____
ROOT
ATOM      1  C   UNL     1      49.201  10.806  14.874  0.00  0.00    +0.000 C 
ATOM      2  C   UNL     1      48.587   9.658  14.081  0.00  0.00    +0.000 C 
ATOM      3  C   UNL     1      49.144   8.299  14.571  0.00  0.00    +0.000 C 
ATOM      4  N   UNL     1      48.691   7.212  13.693  0.00  0.00    +0.000 N 
ATOM      5  C   UNL     1      47.965   6.120  14.117  0.00  0.00    +0.000 A 
ATOM      6  C   UNL     1      48.060   5.661  15.416  0.00  0.00    +0.000 A 
ATOM      7  C   UNL     1      47.309   4.555  15.785  0.00  0.00    +0.000 A 
ATOM      8  N   UNL     1      46.502   3.921  14.904  0.00  0.00    +0.000 NA
ATOM      9  C   UNL     1      46.477   4.402  13.651  0.00  0.00    +0.000 A 
ATOM     10  N   UNL     1      47.174   5.478  13.238  0.00  0.00    +0.000 NA
ATOM     11  C   UNL     1      48.887   7.464  12.259  0.00  0.00    +0.000 C 
ATOM     12  C   UNL     1      48.313   8.836  11.882  0.00  0.00    +0.000 C 
ATOM     13  O   UNL     1      48.886   9.880  12.691  0.00  0.00    +0.000 OA
ENDROOT
BRANCH   7  14
ATOM     14  C   UNL     1      47.403   4.039  17.211  0.00  0.00    +0.000 C 
ATOM     15  F   UNL     1      48.690   3.791  17.609  0.00  0.00    +0.000 F 
ATOM     16  F   UNL     1      46.909   4.917  18.131  0.00  0.00    +0.000 F 
ATOM     17  F   UNL     1      46.735   2.867  17.405  0.00  0.00    +0.000 F 
ENDBRANCH   7  14
BRANCH   9  18
ATOM     18  C   UNL     1      45.572   3.717  12.663  0.00  0.00    +0.000 C 
BRANCH  18  19
ATOM     19  C   UNL     1      44.128   4.117  12.916  0.00  0.00    +0.000 C 
BRANCH  19  20
ATOM     20  O   UNL     1      43.485   4.486  11.681  0.00  0.00    +0.000 OA
BRANCH  20  21
ATOM     21  C   UNL     1      44.209   4.088  10.569  0.00  0.00    +0.000 A 
ATOM     22  N   UNL     1      44.009   2.834  10.094  0.00  0.00    +0.000 NA
ATOM     23  C   UNL     1      44.736   2.450   9.017  0.00  0.00    +0.000 A 
ATOM     24  C   UNL     1      45.664   3.257   8.376  0.00  0.00    +0.000 A 
ATOM     25  C   UNL     1      45.842   4.553   8.874  0.00  0.00    +0.000 A 
ATOM     26  C   UNL     1      45.111   4.978   9.986  0.00  0.00    +0.000 A 
ATOM     27 CL   UNL     1      45.358   6.571  10.589  0.00  0.00    +0.000 Cl
BRANCH  24  28
ATOM     28  C   UNL     1      46.456   2.804   7.207  0.00  0.00    +0.000 C 
ATOM     29  N   UNL     1      46.669   3.669   6.171  0.00  0.00    +0.000 N 
ATOM     30  O   UNL     1      46.910   1.667   7.161  0.00  0.00    +0.000 OA
ATOM     31  H   UNL     1      46.308   4.605   6.084  0.00  0.00    +0.000 HD
ATOM     32  H   UNL     1      47.193   3.305   5.384  0.00  0.00    +0.000 HD
ENDBRANCH  24  28
ENDBRANCH  20  21
ENDBRANCH  19  20
ENDBRANCH  18  19
ENDBRANCH   9  18
TORSDOF 6
ENDMDL
MODEL 2
REMARK VINA RESULT:    -7.213      4.375      5.311
REMARK INTER + INTRA:         -10.085
REMARK INTER:                  -9.398
REMARK INTRA:                  -0.687
REMARK UNBOUND:                -0.341
REMARK  Name = 
REMARK  7 active torsions:
REMARK  status: ('A' for Active; 'I' for Inactive)
REMARK    1  A    between atoms: C_1  and  C_2
REMARK    2  A    between atoms: C_7  and  C_8
REMARK    3  A    between atoms: C_13  and  C_14
REMARK    4  A    between atoms: C_14  and  C_15
REMARK    5  A    between atoms: C_15  and  O_16
REMARK    6  A    between atoms: O_16  and  C_17
REMARK    7  A    between atoms: C_20  and  C_21
REMARK                            x       y       z     vdW  Elec       q    Type
REMARK                         _______ _______ _______ _____ _____    ______ ____
ROOT
ATOM      1  C   UNL     1      50.494  10.595  11.766  0.00  0.00    +0.000 C 
ATOM      2  C   UNL     1      49.445   9.507  11.963  0.00  0.00    +0.000 C 
ATOM      3  C   UNL     1      48.097  10.125  12.408  0.00  0.00    +0.000 C 
ATOM      4  N   UNL     1      47.142   9.069  12.770  0.00  0.00    +0.000 N 
ATOM      5  C   UNL     1      45.911   8.897  12.176  0.00  0.00    +0.000 A 
ATOM      6  C   UNL     1      45.237   9.961  11.609  0.00  0.00    +0.000 A 
ATOM      7  C   UNL     1      43.999   9.728  11.029  0.00  0.00    +0.000 A 
ATOM      8  N   UNL     1      43.443   8.494  11.016  0.00  0.00    +0.000 NA
ATOM      9  C   UNL     1      44.139   7.511  11.608  0.00  0.00    +0.000 A 
ATOM     10  N   UNL     1      45.349   7.673  12.176  0.00  0.00    +0.000 NA
ATOM     11  C   UNL     1      47.674   8.053  13.688  0.00  0.00    +0.000 C 
ATOM     12  C   UNL     1      49.011   7.517  13.162  0.00  0.00    +0.000 C 
ATOM     13  O   UNL     1      49.951   8.585  12.944  0.00  0.00    +0.000 OA
ENDROOT
BRANCH   7  14
ATOM     14  C   UNL     1      43.246  10.889  10.401  0.00  0.00    +0.000 C 
ATOM     15  F   UNL     1      44.023  11.644   9.565  0.00  0.00    +0.000 F 
ATOM     16  F   UNL     1      42.187  10.489   9.639  0.00  0.00    +0.000 F 
ATOM     17  F   UNL     1      42.747  11.766  11.317  0.00  0.00    +0.000 F 
ENDBRANCH   7  14
BRANCH   9  18
ATOM     18  C   UNL     1      43.540   6.130  11.588  0.00  0.00    +0.000 C 
BRANCH  18  19
ATOM     19  C   UNL     1      44.501   5.157  10.925  0.00  0.00    +0.000 C 
BRANCH  19  20
ATOM     20  O   UNL     1      43.938   4.655   9.698  0.00  0.00    +0.000 OA
BRANCH  20  21
ATOM     21  C   UNL     1      44.857   3.937   8.949  0.00  0.00    +0.000 A 
ATOM     22  N   UNL     1      45.647   4.621   8.085  0.00  0.00    +0.000 NA
ATOM     23  C   UNL     1      46.529   3.907   7.345  0.00  0.00    +0.000 A 
ATOM     24  C   UNL     1      46.671   2.530   7.420  0.00  0.00    +0.000 A 
ATOM     25  C   UNL     1      45.857   1.846   8.330  0.00  0.00    +0.000 A 
ATOM     26  C   UNL     1      44.934   2.553   9.105  0.00  0.00    +0.000 A 
ATOM     27 CL   UNL     1      43.933   1.690  10.207  0.00  0.00    +0.000 Cl
BRANCH  24  28
ATOM     28  C   UNL     1      47.637   1.772   6.586  0.00  0.00    +0.000 C 
ATOM     29  N   UNL     1      48.845   2.333   6.289  0.00  0.00    +0.000 N 
ATOM     30  O   UNL     1      47.354   0.658   6.160  0.00  0.00    +0.000 OA
ATOM     31  H   UNL     1      49.162   3.254   6.548  0.00  0.00    +0.000 HD
ATOM     32  H   UNL     1      49.458   1.788   5.695  0.00  0.00    +0.000 HD
ENDBRANCH  24  28
ENDBRANCH  20  21
ENDBRANCH  19  20
ENDBRANCH  18  19
ENDBRANCH   9  18
TORSDOF 6
ENDMDL
MODEL 3
REMARK VINA RESULT:    -7.066      3.670      8.293
REMARK INTER + INTRA:          -9.886
REMARK INTER:                  -8.683
REMARK INTRA:                  -1.203
REMARK UNBOUND:                -0.341
REMARK  Name = 
REMARK  7 active torsions:
REMARK  status: ('A' for Active; 'I' for Inactive)
REMARK    1  A    between atoms: C_1  and  C_2
REMARK    2  A    between atoms: C_7  and  C_8
REMARK    3  A    between atoms: C_13  and  C_14
REMARK    4  A    between atoms: C_14  and  C_15
REMARK    5  A    between atoms: C_15  and  O_16
REMARK    6  A    between atoms: O_16  and  C_17
REMARK    7  A    between atoms: C_20  and  C_21
REMARK                            x       y       z     vdW  Elec       q    Type
REMARK                         _______ _______ _______ _____ _____    ______ ____
ROOT
ATOM      1  C   UNL     1      43.978   2.787  10.800  0.00  0.00    +0.000 C 
ATOM      2  C   UNL     1      44.910   3.904  11.252  0.00  0.00    +0.000 C 
ATOM      3  C   UNL     1      44.822   4.100  12.785  0.00  0.00    +0.000 C 
ATOM      4  N   UNL     1      45.581   5.290  13.195  0.00  0.00    +0.000 N 
ATOM      5  C   UNL     1      46.622   5.274  14.097  0.00  0.00    +0.000 A 
ATOM      6  C   UNL     1      46.700   4.309  15.082  0.00  0.00    +0.000 A 
ATOM      7  C   UNL     1      47.769   4.347  15.964  0.00  0.00    +0.000 A 
ATOM      8  N   UNL     1      48.721   5.306  15.884  0.00  0.00    +0.000 NA
ATOM      9  C   UNL     1      48.570   6.229  14.921  0.00  0.00    +0.000 A 
ATOM     10  N   UNL     1      47.561   6.237  14.029  0.00  0.00    +0.000 NA
ATOM     11  C   UNL     1      45.291   6.499  12.413  0.00  0.00    +0.000 C 
ATOM     12  C   UNL     1      45.393   6.193  10.914  0.00  0.00    +0.000 C 
ATOM     13  O   UNL     1      44.533   5.100  10.545  0.00  0.00    +0.000 OA
ENDROOT
BRANCH   7  14
ATOM     14  C   UNL     1      47.868   3.292  17.052  0.00  0.00    +0.000 C 
ATOM     15  F   UNL     1      46.649   2.803  17.439  0.00  0.00    +0.000 F 
ATOM     16  F   UNL     1      48.586   2.196  16.670  0.00  0.00    +0.000 F 
ATOM     17  F   UNL     1      48.451   3.750  18.195  0.00  0.00    +0.000 F 
ENDBRANCH   7  14
BRANCH   9  18
ATOM     18  C   UNL     1      49.629   7.293  14.810  0.00  0.00    +0.000 C 
BRANCH  18  19
ATOM     19  C   UNL     1      50.643   7.137  15.930  0.00  0.00    +0.000 C 
BRANCH  19  20
ATOM     20  O   UNL     1      50.514   8.214  16.878  0.00  0.00    +0.000 OA
BRANCH  20  21
ATOM     21  C   UNL     1      49.759   7.858  17.983  0.00  0.00    +0.000 A 
ATOM     22  N   UNL     1      50.270   6.933  18.832  0.00  0.00    +0.000 NA
ATOM     23  C   UNL     1      49.515   6.579  19.900  0.00  0.00    +0.000 A 
ATOM     24  C   UNL     1      48.261   7.104  20.175  0.00  0.00    +0.000 A 
ATOM     25  C   UNL     1      47.760   8.069  19.293  0.00  0.00    +0.000 A 
ATOM     26  C   UNL     1      48.513   8.453  18.181  0.00  0.00    +0.000 A 
ATOM     27 CL   UNL     1      47.870   9.631  17.103  0.00  0.00    +0.000 Cl
BRANCH  24  28
ATOM     28  C   UNL     1      47.450   6.688  21.345  0.00  0.00    +0.000 C 
ATOM     29  N   UNL     1      47.109   5.373  21.485  0.00  0.00    +0.000 N 
ATOM     30  O   UNL     1      47.081   7.511  22.174  0.00  0.00    +0.000 OA
ATOM     31  H   UNL     1      47.320   4.624  20.845  0.00  0.00    +0.000 HD
ATOM     32  H   UNL     1      46.532   5.143  22.285  0.00  0.00    +0.000 HD
ENDBRANCH  24  28
ENDBRANCH  20  21
ENDBRANCH  19  20
ENDBRANCH  18  19
ENDBRANCH   9  18
TORSDOF 6
ENDMDL
MODEL 4
REMARK VINA RESULT:    -6.993      3.694      5.308
REMARK INTER + INTRA:          -9.787
REMARK INTER:                  -8.974
REMARK INTRA:                  -0.813
REMARK UNBOUND:                -0.341
REMARK  Name = 
REMARK  7 active torsions:
REMARK  status: ('A' for Active; 'I' for Inactive)
REMARK    1  A    between atoms: C_1  and  C_2
REMARK    2  A    between atoms: C_7  and  C_8
REMARK    3  A    between atoms: C_13  and  C_14
REMARK    4  A    between atoms: C_14  and  C_15
REMARK    5  A    between atoms: C_15  and  O_16
REMARK    6  A    between atoms: O_16  and  C_17
REMARK    7  A    between atoms: C_20  and  C_21
REMARK                            x       y       z     vdW  Elec       q    Type
REMARK                         _______ _______ _______ _____ _____    ______ ____
ROOT
ATOM      1  C   UNL     1      46.675   9.062  22.280  0.00  0.00    +0.000 C 
ATOM      2  C   UNL     1      47.401   9.124  20.942  0.00  0.00    +0.000 C 
ATOM      3  C   UNL     1      48.302   7.879  20.754  0.00  0.00    +0.000 C 
ATOM      4  N   UNL     1      49.135   8.025  19.552  0.00  0.00    +0.000 N 
ATOM      5  C   UNL     1      49.128   7.146  18.490  0.00  0.00    +0.000 A 
ATOM      6  C   UNL     1      48.789   5.819  18.664  0.00  0.00    +0.000 A 
ATOM      7  C   UNL     1      48.805   4.981  17.560  0.00  0.00    +0.000 A 
ATOM      8  N   UNL     1      49.151   5.432  16.332  0.00  0.00    +0.000 NA
ATOM      9  C   UNL     1      49.496   6.726  16.238  0.00  0.00    +0.000 A 
ATOM     10  N   UNL     1      49.488   7.590  17.271  0.00  0.00    +0.000 NA
ATOM     11  C   UNL     1      49.846   9.306  19.454  0.00  0.00    +0.000 C 
ATOM     12  C   UNL     1      48.868  10.469  19.666  0.00  0.00    +0.000 C 
ATOM     13  O   UNL     1      48.171  10.340  20.919  0.00  0.00    +0.000 OA
ENDROOT
BRANCH   7  14
ATOM     14  C   UNL     1      48.433   3.518  17.735  0.00  0.00    +0.000 C 
ATOM     15  F   UNL     1      48.412   3.122  19.046  0.00  0.00    +0.000 F 
ATOM     16  F   UNL     1      47.191   3.221  17.255  0.00  0.00    +0.000 F 
ATOM     17  F   UNL     1      49.296   2.665  17.116  0.00  0.00    +0.000 F 
ENDBRANCH   7  14
BRANCH   9  18
ATOM     18  C   UNL     1      49.869   7.247  14.876  0.00  0.00    +0.000 C 
BRANCH  18  19
ATOM     19  C   UNL     1      48.640   7.295  13.984  0.00  0.00    +0.000 C 
BRANCH  19  20
ATOM     20  O   UNL     1      48.475   6.043  13.290  0.00  0.00    +0.000 OA
BRANCH  20  21
ATOM     21  C   UNL     1      47.205   5.898  12.755  0.00  0.00    +0.000 A 
ATOM     22  N   UNL     1      46.710   6.914  12.006  0.00  0.00    +0.000 NA
ATOM     23  C   UNL     1      45.461   6.769  11.503  0.00  0.00    +0.000 A 
ATOM     24  C   UNL     1      44.665   5.652  11.707  0.00  0.00    +0.000 A 
ATOM     25  C   UNL     1      45.202   4.609  12.471  0.00  0.00    +0.000 A 
ATOM     26  C   UNL     1      46.487   4.729  13.006  0.00  0.00    +0.000 A 
ATOM     27 CL   UNL     1      47.121   3.440  13.954  0.00  0.00    +0.000 Cl
BRANCH  24  28
ATOM     28  C   UNL     1      43.293   5.526  11.156  0.00  0.00    +0.000 C 
ATOM     29  N   UNL     1      42.238   6.008  11.876  0.00  0.00    +0.000 N 
ATOM     30  O   UNL     1      43.102   4.988  10.071  0.00  0.00    +0.000 OA
ATOM     31  H   UNL     1      42.275   6.425  12.793  0.00  0.00    +0.000 HD
ATOM     32  H   UNL     1      41.320   5.874  11.471  0.00  0.00    +0.000 HD
ENDBRANCH  24  28
ENDBRANCH  20  21
ENDBRANCH  19  20
ENDBRANCH  18  19
ENDBRANCH   9  18
TORSDOF 6
ENDMDL
MODEL 5
REMARK VINA RESULT:    -6.931      4.218      6.076
REMARK INTER + INTRA:          -9.704
REMARK INTER:                  -8.901
REMARK INTRA:                  -0.803
REMARK UNBOUND:                -0.341
REMARK  Name = 
REMARK  7 active torsions:
REMARK  status: ('A' for Active; 'I' for Inactive)
REMARK    1  A    between atoms: C_1  and  C_2
REMARK    2  A    between atoms: C_7  and  C_8
REMARK    3  A    between atoms: C_13  and  C_14
REMARK    4  A    between atoms: C_14  and  C_15
REMARK    5  A    between atoms: C_15  and  O_16
REMARK    6  A    between atoms: O_16  and  C_17
REMARK    7  A    between atoms: C_20  and  C_21
REMARK                            x       y       z     vdW  Elec       q    Type
REMARK                         _______ _______ _______ _____ _____    ______ ____
ROOT
ATOM      1  C   UNL     1      54.107   3.523  21.756  0.00  0.00    +0.000 C 
ATOM      2  C   UNL     1      53.744   4.403  20.566  0.00  0.00    +0.000 C 
ATOM      3  C   UNL     1      53.013   3.576  19.481  0.00  0.00    +0.000 C 
ATOM      4  N   UNL     1      52.824   4.379  18.265  0.00  0.00    +0.000 N 
ATOM      5  C   UNL     1      51.599   4.651  17.695  0.00  0.00    +0.000 A 
ATOM      6  C   UNL     1      50.530   3.793  17.859  0.00  0.00    +0.000 A 
ATOM      7  C   UNL     1      49.322   4.117  17.258  0.00  0.00    +0.000 A 
ATOM      8  N   UNL     1      49.178   5.240  16.518  0.00  0.00    +0.000 NA
ATOM      9  C   UNL     1      50.264   6.016  16.377  0.00  0.00    +0.000 A 
ATOM     10  N   UNL     1      51.458   5.760  16.945  0.00  0.00    +0.000 NA
ATOM     11  C   UNL     1      54.034   5.064  17.791  0.00  0.00    +0.000 C 
ATOM     12  C   UNL     1      54.685   5.840  18.943  0.00  0.00    +0.000 C 
ATOM     13  O   UNL     1      54.963   4.978  20.061  0.00  0.00    +0.000 OA
ENDROOT
BRANCH   7  14
ATOM     14  C   UNL     1      48.136   3.183  17.430  0.00  0.00    +0.000 C 
ATOM     15  F   UNL     1      47.963   2.766  18.723  0.00  0.00    +0.000 F 
ATOM     16  F   UNL     1      46.949   3.756  17.080  0.00  0.00    +0.000 F 
ATOM     17  F   UNL     1      48.240   2.041  16.695  0.00  0.00    +0.000 F 
ENDBRANCH   7  14
BRANCH   9  18
ATOM     18  C   UNL     1      50.115   7.277  15.568  0.00  0.00    +0.000 C 
BRANCH  18  19
ATOM     19  C   UNL     1      48.757   7.300  14.887  0.00  0.00    +0.000 C 
BRANCH  19  20
ATOM     20  O   UNL     1      48.813   6.592  13.634  0.00  0.00    +0.000 OA
BRANCH  20  21
ATOM     21  C   UNL     1      47.623   5.948  13.337  0.00  0.00    +0.000 A 
ATOM     22  N   UNL     1      47.474   4.665  13.750  0.00  0.00    +0.000 NA
ATOM     23  C   UNL     1      46.314   4.039  13.438  0.00  0.00    +0.000 A 
ATOM     24  C   UNL     1      45.277   4.628  12.730  0.00  0.00    +0.000 A 
ATOM     25  C   UNL     1      45.446   5.958  12.328  0.00  0.00    +0.000 A 
ATOM     26  C   UNL     1      46.633   6.630  12.630  0.00  0.00    +0.000 A 
ATOM     27 CL   UNL     1      46.824   8.261  12.113  0.00  0.00    +0.000 Cl
BRANCH  24  28
ATOM     28  C   UNL     1      44.022   3.913  12.391  0.00  0.00    +0.000 C 
ATOM     29  N   UNL     1      43.977   2.553  12.507  0.00  0.00    +0.000 N 
ATOM     30  O   UNL     1      43.037   4.530  12.002  0.00  0.00    +0.000 OA
ATOM     31  H   UNL     1      44.736   1.946  12.773  0.00  0.00    +0.000 HD
ATOM     32  H   UNL     1      43.108   2.109  12.238  0.00  0.00    +0.000 HD
ENDBRANCH  24  28
ENDBRANCH  20  21
ENDBRANCH  19  20
ENDBRANCH  18  19
ENDBRANCH   9  18
TORSDOF 6
ENDMDL
MODEL 6
REMARK VINA RESULT:    -6.907      2.999      6.352
REMARK INTER + INTRA:          -9.672
REMARK INTER:                  -8.769
REMARK INTRA:                  -0.902
REMARK UNBOUND:                -0.341
REMARK  Name = 
REMARK  7 active torsions:
REMARK  status: ('A' for Active; 'I' for Inactive)
REMARK    1  A    between atoms: C_1  and  C_2
REMARK    2  A    between atoms: C_7  and  C_8
REMARK    3  A    between atoms: C_13  and  C_14
REMARK    4  A    between atoms: C_14  and  C_15
REMARK    5  A    between atoms: C_15  and  O_16
REMARK    6  A    between atoms: O_16  and  C_17
REMARK    7  A    between atoms: C_20  and  C_21
REMARK                            x       y       z     vdW  Elec       q    Type
REMARK                         _______ _______ _______ _____ _____    ______ ____
ROOT
ATOM      1  C   UNL     1      44.319   2.035   9.974  0.00  0.00    +0.000 C 
ATOM      2  C   UNL     1      45.103   3.298  10.309  0.00  0.00    +0.000 C 
ATOM      3  C   UNL     1      44.885   3.699  11.788  0.00  0.00    +0.000 C 
ATOM      4  N   UNL     1      45.493   5.008  12.060  0.00  0.00    +0.000 N 
ATOM      5  C   UNL     1      46.463   5.232  13.013  0.00  0.00    +0.000 A 
ATOM      6  C   UNL     1      46.562   4.430  14.133  0.00  0.00    +0.000 A 
ATOM      7  C   UNL     1      47.556   4.707  15.060  0.00  0.00    +0.000 A 
ATOM      8  N   UNL     1      48.413   5.740  14.893  0.00  0.00    +0.000 NA
ATOM      9  C   UNL     1      48.243   6.497  13.797  0.00  0.00    +0.000 A 
ATOM     10  N   UNL     1      47.306   6.270  12.857  0.00  0.00    +0.000 NA
ATOM     11  C   UNL     1      45.143   6.056  11.092  0.00  0.00    +0.000 C 
ATOM     12  C   UNL     1      45.384   5.555   9.663  0.00  0.00    +0.000 C 
ATOM     13  O   UNL     1      44.663   4.334   9.412  0.00  0.00    +0.000 OA
ENDROOT
BRANCH   7  14
ATOM     14  C   UNL     1      47.678   3.832  16.296  0.00  0.00    +0.000 C 
ATOM     15  F   UNL     1      48.035   2.542  16.009  0.00  0.00    +0.000 F 
ATOM     16  F   UNL     1      48.625   4.276  17.173  0.00  0.00    +0.000 F 
ATOM     17  F   UNL     1      46.518   3.735  17.004  0.00  0.00    +0.000 F 
ENDBRANCH   7  14
BRANCH   9  18
ATOM     18  C   UNL     1      49.199   7.641  13.590  0.00  0.00    +0.000 C 
BRANCH  18  19
ATOM     19  C   UNL     1      48.865   8.370  12.299  0.00  0.00    +0.000 C 
BRANCH  19  20
ATOM     20  O   UNL     1      48.573   9.755  12.566  0.00  0.00    +0.000 OA
BRANCH  20  21
ATOM     21  C   UNL     1      47.270  10.093  12.238  0.00  0.00    +0.000 A 
ATOM     22  N   UNL     1      46.273   9.284  12.672  0.00  0.00    +0.000 NA
ATOM     23  C   UNL     1      45.005   9.615  12.330  0.00  0.00    +0.000 A 
ATOM     24  C   UNL     1      44.669  10.725  11.569  0.00  0.00    +0.000 A 
ATOM     25  C   UNL     1      45.713  11.555  11.145  0.00  0.00    +0.000 A 
ATOM     26  C   UNL     1      47.032  11.239  11.478  0.00  0.00    +0.000 A 
ATOM     27 CL   UNL     1      48.300  12.267  10.933  0.00  0.00    +0.000 Cl
BRANCH  24  28
ATOM     28  C   UNL     1      43.271  11.055  11.197  0.00  0.00    +0.000 C 
ATOM     29  N   UNL     1      42.307  11.058  12.164  0.00  0.00    +0.000 N 
ATOM     30  O   UNL     1      42.978  11.316  10.036  0.00  0.00    +0.000 OA
ATOM     31  H   UNL     1      42.427  10.817  13.135  0.00  0.00    +0.000 HD
ATOM     32  H   UNL     1      41.364  11.263  11.856  0.00  0.00    +0.000 HD
ENDBRANCH  24  28
ENDBRANCH  20  21
ENDBRANCH  19  20
ENDBRANCH  18  19
ENDBRANCH   9  18
TORSDOF 6
ENDMDL
MODEL 7
REMARK VINA RESULT:    -6.906      4.475      7.985
REMARK INTER + INTRA:          -9.670
REMARK INTER:                  -8.954
REMARK INTRA:                  -0.716
REMARK UNBOUND:                -0.341
REMARK  Name = 
REMARK  7 active torsions:
REMARK  status: ('A' for Active; 'I' for Inactive)
REMARK    1  A    between atoms: C_1  and  C_2
REMARK    2  A    between atoms: C_7  and  C_8
REMARK    3  A    between atoms: C_13  and  C_14
REMARK    4  A    between atoms: C_14  and  C_15
REMARK    5  A    between atoms: C_15  and  O_16
REMARK    6  A    between atoms: O_16  and  C_17
REMARK    7  A    between atoms: C_20  and  C_21
REMARK                            x       y       z     vdW  Elec       q    Type
REMARK                         _______ _______ _______ _____ _____    ______ ____
ROOT
ATOM      1  C   UNL     1      42.860  11.081   8.664  0.00  0.00    +0.000 C 
ATOM      2  C   UNL     1      43.974  10.539   9.551  0.00  0.00    +0.000 C 
ATOM      3  C   UNL     1      43.422   9.475  10.530  0.00  0.00    +0.000 C 
ATOM      4  N   UNL     1      44.453   9.086  11.501  0.00  0.00    +0.000 N 
ATOM      5  C   UNL     1      44.911   7.798  11.675  0.00  0.00    +0.000 A 
ATOM      6  C   UNL     1      44.111   6.711  11.384  0.00  0.00    +0.000 A 
ATOM      7  C   UNL     1      44.624   5.438  11.583  0.00  0.00    +0.000 A 
ATOM      8  N   UNL     1      45.876   5.245  12.060  0.00  0.00    +0.000 NA
ATOM      9  C   UNL     1      46.589   6.344  12.349  0.00  0.00    +0.000 A 
ATOM     10  N   UNL     1      46.150   7.604  12.165  0.00  0.00    +0.000 NA
ATOM     11  C   UNL     1      45.134  10.213  12.153  0.00  0.00    +0.000 C 
ATOM     12  C   UNL     1      45.630  11.210  11.099  0.00  0.00    +0.000 C 
ATOM     13  O   UNL     1      44.552  11.654  10.255  0.00  0.00    +0.000 OA
ENDROOT
BRANCH   7  14
ATOM     14  C   UNL     1      43.756   4.232  11.266  0.00  0.00    +0.000 C 
ATOM     15  F   UNL     1      42.458   4.381  11.677  0.00  0.00    +0.000 F 
ATOM     16  F   UNL     1      43.677   3.966   9.931  0.00  0.00    +0.000 F 
ATOM     17  F   UNL     1      44.190   3.085  11.859  0.00  0.00    +0.000 F 
ENDBRANCH   7  14
BRANCH   9  18
ATOM     18  C   UNL     1      47.989   6.146  12.866  0.00  0.00    +0.000 C 
BRANCH  18  19
ATOM     19  C   UNL     1      48.148   6.830  14.213  0.00  0.00    +0.000 C 
BRANCH  19  20
ATOM     20  O   UNL     1      49.071   6.098  15.042  0.00  0.00    +0.000 OA
BRANCH  20  21
ATOM     21  C   UNL     1      48.693   6.089  16.375  0.00  0.00    +0.000 A 
ATOM     22  N   UNL     1      49.002   7.171  17.131  0.00  0.00    +0.000 NA
ATOM     23  C   UNL     1      48.644   7.143  18.438  0.00  0.00    +0.000 A 
ATOM     24  C   UNL     1      47.983   6.084  19.041  0.00  0.00    +0.000 A 
ATOM     25  C   UNL     1      47.660   4.985  18.237  0.00  0.00    +0.000 A 
ATOM     26  C   UNL     1      48.019   4.981  16.887  0.00  0.00    +0.000 A 
ATOM     27 CL   UNL     1      47.623   3.612  15.921  0.00  0.00    +0.000 Cl
BRANCH  24  28
ATOM     28  C   UNL     1      47.615   6.075  20.478  0.00  0.00    +0.000 C 
ATOM     29  N   UNL     1      47.597   4.889  21.154  0.00  0.00    +0.000 N 
ATOM     30  O   UNL     1      47.321   7.115  21.055  0.00  0.00    +0.000 OA
ATOM     31  H   UNL     1      47.777   3.974  20.771  0.00  0.00    +0.000 HD
ATOM     32  H   UNL     1      47.313   4.930  22.126  0.00  0.00    +0.000 HD
ENDBRANCH  24  28
ENDBRANCH  20  21
ENDBRANCH  19  20
ENDBRANCH  18  19
ENDBRANCH   9  18
TORSDOF 6
ENDMDL
MODEL 8
REMARK VINA RESULT:    -6.728      3.949      8.202
REMARK INTER + INTRA:          -9.430
REMARK INTER:                  -8.160
REMARK INTRA:                  -1.270
REMARK UNBOUND:                -0.341
REMARK  Name = 
REMARK  7 active torsions:
REMARK  status: ('A' for Active; 'I' for Inactive)
REMARK    1  A    between atoms: C_1  and  C_2
REMARK    2  A    between atoms: C_7  and  C_8
REMARK    3  A    between atoms: C_13  and  C_14
REMARK    4  A    between atoms: C_14  and  C_15
REMARK    5  A    between atoms: C_15  and  O_16
REMARK    6  A    between atoms: O_16  and  C_17
REMARK    7  A    between atoms: C_20  and  C_21
REMARK                            x       y       z     vdW  Elec       q    Type
REMARK                         _______ _______ _______ _____ _____    ______ ____
ROOT
ATOM      1  C   UNL     1      42.477   6.333  11.403  0.00  0.00    +0.000 C 
ATOM      2  C   UNL     1      43.299   5.312  12.180  0.00  0.00    +0.000 C 
ATOM      3  C   UNL     1      44.813   5.595  12.018  0.00  0.00    +0.000 C 
ATOM      4  N   UNL     1      45.605   4.512  12.616  0.00  0.00    +0.000 N 
ATOM      5  C   UNL     1      46.531   4.689  13.621  0.00  0.00    +0.000 A 
ATOM      6  C   UNL     1      47.191   5.891  13.779  0.00  0.00    +0.000 A 
ATOM      7  C   UNL     1      48.116   6.010  14.805  0.00  0.00    +0.000 A 
ATOM      8  N   UNL     1      48.385   4.979  15.639  0.00  0.00    +0.000 NA
ATOM      9  C   UNL     1      47.729   3.830  15.413  0.00  0.00    +0.000 A 
ATOM     10  N   UNL     1      46.812   3.659  14.441  0.00  0.00    +0.000 NA
ATOM     11  C   UNL     1      45.194   3.160  12.212  0.00  0.00    +0.000 C 
ATOM     12  C   UNL     1      43.682   2.990  12.401  0.00  0.00    +0.000 C 
ATOM     13  O   UNL     1      42.951   4.005  11.689  0.00  0.00    +0.000 OA
ENDROOT
BRANCH   7  14
ATOM     14  C   UNL     1      48.850   7.327  14.991  0.00  0.00    +0.000 C 
ATOM     15  F   UNL     1      48.491   7.985  16.137  0.00  0.00    +0.000 F 
ATOM     16  F   UNL     1      50.203   7.177  15.077  0.00  0.00    +0.000 F 
ATOM     17  F   UNL     1      48.628   8.215  13.982  0.00  0.00    +0.000 F 
ENDBRANCH   7  14
BRANCH   9  18
ATOM     18  C   UNL     1      48.006   2.679  16.342  0.00  0.00    +0.000 C 
BRANCH  18  19
ATOM     19  C   UNL     1      47.429   2.970  17.717  0.00  0.00    +0.000 C 
BRANCH  19  20
ATOM     20  O   UNL     1      48.485   3.084  18.690  0.00  0.00    +0.000 OA
BRANCH  20  21
ATOM     21  C   UNL     1      48.955   4.382  18.811  0.00  0.00    +0.000 A 
ATOM     22  N   UNL     1      48.112   5.319  19.311  0.00  0.00    +0.000 NA
ATOM     23  C   UNL     1      48.576   6.589  19.408  0.00  0.00    +0.000 A 
ATOM     24  C   UNL     1      49.851   6.982  19.031  0.00  0.00    +0.000 A 
ATOM     25  C   UNL     1      50.708   5.995  18.532  0.00  0.00    +0.000 A 
ATOM     26  C   UNL     1      50.259   4.677  18.416  0.00  0.00    +0.000 A 
ATOM     27 CL   UNL     1      51.327   3.483  17.787  0.00  0.00    +0.000 Cl
BRANCH  24  28
ATOM     28  C   UNL     1      50.327   8.383  19.135  0.00  0.00    +0.000 C 
ATOM     29  N   UNL     1      50.039   9.104  20.259  0.00  0.00    +0.000 N 
ATOM     30  O   UNL     1      50.965   8.896  18.222  0.00  0.00    +0.000 OA
ATOM     31  H   UNL     1      49.488   8.798  21.045  0.00  0.00    +0.000 HD
ATOM     32  H   UNL     1      50.363  10.063  20.271  0.00  0.00    +0.000 HD
ENDBRANCH  24  28
ENDBRANCH  20  21
ENDBRANCH  19  20
ENDBRANCH  18  19
ENDBRANCH   9  18
TORSDOF 6
ENDMDL
MODEL 9
REMARK VINA RESULT:    -6.642      4.438      7.395
REMARK INTER + INTRA:          -9.313
REMARK INTER:                  -8.007
REMARK INTRA:                  -1.306
REMARK UNBOUND:                -0.341
REMARK  Name = 
REMARK  7 active torsions:
REMARK  status: ('A' for Active; 'I' for Inactive)
REMARK    1  A    between atoms: C_1  and  C_2
REMARK    2  A    between atoms: C_7  and  C_8
REMARK    3  A    between atoms: C_13  and  C_14
REMARK    4  A    between atoms: C_14  and  C_15
REMARK    5  A    between atoms: C_15  and  O_16
REMARK    6  A    between atoms: O_16  and  C_17
REMARK    7  A    between atoms: C_20  and  C_21
REMARK                            x       y       z     vdW  Elec       q    Type
REMARK                         _______ _______ _______ _____ _____    ______ ____
ROOT
ATOM      1  C   UNL     1      50.458   9.294  11.181  0.00  0.00    +0.000 C 
ATOM      2  C   UNL     1      50.185   8.363  12.356  0.00  0.00    +0.000 C 
ATOM      3  C   UNL     1      48.662   8.218  12.594  0.00  0.00    +0.000 C 
ATOM      4  N   UNL     1      48.404   7.470  13.832  0.00  0.00    +0.000 N 
ATOM      5  C   UNL     1      47.680   6.299  13.896  0.00  0.00    +0.000 A 
ATOM      6  C   UNL     1      46.699   6.015  12.966  0.00  0.00    +0.000 A 
ATOM      7  C   UNL     1      45.999   4.824  13.084  0.00  0.00    +0.000 A 
ATOM      8  N   UNL     1      46.251   3.950  14.085  0.00  0.00    +0.000 NA
ATOM      9  C   UNL     1      47.198   4.300  14.970  0.00  0.00    +0.000 A 
ATOM     10  N   UNL     1      47.918   5.436  14.901  0.00  0.00    +0.000 NA
ATOM     11  C   UNL     1      49.157   7.944  15.001  0.00  0.00    +0.000 C 
ATOM     12  C   UNL     1      50.646   8.063  14.655  0.00  0.00    +0.000 C 
ATOM     13  O   UNL     1      50.849   8.911  13.510  0.00  0.00    +0.000 OA
ENDROOT
BRANCH   7  14
ATOM     14  C   UNL     1      44.918   4.497  12.068  0.00  0.00    +0.000 C 
ATOM     15  F   UNL     1      43.798   5.273  12.207  0.00  0.00    +0.000 F 
ATOM     16  F   UNL     1      45.321   4.685  10.778  0.00  0.00    +0.000 F 
ATOM     17  F   UNL     1      44.476   3.211  12.146  0.00  0.00    +0.000 F 
ENDBRANCH   7  14
BRANCH   9  18
ATOM     18  C   UNL     1      47.500   3.331  16.082  0.00  0.00    +0.000 C 
BRANCH  18  19
ATOM     19  C   UNL     1      47.273   3.997  17.429  0.00  0.00    +0.000 C 
BRANCH  19  20
ATOM     20  O   UNL     1      48.333   3.655  18.342  0.00  0.00    +0.000 OA
BRANCH  20  21
ATOM     21  C   UNL     1      49.484   4.392  18.116  0.00  0.00    +0.000 A 
ATOM     22  N   UNL     1      49.438   5.729  18.337  0.00  0.00    +0.000 NA
ATOM     23  C   UNL     1      50.564   6.442  18.095  0.00  0.00    +0.000 A 
ATOM     24  C   UNL     1      51.752   5.890  17.640  0.00  0.00    +0.000 A 
ATOM     25  C   UNL     1      51.782   4.505  17.434  0.00  0.00    +0.000 A 
ATOM     26  C   UNL     1      50.636   3.742  17.671  0.00  0.00    +0.000 A 
ATOM     27 CL   UNL     1      50.691   2.044  17.397  0.00  0.00    +0.000 Cl
BRANCH  24  28
ATOM     28  C   UNL     1      52.967   6.697  17.370  0.00  0.00    +0.000 C 
ATOM     29  N   UNL     1      54.101   6.072  16.936  0.00  0.00    +0.000 N 
ATOM     30  O   UNL     1      52.962   7.911  17.540  0.00  0.00    +0.000 OA
ATOM     31  H   UNL     1      54.230   5.081  16.806  0.00  0.00    +0.000 HD
ATOM     32  H   UNL     1      54.911   6.662  16.792  0.00  0.00    +0.000 HD
ENDBRANCH  24  28
ENDBRANCH  20  21
ENDBRANCH  19  20
ENDBRANCH  18  19
ENDBRANCH   9  18
TORSDOF 6
ENDMDL
