MODEL 1
REMARK VINA RESULT:    -7.445      0.000      0.000
REMARK INTER + INTRA:         -13.196
REMARK INTER:                 -12.015
REMARK INTRA:                  -1.180
REMARK UNBOUND:                -1.180
REMARK  Name = 
REMARK  12 active torsions:
REMARK  status: ('A' for Active; 'I' for Inactive)
REMARK    1  A    between atoms: C_1  and  C_2
REMARK    2  A    between atoms: C_2  and  N_3
REMARK    3  A    between atoms: C_2  and  C_11
REMARK    4  A    between atoms: N_3  and  C_4
REMARK    5  A    between atoms: C_4  and  C_5
REMARK    6  A    between atoms: C_14  and  C_15
REMARK    7  A    between atoms: C_15  and  N_16
REMARK    8  A    between atoms: N_16  and  C_17
REMARK    9  A    between atoms: N_16  and  C_20
REMARK   10  A    between atoms: C_17  and  C_18
REMARK   11  A    between atoms: C_18  and  O_19
REMARK   12  A    between atoms: C_20  and  C_21
REMARK                            x       y       z     vdW  Elec       q    Type
REMARK                         _______ _______ _______ _____ _____    ______ ____
ROOT
ATOM      1  C   UNL     1      47.972   7.280  13.648  0.00  0.00    +0.000 A 
ATOM      2  C   UNL     1      46.985   8.249  13.389  0.00  0.00    +0.000 A 
ATOM      3  C   UNL     1      45.823   7.921  12.675  0.00  0.00    +0.000 A 
ATOM      4  C   UNL     1      45.636   6.622  12.184  0.00  0.00    +0.000 A 
ATOM      5  C   UNL     1      46.587   5.646  12.476  0.00  0.00    +0.000 A 
ATOM      6  C   UNL     1      47.739   5.972  13.193  0.00  0.00    +0.000 A 
ENDROOT
BRANCH   1   8
ATOM      7  C   UNL     1      50.376   8.104  13.375  0.00  0.00    +0.000 C 
ATOM      8  C   UNL     1      49.269   7.679  14.359  0.00  0.00    +0.000 C 
BRANCH   8   9
ATOM      9  N   UNL     1      49.714   6.603  15.271  0.00  0.00    +0.000 NA
ATOM     10  H   UNL     1      49.641   5.719  14.766  0.00  0.00    +0.000 HD
BRANCH   9  11
ATOM     11  C   UNL     1      48.865   6.511  16.467  0.00  0.00    +0.000 C 
BRANCH  11  12
ATOM     12  C   UNL     1      48.504   5.108  16.890  0.00  0.00    +0.000 A 
ATOM     13  C   UNL     1      47.174   4.728  17.049  0.00  0.00    +0.000 A 
ATOM     14  N   UNL     1      46.799   3.447  17.283  0.00  0.00    +0.000 NA
ATOM     15  C   UNL     1      47.810   2.553  17.351  0.00  0.00    +0.000 A 
ATOM     16  C   UNL     1      49.136   2.921  17.212  0.00  0.00    +0.000 A 
ATOM     17  N   UNL     1      49.513   4.200  16.982  0.00  0.00    +0.000 NA
ENDBRANCH  11  12
ENDBRANCH   9  11
ENDBRANCH   8   9
ENDBRANCH   1   8
BRANCH   4  18
ATOM     18  C   UNL     1      44.444   6.272  11.320  0.00  0.00    +0.000 C 
BRANCH  18  19
ATOM     19  N   UNL     1      44.319   4.820  11.038  0.00  0.00    +0.000 NA
BRANCH  19  20
ATOM     20  C   UNL     1      43.231   4.215  11.844  0.00  0.00    +0.000 C 
BRANCH  20  21
ATOM     21  C   UNL     1      43.543   2.816  12.409  0.00  0.00    +0.000 C 
BRANCH  21  22
ATOM     22  O   UNL     1      42.814   1.813  11.704  0.00  0.00    +0.000 OA
ATOM     23  H   UNL     1      43.273   1.664  10.859  0.00  0.00    +0.000 HD
ENDBRANCH  21  22
ENDBRANCH  20  21
ENDBRANCH  19  20
BRANCH  19  24
ATOM     24  C   UNL     1      44.034   4.648   9.589  0.00  0.00    +0.000 C 
BRANCH  24  25
ATOM     25  C   UNL     1      45.045   3.805   8.833  0.00  0.00    +0.000 A 
ATOM     26  C   UNL     1      45.140   2.435   9.072  0.00  0.00    +0.000 A 
ATOM     27  C   UNL     1      46.049   1.687   8.332  0.00  0.00    +0.000 A 
ATOM     28  C   UNL     1      46.840   2.324   7.382  0.00  0.00    +0.000 A 
ATOM     29  C   UNL     1      46.696   3.692   7.220  0.00  0.00    +0.000 A 
ATOM     30  N   UNL     1      45.821   4.443   7.920  0.00  0.00    +0.000 NA
ENDBRANCH  24  25
ENDBRANCH  19  24
ENDBRANCH  18  19
ENDBRANCH   4  18
TORSDOF 11
ENDMDL
MODEL 2
REMARK VINA RESULT:    -7.319      1.750      2.471
REMARK INTER + INTRA:         -12.992
REMARK INTER:                 -12.323
REMARK INTRA:                  -0.669
REMARK UNBOUND:                -1.180
REMARK  Name = 
REMARK  12 active torsions:
REMARK  status: ('A' for Active; 'I' for Inactive)
REMARK    1  A    between atoms: C_1  and  C_2
REMARK    2  A    between atoms: C_2  and  N_3
REMARK    3  A    between atoms: C_2  and  C_11
REMARK    4  A    between atoms: N_3  and  C_4
REMARK    5  A    between atoms: C_4  and  C_5
REMARK    6  A    between atoms: C_14  and  C_15
REMARK    7  A    between atoms: C_15  and  N_16
REMARK    8  A    between atoms: N_16  and  C_17
REMARK    9  A    between atoms: N_16  and  C_20
REMARK   10  A    between atoms: C_17  and  C_18
REMARK   11  A    between atoms: C_18  and  O_19
REMARK   12  A    between atoms: C_20  and  C_21
REMARK                            x       y       z     vdW  Elec       q    Type
REMARK                         _______ _______ _______ _____ _____    ______ ____
ROOT
ATOM      1  C   UNL     1      47.671   5.829  14.459  0.00  0.00    +0.000 A 
ATOM      2  C   UNL     1      46.783   4.754  14.275  0.00  0.00    +0.000 A 
ATOM      3  C   UNL     1      45.964   4.683  13.137  0.00  0.00    +0.000 A 
ATOM      4  C   UNL     1      46.001   5.699  12.174  0.00  0.00    +0.000 A 
ATOM      5  C   UNL     1      46.911   6.744  12.326  0.00  0.00    +0.000 A 
ATOM      6  C   UNL     1      47.730   6.809  13.455  0.00  0.00    +0.000 A 
ENDROOT
BRANCH   1   8
ATOM      7  C   UNL     1      49.783   6.757  15.561  0.00  0.00    +0.000 C 
ATOM      8  C   UNL     1      48.496   5.928  15.746  0.00  0.00    +0.000 C 
BRANCH   8   9
ATOM      9  N   UNL     1      48.773   4.581  16.291  0.00  0.00    +0.000 NA
ATOM     10  H   UNL     1      47.878   4.160  16.544  0.00  0.00    +0.000 HD
BRANCH   9  11
ATOM     11  C   UNL     1      49.602   4.639  17.503  0.00  0.00    +0.000 C 
BRANCH  11  12
ATOM     12  C   UNL     1      50.582   3.504  17.664  0.00  0.00    +0.000 A 
ATOM     13  C   UNL     1      50.243   2.207  17.289  0.00  0.00    +0.000 A 
ATOM     14  N   UNL     1      51.136   1.187  17.277  0.00  0.00    +0.000 NA
ATOM     15  C   UNL     1      52.391   1.516  17.657  0.00  0.00    +0.000 A 
ATOM     16  C   UNL     1      52.736   2.797  18.048  0.00  0.00    +0.000 A 
ATOM     17  N   UNL     1      51.845   3.815  18.064  0.00  0.00    +0.000 NA
ENDBRANCH  11  12
ENDBRANCH   9  11
ENDBRANCH   8   9
ENDBRANCH   1   8
BRANCH   4  18
ATOM     18  C   UNL     1      45.052   5.700  10.995  0.00  0.00    +0.000 C 
BRANCH  18  19
ATOM     19  N   UNL     1      44.498   4.361  10.674  0.00  0.00    +0.000 NA
BRANCH  19  20
ATOM     20  C   UNL     1      43.205   4.142  11.368  0.00  0.00    +0.000 C 
BRANCH  20  21
ATOM     21  C   UNL     1      42.527   5.421  11.894  0.00  0.00    +0.000 C 
BRANCH  21  22
ATOM     22  O   UNL     1      42.521   5.439  13.320  0.00  0.00    +0.000 OA
ATOM     23  H   UNL     1      43.072   4.696  13.620  0.00  0.00    +0.000 HD
ENDBRANCH  21  22
ENDBRANCH  20  21
ENDBRANCH  19  20
BRANCH  19  24
ATOM     24  C   UNL     1      44.305   4.274   9.203  0.00  0.00    +0.000 C 
BRANCH  24  25
ATOM     25  C   UNL     1      45.342   3.443   8.469  0.00  0.00    +0.000 A 
ATOM     26  C   UNL     1      45.496   2.089   8.763  0.00  0.00    +0.000 A 
ATOM     27  C   UNL     1      46.427   1.349   8.043  0.00  0.00    +0.000 A 
ATOM     28  C   UNL     1      47.180   1.978   7.057  0.00  0.00    +0.000 A 
ATOM     29  C   UNL     1      46.978   3.330   6.841  0.00  0.00    +0.000 A 
ATOM     30  N   UNL     1      46.080   4.073   7.520  0.00  0.00    +0.000 NA
ENDBRANCH  24  25
ENDBRANCH  19  24
ENDBRANCH  18  19
ENDBRANCH   4  18
TORSDOF 11
ENDMDL
MODEL 3
REMARK VINA RESULT:    -6.577      1.435      2.168
REMARK INTER + INTRA:         -11.794
REMARK INTER:                 -10.736
REMARK INTRA:                  -1.058
REMARK UNBOUND:                -1.180
REMARK  Name = 
REMARK  12 active torsions:
REMARK  status: ('A' for Active; 'I' for Inactive)
REMARK    1  A    between atoms: C_1  and  C_2
REMARK    2  A    between atoms: C_2  and  N_3
REMARK    3  A    between atoms: C_2  and  C_11
REMARK    4  A    between atoms: N_3  and  C_4
REMARK    5  A    between atoms: C_4  and  C_5
REMARK    6  A    between atoms: C_14  and  C_15
REMARK    7  A    between atoms: C_15  and  N_16
REMARK    8  A    between atoms: N_16  and  C_17
REMARK    9  A    between atoms: N_16  and  C_20
REMARK   10  A    between atoms: C_17  and  C_18
REMARK   11  A    between atoms: C_18  and  O_19
REMARK   12  A    between atoms: C_20  and  C_21
REMARK                            x       y       z     vdW  Elec       q    Type
REMARK                         _______ _______ _______ _____ _____    ______ ____
ROOT
ATOM      1  C   UNL     1      47.508   8.527  12.621  0.00  0.00    +0.000 A 
ATOM      2  C   UNL     1      47.885   7.449  11.799  0.00  0.00    +0.000 A 
ATOM      3  C   UNL     1      46.927   6.548  11.308  0.00  0.00    +0.000 A 
ATOM      4  C   UNL     1      45.577   6.695  11.650  0.00  0.00    +0.000 A 
ATOM      5  C   UNL     1      45.190   7.787  12.426  0.00  0.00    +0.000 A 
ATOM      6  C   UNL     1      46.143   8.686  12.907  0.00  0.00    +0.000 A 
ENDROOT
BRANCH   1   8
ATOM      7  C   UNL     1      49.868   9.477  12.364  0.00  0.00    +0.000 C 
ATOM      8  C   UNL     1      48.579   9.450  13.210  0.00  0.00    +0.000 C 
BRANCH   8   9
ATOM      9  N   UNL     1      48.846   9.103  14.623  0.00  0.00    +0.000 NA
ATOM     10  H   UNL     1      49.271   9.918  15.067  0.00  0.00    +0.000 HD
BRANCH   9  11
ATOM     11  C   UNL     1      49.788   7.981  14.745  0.00  0.00    +0.000 C 
BRANCH  11  12
ATOM     12  C   UNL     1      49.302   6.826  15.584  0.00  0.00    +0.000 A 
ATOM     13  C   UNL     1      49.700   6.689  16.911  0.00  0.00    +0.000 A 
ATOM     14  N   UNL     1      49.177   5.754  17.742  0.00  0.00    +0.000 NA
ATOM     15  C   UNL     1      48.233   4.958  17.193  0.00  0.00    +0.000 A 
ATOM     16  C   UNL     1      47.842   5.073  15.871  0.00  0.00    +0.000 A 
ATOM     17  N   UNL     1      48.366   6.002  15.039  0.00  0.00    +0.000 NA
ENDBRANCH  11  12
ENDBRANCH   9  11
ENDBRANCH   8   9
ENDBRANCH   1   8
BRANCH   4  18
ATOM     18  C   UNL     1      44.542   5.677  11.224  0.00  0.00    +0.000 C 
BRANCH  18  19
ATOM     19  N   UNL     1      45.125   4.396  10.751  0.00  0.00    +0.000 NA
BRANCH  19  20
ATOM     20  C   UNL     1      44.769   3.283  11.664  0.00  0.00    +0.000 C 
BRANCH  20  21
ATOM     21  C   UNL     1      43.261   2.983  11.762  0.00  0.00    +0.000 C 
BRANCH  21  22
ATOM     22  O   UNL     1      43.014   1.585  11.620  0.00  0.00    +0.000 OA
ATOM     23  H   UNL     1      43.875   1.151  11.499  0.00  0.00    +0.000 HD
ENDBRANCH  21  22
ENDBRANCH  20  21
ENDBRANCH  19  20
BRANCH  19  24
ATOM     24  C   UNL     1      44.604   4.121   9.387  0.00  0.00    +0.000 C 
BRANCH  24  25
ATOM     25  C   UNL     1      45.529   3.304   8.502  0.00  0.00    +0.000 A 
ATOM     26  C   UNL     1      46.287   3.926   7.511  0.00  0.00    +0.000 A 
ATOM     27  C   UNL     1      47.153   3.153   6.746  0.00  0.00    +0.000 A 
ATOM     28  C   UNL     1      47.236   1.785   6.985  0.00  0.00    +0.000 A 
ATOM     29  C   UNL     1      46.435   1.244   7.976  0.00  0.00    +0.000 A 
ATOM     30  N   UNL     1      45.588   1.968   8.736  0.00  0.00    +0.000 NA
ENDBRANCH  24  25
ENDBRANCH  19  24
ENDBRANCH  18  19
ENDBRANCH   4  18
TORSDOF 11
ENDMDL
MODEL 4
REMARK VINA RESULT:    -6.405      2.521      8.282
REMARK INTER + INTRA:         -11.517
REMARK INTER:                 -10.563
REMARK INTRA:                  -0.954
REMARK UNBOUND:                -1.180
REMARK  Name = 
REMARK  12 active torsions:
REMARK  status: ('A' for Active; 'I' for Inactive)
REMARK    1  A    between atoms: C_1  and  C_2
REMARK    2  A    between atoms: C_2  and  N_3
REMARK    3  A    between atoms: C_2  and  C_11
REMARK    4  A    between atoms: N_3  and  C_4
REMARK    5  A    between atoms: C_4  and  C_5
REMARK    6  A    between atoms: C_14  and  C_15
REMARK    7  A    between atoms: C_15  and  N_16
REMARK    8  A    between atoms: N_16  and  C_17
REMARK    9  A    between atoms: N_16  and  C_20
REMARK   10  A    between atoms: C_17  and  C_18
REMARK   11  A    between atoms: C_18  and  O_19
REMARK   12  A    between atoms: C_20  and  C_21
REMARK                            x       y       z     vdW  Elec       q    Type
REMARK                         _______ _______ _______ _____ _____    ______ ____
ROOT
ATOM      1  C   UNL     1      44.652   5.395  11.584  0.00  0.00    +0.000 A 
ATOM      2  C   UNL     1      45.626   4.795  12.402  0.00  0.00    +0.000 A 
ATOM      3  C   UNL     1      46.543   5.577  13.122  0.00  0.00    +0.000 A 
ATOM      4  C   UNL     1      46.518   6.973  13.017  0.00  0.00    +0.000 A 
ATOM      5  C   UNL     1      45.526   7.577  12.245  0.00  0.00    +0.000 A 
ATOM      6  C   UNL     1      44.611   6.797  11.536  0.00  0.00    +0.000 A 
ENDROOT
BRANCH   1   8
ATOM      7  C   UNL     1      43.226   3.274  11.510  0.00  0.00    +0.000 C 
ATOM      8  C   UNL     1      43.713   4.521  10.746  0.00  0.00    +0.000 C 
BRANCH   8   9
ATOM      9  N   UNL     1      44.341   4.174   9.453  0.00  0.00    +0.000 NA
ATOM     10  H   UNL     1      43.649   4.334   8.720  0.00  0.00    +0.000 HD
BRANCH   9  11
ATOM     11  C   UNL     1      44.739   2.761   9.397  0.00  0.00    +0.000 C 
BRANCH  11  12
ATOM     12  C   UNL     1      45.663   2.399   8.261  0.00  0.00    +0.000 A 
ATOM     13  C   UNL     1      46.037   3.349   7.313  0.00  0.00    +0.000 A 
ATOM     14  N   UNL     1      46.976   3.110   6.365  0.00  0.00    +0.000 NA
ATOM     15  C   UNL     1      47.532   1.879   6.402  0.00  0.00    +0.000 A 
ATOM     16  C   UNL     1      47.157   0.922   7.327  0.00  0.00    +0.000 A 
ATOM     17  N   UNL     1      46.217   1.157   8.272  0.00  0.00    +0.000 NA
ENDBRANCH  11  12
ENDBRANCH   9  11
ENDBRANCH   8   9
ENDBRANCH   1   8
BRANCH   4  18
ATOM     18  C   UNL     1      47.563   7.832  13.697  0.00  0.00    +0.000 C 
BRANCH  18  19
ATOM     19  N   UNL     1      48.749   7.071  14.162  0.00  0.00    +0.000 NA
BRANCH  19  20
ATOM     20  C   UNL     1      50.001   7.661  13.630  0.00  0.00    +0.000 C 
BRANCH  20  21
ATOM     21  C   UNL     1      50.951   8.238  14.696  0.00  0.00    +0.000 C 
BRANCH  21  22
ATOM     22  O   UNL     1      52.109   7.417  14.837  0.00  0.00    +0.000 OA
ATOM     23  H   UNL     1      51.864   6.668  15.407  0.00  0.00    +0.000 HD
ENDBRANCH  21  22
ENDBRANCH  20  21
ENDBRANCH  19  20
BRANCH  19  24
ATOM     24  C   UNL     1      48.767   7.098  15.648  0.00  0.00    +0.000 C 
BRANCH  24  25
ATOM     25  C   UNL     1      48.903   5.739  16.311  0.00  0.00    +0.000 A 
ATOM     26  C   UNL     1      49.977   5.473  17.159  0.00  0.00    +0.000 A 
ATOM     27  C   UNL     1      50.047   4.231  17.782  0.00  0.00    +0.000 A 
ATOM     28  C   UNL     1      49.052   3.291  17.538  0.00  0.00    +0.000 A 
ATOM     29  C   UNL     1      48.030   3.628  16.667  0.00  0.00    +0.000 A 
ATOM     30  N   UNL     1      47.933   4.825  16.052  0.00  0.00    +0.000 NA
ENDBRANCH  24  25
ENDBRANCH  19  24
ENDBRANCH  18  19
ENDBRANCH   4  18
TORSDOF 11
ENDMDL
MODEL 5
REMARK VINA RESULT:    -6.096      1.656      2.328
REMARK INTER + INTRA:         -11.018
REMARK INTER:                  -9.449
REMARK INTRA:                  -1.569
REMARK UNBOUND:                -1.180
REMARK  Name = 
REMARK  12 active torsions:
REMARK  status: ('A' for Active; 'I' for Inactive)
REMARK    1  A    between atoms: C_1  and  C_2
REMARK    2  A    between atoms: C_2  and  N_3
REMARK    3  A    between atoms: C_2  and  C_11
REMARK    4  A    between atoms: N_3  and  C_4
REMARK    5  A    between atoms: C_4  and  C_5
REMARK    6  A    between atoms: C_14  and  C_15
REMARK    7  A    between atoms: C_15  and  N_16
REMARK    8  A    between atoms: N_16  and  C_17
REMARK    9  A    between atoms: N_16  and  C_20
REMARK   10  A    between atoms: C_17  and  C_18
REMARK   11  A    between atoms: C_18  and  O_19
REMARK   12  A    between atoms: C_20  and  C_21
REMARK                            x       y       z     vdW  Elec       q    Type
REMARK                         _______ _______ _______ _____ _____    ______ ____
ROOT
ATOM      1  C   UNL     1      49.531   8.487  13.966  0.00  0.00    +0.000 A 
ATOM      2  C   UNL     1      49.605   7.709  12.796  0.00  0.00    +0.000 A 
ATOM      3  C   UNL     1      48.443   7.350  12.094  0.00  0.00    +0.000 A 
ATOM      4  C   UNL     1      47.183   7.744  12.564  0.00  0.00    +0.000 A 
ATOM      5  C   UNL     1      47.105   8.553  13.696  0.00  0.00    +0.000 A 
ATOM      6  C   UNL     1      48.262   8.914  14.388  0.00  0.00    +0.000 A 
ENDROOT
BRANCH   1   8
ATOM      7  C   UNL     1      52.075   8.264  14.071  0.00  0.00    +0.000 C 
ATOM      8  C   UNL     1      50.803   8.798  14.759  0.00  0.00    +0.000 C 
BRANCH   8   9
ATOM      9  N   UNL     1      50.679   8.318  16.153  0.00  0.00    +0.000 NA
ATOM     10  H   UNL     1      51.252   8.924  16.741  0.00  0.00    +0.000 HD
BRANCH   9  11
ATOM     11  C   UNL     1      51.174   6.943  16.306  0.00  0.00    +0.000 C 
BRANCH  11  12
ATOM     12  C   UNL     1      50.209   5.984  16.959  0.00  0.00    +0.000 A 
ATOM     13  C   UNL     1      48.935   6.397  17.337  0.00  0.00    +0.000 A 
ATOM     14  N   UNL     1      47.988   5.540  17.789  0.00  0.00    +0.000 NA
ATOM     15  C   UNL     1      48.365   4.243  17.847  0.00  0.00    +0.000 A 
ATOM     16  C   UNL     1      49.633   3.823  17.491  0.00  0.00    +0.000 A 
ATOM     17  N   UNL     1      50.582   4.678  17.043  0.00  0.00    +0.000 NA
ENDBRANCH  11  12
ENDBRANCH   9  11
ENDBRANCH   8   9
ENDBRANCH   1   8
BRANCH   4  18
ATOM     18  C   UNL     1      45.912   7.280  11.886  0.00  0.00    +0.000 C 
BRANCH  18  19
ATOM     19  N   UNL     1      45.807   5.804  11.761  0.00  0.00    +0.000 NA
BRANCH  19  20
ATOM     20  C   UNL     1      45.518   5.180  13.075  0.00  0.00    +0.000 C 
BRANCH  20  21
ATOM     21  C   UNL     1      46.384   3.952  13.414  0.00  0.00    +0.000 C 
BRANCH  21  22
ATOM     22  O   UNL     1      45.804   2.763  12.882  0.00  0.00    +0.000 OA
ATOM     23  H   UNL     1      45.310   3.015  12.083  0.00  0.00    +0.000 HD
ENDBRANCH  21  22
ENDBRANCH  20  21
ENDBRANCH  19  20
BRANCH  19  24
ATOM     24  C   UNL     1      44.718   5.493  10.800  0.00  0.00    +0.000 C 
BRANCH  24  25
ATOM     25  C   UNL     1      45.044   4.404   9.794  0.00  0.00    +0.000 A 
ATOM     26  C   UNL     1      45.764   4.704   8.639  0.00  0.00    +0.000 A 
ATOM     27  C   UNL     1      46.080   3.675   7.759  0.00  0.00    +0.000 A 
ATOM     28  C   UNL     1      45.666   2.379   8.052  0.00  0.00    +0.000 A 
ATOM     29  C   UNL     1      44.939   2.170   9.211  0.00  0.00    +0.000 A 
ATOM     30  N   UNL     1      44.621   3.147  10.085  0.00  0.00    +0.000 NA
ENDBRANCH  24  25
ENDBRANCH  19  24
ENDBRANCH  18  19
ENDBRANCH   4  18
TORSDOF 11
ENDMDL
MODEL 6
REMARK VINA RESULT:    -6.054      2.676      7.870
REMARK INTER + INTRA:         -10.951
REMARK INTER:                  -9.741
REMARK INTRA:                  -1.210
REMARK UNBOUND:                -1.180
REMARK  Name = 
REMARK  12 active torsions:
REMARK  status: ('A' for Active; 'I' for Inactive)
REMARK    1  A    between atoms: C_1  and  C_2
REMARK    2  A    between atoms: C_2  and  N_3
REMARK    3  A    between atoms: C_2  and  C_11
REMARK    4  A    between atoms: N_3  and  C_4
REMARK    5  A    between atoms: C_4  and  C_5
REMARK    6  A    between atoms: C_14  and  C_15
REMARK    7  A    between atoms: C_15  and  N_16
REMARK    8  A    between atoms: N_16  and  C_17
REMARK    9  A    between atoms: N_16  and  C_20
REMARK   10  A    between atoms: C_17  and  C_18
REMARK   11  A    between atoms: C_18  and  O_19
REMARK   12  A    between atoms: C_20  and  C_21
REMARK                            x       y       z     vdW  Elec       q    Type
REMARK                         _______ _______ _______ _____ _____    ______ ____
ROOT
ATOM      1  C   UNL     1      44.980   5.683  11.704  0.00  0.00    +0.000 A 
ATOM      2  C   UNL     1      45.506   4.810  12.674  0.00  0.00    +0.000 A 
ATOM      3  C   UNL     1      46.682   5.131  13.370  0.00  0.00    +0.000 A 
ATOM      4  C   UNL     1      47.366   6.321  13.092  0.00  0.00    +0.000 A 
ATOM      5  C   UNL     1      46.827   7.212  12.165  0.00  0.00    +0.000 A 
ATOM      6  C   UNL     1      45.654   6.894  11.479  0.00  0.00    +0.000 A 
ENDROOT
BRANCH   1   8
ATOM      7  C   UNL     1      42.477   5.172  11.773  0.00  0.00    +0.000 C 
ATOM      8  C   UNL     1      43.742   5.276  10.899  0.00  0.00    +0.000 C 
BRANCH   8   9
ATOM      9  N   UNL     1      44.000   4.033  10.139  0.00  0.00    +0.000 NA
ATOM     10  H   UNL     1      44.718   3.508  10.640  0.00  0.00    +0.000 HD
BRANCH   9  11
ATOM     11  C   UNL     1      44.505   4.311   8.787  0.00  0.00    +0.000 C 
BRANCH  11  12
ATOM     12  C   UNL     1      45.550   3.347   8.283  0.00  0.00    +0.000 A 
ATOM     13  C   UNL     1      45.547   2.014   8.686  0.00  0.00    +0.000 A 
ATOM     14  N   UNL     1      46.372   1.082   8.149  0.00  0.00    +0.000 NA
ATOM     15  C   UNL     1      47.204   1.536   7.185  0.00  0.00    +0.000 A 
ATOM     16  C   UNL     1      47.228   2.861   6.790  0.00  0.00    +0.000 A 
ATOM     17  N   UNL     1      46.409   3.793   7.328  0.00  0.00    +0.000 NA
ENDBRANCH  11  12
ENDBRANCH   9  11
ENDBRANCH   8   9
ENDBRANCH   1   8
BRANCH   4  18
ATOM     18  C   UNL     1      48.692   6.638  13.751  0.00  0.00    +0.000 C 
BRANCH  18  19
ATOM     19  N   UNL     1      48.642   7.815  14.654  0.00  0.00    +0.000 NA
BRANCH  19  20
ATOM     20  C   UNL     1      48.804   7.404  16.070  0.00  0.00    +0.000 C 
BRANCH  20  21
ATOM     21  C   UNL     1      48.893   5.883  16.298  0.00  0.00    +0.000 C 
BRANCH  21  22
ATOM     22  O   UNL     1      50.228   5.499  16.623  0.00  0.00    +0.000 OA
ATOM     23  H   UNL     1      50.815   6.213  16.320  0.00  0.00    +0.000 HD
ENDBRANCH  21  22
ENDBRANCH  20  21
ENDBRANCH  19  20
BRANCH  19  24
ATOM     24  C   UNL     1      49.734   8.746  14.268  0.00  0.00    +0.000 C 
BRANCH  24  25
ATOM     25  C   UNL     1      49.447   9.596  13.043  0.00  0.00    +0.000 A 
ATOM     26  C   UNL     1      48.274  10.345  12.963  0.00  0.00    +0.000 A 
ATOM     27  C   UNL     1      48.063  11.143  11.845  0.00  0.00    +0.000 A 
ATOM     28  C   UNL     1      49.022  11.170  10.837  0.00  0.00    +0.000 A 
ATOM     29  C   UNL     1      50.150  10.382  10.986  0.00  0.00    +0.000 A 
ATOM     30  N   UNL     1      50.384   9.600  12.061  0.00  0.00    +0.000 NA
ENDBRANCH  24  25
ENDBRANCH  19  24
ENDBRANCH  18  19
ENDBRANCH   4  18
TORSDOF 11
ENDMDL
MODEL 7
REMARK VINA RESULT:    -5.961      2.918      4.838
REMARK INTER + INTRA:         -10.800
REMARK INTER:                  -9.723
REMARK INTRA:                  -1.077
REMARK UNBOUND:                -1.180
REMARK  Name = 
REMARK  12 active torsions:
REMARK  status: ('A' for Active; 'I' for Inactive)
REMARK    1  A    between atoms: C_1  and  C_2
REMARK    2  A    between atoms: C_2  and  N_3
REMARK    3  A    between atoms: C_2  and  C_11
REMARK    4  A    between atoms: N_3  and  C_4
REMARK    5  A    between atoms: C_4  and  C_5
REMARK    6  A    between atoms: C_14  and  C_15
REMARK    7  A    between atoms: C_15  and  N_16
REMARK    8  A    between atoms: N_16  and  C_17
REMARK    9  A    between atoms: N_16  and  C_20
REMARK   10  A    between atoms: C_17  and  C_18
REMARK   11  A    between atoms: C_18  and  O_19
REMARK   12  A    between atoms: C_20  and  C_21
REMARK                            x       y       z     vdW  Elec       q    Type
REMARK                         _______ _______ _______ _____ _____    ______ ____
ROOT
ATOM      1  C   UNL     1      48.627   8.034  12.675  0.00  0.00    +0.000 A 
ATOM      2  C   UNL     1      47.512   8.712  12.149  0.00  0.00    +0.000 A 
ATOM      3  C   UNL     1      46.297   8.042  11.933  0.00  0.00    +0.000 A 
ATOM      4  C   UNL     1      46.182   6.676  12.219  0.00  0.00    +0.000 A 
ATOM      5  C   UNL     1      47.267   6.008  12.783  0.00  0.00    +0.000 A 
ATOM      6  C   UNL     1      48.473   6.677  13.004  0.00  0.00    +0.000 A 
ENDROOT
BRANCH   1   8
ATOM      7  C   UNL     1      50.033  10.055  11.988  0.00  0.00    +0.000 C 
ATOM      8  C   UNL     1      49.965   8.763  12.827  0.00  0.00    +0.000 C 
BRANCH   8   9
ATOM      9  N   UNL     1      51.092   7.850  12.538  0.00  0.00    +0.000 NA
ATOM     10  H   UNL     1      51.515   7.589  13.430  0.00  0.00    +0.000 HD
BRANCH   9  11
ATOM     11  C   UNL     1      52.128   8.496  11.720  0.00  0.00    +0.000 C 
BRANCH  11  12
ATOM     12  C   UNL     1      52.829   7.589  10.740  0.00  0.00    +0.000 A 
ATOM     13  C   UNL     1      52.239   7.260   9.522  0.00  0.00    +0.000 A 
ATOM     14  N   UNL     1      52.891   6.572   8.553  0.00  0.00    +0.000 NA
ATOM     15  C   UNL     1      54.163   6.225   8.848  0.00  0.00    +0.000 A 
ATOM     16  C   UNL     1      54.754   6.532  10.060  0.00  0.00    +0.000 A 
ATOM     17  N   UNL     1      54.104   7.215  11.031  0.00  0.00    +0.000 NA
ENDBRANCH  11  12
ENDBRANCH   9  11
ENDBRANCH   8   9
ENDBRANCH   1   8
BRANCH   4  18
ATOM     18  C   UNL     1      44.918   5.909  11.894  0.00  0.00    +0.000 C 
BRANCH  18  19
ATOM     19  N   UNL     1      45.168   4.536  11.389  0.00  0.00    +0.000 NA
BRANCH  19  20
ATOM     20  C   UNL     1      44.626   3.520  12.325  0.00  0.00    +0.000 C 
BRANCH  20  21
ATOM     21  C   UNL     1      43.191   3.054  12.016  0.00  0.00    +0.000 C 
BRANCH  21  22
ATOM     22  O   UNL     1      43.182   1.688  11.604  0.00  0.00    +0.000 OA
ATOM     23  H   UNL     1      42.323   1.521  11.179  0.00  0.00    +0.000 HD
ENDBRANCH  21  22
ENDBRANCH  20  21
ENDBRANCH  19  20
BRANCH  19  24
ATOM     24  C   UNL     1      44.515   4.400  10.061  0.00  0.00    +0.000 C 
BRANCH  24  25
ATOM     25  C   UNL     1      45.312   3.615   9.034  0.00  0.00    +0.000 A 
ATOM     26  C   UNL     1      46.024   4.280   8.037  0.00  0.00    +0.000 A 
ATOM     27  C   UNL     1      46.775   3.531   7.138  0.00  0.00    +0.000 A 
ATOM     28  C   UNL     1      46.792   2.145   7.254  0.00  0.00    +0.000 A 
ATOM     29  C   UNL     1      46.042   1.563   8.262  0.00  0.00    +0.000 A 
ATOM     30  N   UNL     1      45.306   2.263   9.150  0.00  0.00    +0.000 NA
ENDBRANCH  24  25
ENDBRANCH  19  24
ENDBRANCH  18  19
ENDBRANCH   4  18
TORSDOF 11
ENDMDL
MODEL 8
REMARK VINA RESULT:    -5.789      2.912      4.828
REMARK INTER + INTRA:         -10.522
REMARK INTER:                  -9.372
REMARK INTRA:                  -1.150
REMARK UNBOUND:                -1.180
REMARK  Name = 
REMARK  12 active torsions:
REMARK  status: ('A' for Active; 'I' for Inactive)
REMARK    1  A    between atoms: C_1  and  C_2
REMARK    2  A    between atoms: C_2  and  N_3
REMARK    3  A    between atoms: C_2  and  C_11
REMARK    4  A    between atoms: N_3  and  C_4
REMARK    5  A    between atoms: C_4  and  C_5
REMARK    6  A    between atoms: C_14  and  C_15
REMARK    7  A    between atoms: C_15  and  N_16
REMARK    8  A    between atoms: N_16  and  C_17
REMARK    9  A    between atoms: N_16  and  C_20
REMARK   10  A    between atoms: C_17  and  C_18
REMARK   11  A    between atoms: C_18  and  O_19
REMARK   12  A    between atoms: C_20  and  C_21
REMARK                            x       y       z     vdW  Elec       q    Type
REMARK                         _______ _______ _______ _____ _____    ______ ____
ROOT
ATOM      1  C   UNL     1      48.284   4.711  16.804  0.00  0.00    +0.000 A 
ATOM      2  C   UNL     1      48.853   5.937  16.412  0.00  0.00    +0.000 A 
ATOM      3  C   UNL     1      48.531   6.518  15.176  0.00  0.00    +0.000 A 
ATOM      4  C   UNL     1      47.652   5.872  14.298  0.00  0.00    +0.000 A 
ATOM      5  C   UNL     1      47.048   4.681  14.698  0.00  0.00    +0.000 A 
ATOM      6  C   UNL     1      47.364   4.108  15.931  0.00  0.00    +0.000 A 
ENDROOT
BRANCH   1   8
ATOM      7  C   UNL     1      49.585   4.984  18.988  0.00  0.00    +0.000 C 
ATOM      8  C   UNL     1      48.710   4.056  18.121  0.00  0.00    +0.000 C 
BRANCH   8   9
ATOM      9  N   UNL     1      49.360   2.752  17.867  0.00  0.00    +0.000 NA
ATOM     10  H   UNL     1      49.574   2.331  18.773  0.00  0.00    +0.000 HD
BRANCH   9  11
ATOM     11  C   UNL     1      50.622   2.901  17.130  0.00  0.00    +0.000 C 
BRANCH  11  12
ATOM     12  C   UNL     1      51.825   2.265  17.783  0.00  0.00    +0.000 A 
ATOM     13  C   UNL     1      52.044   0.893  17.695  0.00  0.00    +0.000 A 
ATOM     14  N   UNL     1      53.180   0.301  18.137  0.00  0.00    +0.000 NA
ATOM     15  C   UNL     1      54.097   1.138  18.671  0.00  0.00    +0.000 A 
ATOM     16  C   UNL     1      53.883   2.500  18.780  0.00  0.00    +0.000 A 
ATOM     17  N   UNL     1      52.747   3.093  18.343  0.00  0.00    +0.000 NA
ENDBRANCH  11  12
ENDBRANCH   9  11
ENDBRANCH   8   9
ENDBRANCH   1   8
BRANCH   4  18
ATOM     18  C   UNL     1      47.373   6.424  12.916  0.00  0.00    +0.000 C 
BRANCH  18  19
ATOM     19  N   UNL     1      46.008   6.986  12.762  0.00  0.00    +0.000 NA
BRANCH  19  20
ATOM     20  C   UNL     1      46.032   8.467  12.840  0.00  0.00    +0.000 C 
BRANCH  20  21
ATOM     21  C   UNL     1      45.033   9.181  11.910  0.00  0.00    +0.000 C 
BRANCH  21  22
ATOM     22  O   UNL     1      44.289  10.164  12.627  0.00  0.00    +0.000 OA
ATOM     23  H   UNL     1      43.433   9.765  12.859  0.00  0.00    +0.000 HD
ENDBRANCH  21  22
ENDBRANCH  20  21
ENDBRANCH  19  20
BRANCH  19  24
ATOM     24  C   UNL     1      45.471   6.555  11.445  0.00  0.00    +0.000 C 
BRANCH  24  25
ATOM     25  C   UNL     1      44.808   5.189  11.440  0.00  0.00    +0.000 A 
ATOM     26  C   UNL     1      44.112   4.739  12.561  0.00  0.00    +0.000 A 
ATOM     27  C   UNL     1      43.482   3.501  12.507  0.00  0.00    +0.000 A 
ATOM     28  C   UNL     1      43.568   2.745  11.342  0.00  0.00    +0.000 A 
ATOM     29  C   UNL     1      44.294   3.257  10.281  0.00  0.00    +0.000 A 
ATOM     30  N   UNL     1      44.913   4.456  10.302  0.00  0.00    +0.000 NA
ENDBRANCH  24  25
ENDBRANCH  19  24
ENDBRANCH  18  19
ENDBRANCH   4  18
TORSDOF 11
ENDMDL
MODEL 9
REMARK VINA RESULT:    -5.784      2.625      3.742
REMARK INTER + INTRA:         -10.514
REMARK INTER:                  -9.000
REMARK INTRA:                  -1.514
REMARK UNBOUND:                -1.180
REMARK  Name = 
REMARK  12 active torsions:
REMARK  status: ('A' for Active; 'I' for Inactive)
REMARK    1  A    between atoms: C_1  and  C_2
REMARK    2  A    between atoms: C_2  and  N_3
REMARK    3  A    between atoms: C_2  and  C_11
REMARK    4  A    between atoms: N_3  and  C_4
REMARK    5  A    between atoms: C_4  and  C_5
REMARK    6  A    between atoms: C_14  and  C_15
REMARK    7  A    between atoms: C_15  and  N_16
REMARK    8  A    between atoms: N_16  and  C_17
REMARK    9  A    between atoms: N_16  and  C_20
REMARK   10  A    between atoms: C_17  and  C_18
REMARK   11  A    between atoms: C_18  and  O_19
REMARK   12  A    between atoms: C_20  and  C_21
REMARK                            x       y       z     vdW  Elec       q    Type
REMARK                         _______ _______ _______ _____ _____    ______ ____
ROOT
ATOM      1  C   UNL     1      48.848   9.260  11.725  0.00  0.00    +0.000 A 
ATOM      2  C   UNL     1      48.860   7.865  11.540  0.00  0.00    +0.000 A 
ATOM      3  C   UNL     1      47.703   7.100  11.751  0.00  0.00    +0.000 A 
ATOM      4  C   UNL     1      46.516   7.713  12.173  0.00  0.00    +0.000 A 
ATOM      5  C   UNL     1      46.483   9.099  12.314  0.00  0.00    +0.000 A 
ATOM      6  C   UNL     1      47.634   9.859  12.098  0.00  0.00    +0.000 A 
ENDROOT
BRANCH   1   8
ATOM      7  C   UNL     1      51.333   9.189  11.130  0.00  0.00    +0.000 C 
ATOM      8  C   UNL     1      50.142  10.064  11.568  0.00  0.00    +0.000 C 
BRANCH   8   9
ATOM      9  N   UNL     1      50.433  10.828  12.801  0.00  0.00    +0.000 NA
ATOM     10  H   UNL     1      50.970  11.654  12.533  0.00  0.00    +0.000 HD
BRANCH   9  11
ATOM     11  C   UNL     1      51.243  10.052  13.750  0.00  0.00    +0.000 C 
BRANCH  11  12
ATOM     12  C   UNL     1      50.457   9.208  14.722  0.00  0.00    +0.000 A 
ATOM     13  C   UNL     1      49.474   9.775  15.529  0.00  0.00    +0.000 A 
ATOM     14  N   UNL     1      48.645   9.037  16.308  0.00  0.00    +0.000 NA
ATOM     15  C   UNL     1      48.837   7.700  16.246  0.00  0.00    +0.000 A 
ATOM     16  C   UNL     1      49.821   7.126  15.462  0.00  0.00    +0.000 A 
ATOM     17  N   UNL     1      50.651   7.862  14.688  0.00  0.00    +0.000 NA
ENDBRANCH  11  12
ENDBRANCH   9  11
ENDBRANCH   8   9
ENDBRANCH   1   8
BRANCH   4  18
ATOM     18  C   UNL     1      45.287   6.897  12.511  0.00  0.00    +0.000 C 
BRANCH  18  19
ATOM     19  N   UNL     1      45.432   5.450  12.217  0.00  0.00    +0.000 NA
BRANCH  19  20
ATOM     20  C   UNL     1      45.394   4.649  13.464  0.00  0.00    +0.000 C 
BRANCH  20  21
ATOM     21  C   UNL     1      46.772   4.334  14.076  0.00  0.00    +0.000 C 
BRANCH  21  22
ATOM     22  O   UNL     1      46.917   4.965  15.346  0.00  0.00    +0.000 OA
ATOM     23  H   UNL     1      46.312   5.727  15.361  0.00  0.00    +0.000 HD
ENDBRANCH  21  22
ENDBRANCH  20  21
ENDBRANCH  19  20
BRANCH  19  24
ATOM     24  C   UNL     1      44.322   5.042  11.317  0.00  0.00    +0.000 C 
BRANCH  24  25
ATOM     25  C   UNL     1      44.739   4.194  10.129  0.00  0.00    +0.000 A 
ATOM     26  C   UNL     1      45.474   4.754   9.086  0.00  0.00    +0.000 A 
ATOM     27  C   UNL     1      45.875   3.938   8.034  0.00  0.00    +0.000 A 
ATOM     28  C   UNL     1      45.528   2.591   8.048  0.00  0.00    +0.000 A 
ATOM     29  C   UNL     1      44.780   2.118   9.113  0.00  0.00    +0.000 A 
ATOM     30  N   UNL     1      44.380   2.884  10.149  0.00  0.00    +0.000 NA
ENDBRANCH  24  25
ENDBRANCH  19  24
ENDBRANCH  18  19
ENDBRANCH   4  18
TORSDOF 11
ENDMDL
