MODEL 1
REMARK VINA RESULT:    -7.795      0.000      0.000
REMARK INTER + INTRA:         -11.454
REMARK INTER:                 -10.530
REMARK INTRA:                  -0.925
REMARK UNBOUND:                -0.925
REMARK  Name = 
REMARK  7 active torsions:
REMARK  status: ('A' for Active; 'I' for Inactive)
REMARK    1  A    between atoms: C_1  and  N_2
REMARK    2  A    between atoms: C_4  and  C_5
REMARK    3  A    between atoms: N_7  and  C_8
REMARK    4  A    between atoms: C_8  and  C_9
REMARK    5  A    between atoms: C_12  and  N_13
REMARK    6  A    between atoms: N_13  and  C_14
REMARK    7  A    between atoms: C_14  and  C_15
REMARK                            x       y       z     vdW  Elec       q    Type
REMARK                         _______ _______ _______ _____ _____    ______ ____
ROOT
ATOM      1  C   UNL     1      46.970   7.862  13.009  0.00  0.00    +0.000 C 
ENDROOT
BRANCH   1   2
ATOM      2  C   UNL     1      46.168   6.935  12.149  0.00  0.00    +0.000 A 
ATOM      3  C   UNL     1      46.598   6.629  10.856  0.00  0.00    +0.000 A 
ATOM      4  C   UNL     1      45.907   5.693  10.083  0.00  0.00    +0.000 A 
ATOM      5  C   UNL     1      44.756   5.061  10.560  0.00  0.00    +0.000 A 
ATOM      6  C   UNL     1      44.320   5.394  11.848  0.00  0.00    +0.000 A 
ATOM      7  C   UNL     1      45.010   6.323  12.635  0.00  0.00    +0.000 A 
BRANCH   5   8
ATOM      8  N   UNL     1      44.092   4.072   9.867  0.00  0.00    +0.000 N 
ATOM      9  H   UNL     1      43.391   4.345   9.182  0.00  0.00    +0.000 HD
BRANCH   8  10
ATOM     10  C   UNL     1      44.541   2.692   9.760  0.00  0.00    +0.000 C 
BRANCH  10  11
ATOM     11  C   UNL     1      45.701   2.570   8.742  0.00  0.00    +0.000 C 
ATOM     12  C   UNL     1      45.408   3.398   7.478  0.00  0.00    +0.000 C 
ATOM     13  C   UNL     1      46.542   3.284   6.465  0.00  0.00    +0.000 C 
ATOM     14  C   UNL     1      46.886   1.821   6.197  0.00  0.00    +0.000 C 
ATOM     15  C   UNL     1      47.115   1.054   7.497  0.00  0.00    +0.000 C 
ATOM     16  N   UNL     1      45.948   1.162   8.371  0.00  0.00    +0.000 NA
ATOM     17  H   UNL     1      46.098   0.611   9.217  0.00  0.00    +0.000 HD
ENDBRANCH  10  11
ENDBRANCH   8  10
ENDBRANCH   5   8
ENDBRANCH   1   2
BRANCH   1  20
ATOM     18  C   UNL     1      48.571   6.880  14.539  0.00  0.00    +0.000 C 
ATOM     19  O   UNL     1      49.438   6.951  13.679  0.00  0.00    +0.000 OA
ATOM     20  N   UNL     1      47.288   7.316  14.300  0.00  0.00    +0.000 N 
ATOM     21  H   UNL     1      46.598   7.232  15.042  0.00  0.00    +0.000 HD
BRANCH  18  25
ATOM     22  C   UNL     1      50.275   6.595  19.072  0.00  0.00    +0.000 C 
ATOM     23  N   UNL     1      49.565   6.214  17.875  0.00  0.00    +0.000 N 
ATOM     24  N   UNL     1      49.568   7.006  16.784  0.00  0.00    +0.000 NA
ATOM     25  C   UNL     1      48.809   6.329  15.886  0.00  0.00    +0.000 A 
ATOM     26  C   UNL     1      48.329   5.097  16.433  0.00  0.00    +0.000 A 
ATOM     27  C   UNL     1      47.560   3.987  16.108  0.00  0.00    +0.000 A 
ATOM     28 CL   UNL     1      46.826   3.799  14.593  0.00  0.00    +0.000 Cl
ATOM     29  N   UNL     1      47.348   2.987  16.980  0.00  0.00    +0.000 NA
ATOM     30  C   UNL     1      47.910   3.099  18.189  0.00  0.00    +0.000 A 
ATOM     31  N   UNL     1      48.673   4.104  18.644  0.00  0.00    +0.000 NA
ATOM     32  C   UNL     1      48.844   5.067  17.719  0.00  0.00    +0.000 A 
ENDBRANCH  18  25
ENDBRANCH   1  20
TORSDOF 6
ENDMDL
MODEL 2
REMARK VINA RESULT:    -7.780      1.218      1.706
REMARK INTER + INTRA:         -11.434
REMARK INTER:                 -10.450
REMARK INTRA:                  -0.984
REMARK UNBOUND:                -0.925
REMARK  Name = 
REMARK  7 active torsions:
REMARK  status: ('A' for Active; 'I' for Inactive)
REMARK    1  A    between atoms: C_1  and  N_2
REMARK    2  A    between atoms: C_4  and  C_5
REMARK    3  A    between atoms: N_7  and  C_8
REMARK    4  A    between atoms: C_8  and  C_9
REMARK    5  A    between atoms: C_12  and  N_13
REMARK    6  A    between atoms: N_13  and  C_14
REMARK    7  A    between atoms: C_14  and  C_15
REMARK                            x       y       z     vdW  Elec       q    Type
REMARK                         _______ _______ _______ _____ _____    ______ ____
ROOT
ATOM      1  C   UNL     1      47.799   8.588  14.005  0.00  0.00    +0.000 C 
ENDROOT
BRANCH   1   2
ATOM      2  C   UNL     1      46.902   7.974  12.974  0.00  0.00    +0.000 A 
ATOM      3  C   UNL     1      47.322   6.851  12.259  0.00  0.00    +0.000 A 
ATOM      4  C   UNL     1      46.456   6.216  11.366  0.00  0.00    +0.000 A 
ATOM      5  C   UNL     1      45.165   6.698  11.135  0.00  0.00    +0.000 A 
ATOM      6  C   UNL     1      44.764   7.840  11.839  0.00  0.00    +0.000 A 
ATOM      7  C   UNL     1      45.620   8.478  12.744  0.00  0.00    +0.000 A 
BRANCH   5   8
ATOM      8  N   UNL     1      44.249   6.058  10.328  0.00  0.00    +0.000 N 
ATOM      9  H   UNL     1      44.016   6.477   9.430  0.00  0.00    +0.000 HD
BRANCH   8  10
ATOM     10  C   UNL     1      43.849   4.667  10.471  0.00  0.00    +0.000 C 
BRANCH  10  11
ATOM     11  C   UNL     1      44.381   3.819   9.291  0.00  0.00    +0.000 C 
ATOM     12  C   UNL     1      44.977   2.492   9.795  0.00  0.00    +0.000 C 
ATOM     13  C   UNL     1      45.508   1.649   8.641  0.00  0.00    +0.000 C 
ATOM     14  C   UNL     1      46.445   2.467   7.757  0.00  0.00    +0.000 C 
ATOM     15  C   UNL     1      45.805   3.788   7.336  0.00  0.00    +0.000 C 
ATOM     16  N   UNL     1      45.395   4.557   8.510  0.00  0.00    +0.000 NA
ATOM     17  H   UNL     1      45.008   5.455   8.216  0.00  0.00    +0.000 HD
ENDBRANCH  10  11
ENDBRANCH   8  10
ENDBRANCH   5   8
ENDBRANCH   1   2
BRANCH   1  20
ATOM     18  C   UNL     1      49.145   7.042  15.297  0.00  0.00    +0.000 C 
ATOM     19  O   UNL     1      50.019   7.088  14.442  0.00  0.00    +0.000 OA
ATOM     20  N   UNL     1      47.981   7.766  15.170  0.00  0.00    +0.000 N 
ATOM     21  H   UNL     1      47.279   7.692  15.902  0.00  0.00    +0.000 HD
BRANCH  18  25
ATOM     22  C   UNL     1      50.735   5.574  19.638  0.00  0.00    +0.000 C 
ATOM     23  N   UNL     1      49.955   5.585  18.424  0.00  0.00    +0.000 N 
ATOM     24  N   UNL     1      50.144   6.536  17.486  0.00  0.00    +0.000 NA
ATOM     25  C   UNL     1      49.248   6.222  16.517  0.00  0.00    +0.000 A 
ATOM     26  C   UNL     1      48.492   5.056  16.863  0.00  0.00    +0.000 A 
ATOM     27  C   UNL     1      47.484   4.229  16.384  0.00  0.00    +0.000 A 
ATOM     28 CL   UNL     1      46.727   4.486  14.891  0.00  0.00    +0.000 Cl
ATOM     29  N   UNL     1      47.044   3.167  17.079  0.00  0.00    +0.000 NA
ATOM     30  C   UNL     1      47.617   2.930  18.265  0.00  0.00    +0.000 A 
ATOM     31  N   UNL     1      48.594   3.635  18.854  0.00  0.00    +0.000 NA
ATOM     32  C   UNL     1      48.986   4.681  18.103  0.00  0.00    +0.000 A 
ENDBRANCH  18  25
ENDBRANCH   1  20
TORSDOF 6
ENDMDL
MODEL 3
REMARK VINA RESULT:    -7.628      2.440      3.172
REMARK INTER + INTRA:         -11.229
REMARK INTER:                 -10.422
REMARK INTRA:                  -0.807
REMARK UNBOUND:                -0.925
REMARK  Name = 
REMARK  7 active torsions:
REMARK  status: ('A' for Active; 'I' for Inactive)
REMARK    1  A    between atoms: C_1  and  N_2
REMARK    2  A    between atoms: C_4  and  C_5
REMARK    3  A    between atoms: N_7  and  C_8
REMARK    4  A    between atoms: C_8  and  C_9
REMARK    5  A    between atoms: C_12  and  N_13
REMARK    6  A    between atoms: N_13  and  C_14
REMARK    7  A    between atoms: C_14  and  C_15
REMARK                            x       y       z     vdW  Elec       q    Type
REMARK                         _______ _______ _______ _____ _____    ______ ____
ROOT
ATOM      1  C   UNL     1      48.321   6.672  14.118  0.00  0.00    +0.000 C 
ENDROOT
BRANCH   1   2
ATOM      2  C   UNL     1      47.265   5.978  13.315  0.00  0.00    +0.000 A 
ATOM      3  C   UNL     1      46.807   6.541  12.122  0.00  0.00    +0.000 A 
ATOM      4  C   UNL     1      45.892   5.854  11.321  0.00  0.00    +0.000 A 
ATOM      5  C   UNL     1      45.385   4.608  11.696  0.00  0.00    +0.000 A 
ATOM      6  C   UNL     1      45.833   4.065  12.907  0.00  0.00    +0.000 A 
ATOM      7  C   UNL     1      46.756   4.739  13.713  0.00  0.00    +0.000 A 
BRANCH   5   8
ATOM      8  N   UNL     1      44.548   3.858  10.899  0.00  0.00    +0.000 N 
ATOM      9  H   UNL     1      43.994   3.122  11.333  0.00  0.00    +0.000 HD
BRANCH   8  10
ATOM     10  C   UNL     1      44.109   4.243   9.567  0.00  0.00    +0.000 C 
BRANCH  10  11
ATOM     11  C   UNL     1      44.870   3.439   8.485  0.00  0.00    +0.000 C 
ATOM     12  C   UNL     1      45.475   2.156   9.081  0.00  0.00    +0.000 C 
ATOM     13  C   UNL     1      46.230   1.357   8.025  0.00  0.00    +0.000 C 
ATOM     14  C   UNL     1      47.229   2.242   7.285  0.00  0.00    +0.000 C 
ATOM     15  C   UNL     1      46.568   3.517   6.765  0.00  0.00    +0.000 C 
ATOM     16  N   UNL     1      45.934   4.250   7.859  0.00  0.00    +0.000 NA
ATOM     17  H   UNL     1      45.533   5.119   7.505  0.00  0.00    +0.000 HD
ENDBRANCH  10  11
ENDBRANCH   8  10
ENDBRANCH   5   8
ENDBRANCH   1   2
BRANCH   1  20
ATOM     18  C   UNL     1      49.138   6.408  16.383  0.00  0.00    +0.000 C 
ATOM     19  O   UNL     1      50.271   6.233  15.955  0.00  0.00    +0.000 OA
ATOM     20  N   UNL     1      48.080   6.639  15.534  0.00  0.00    +0.000 N 
ATOM     21  H   UNL     1      47.154   6.773  15.934  0.00  0.00    +0.000 HD
BRANCH  18  25
ATOM     22  C   UNL     1      48.626   4.661  20.879  0.00  0.00    +0.000 C 
ATOM     23  N   UNL     1      48.579   5.606  19.789  0.00  0.00    +0.000 N 
ATOM     24  N   UNL     1      48.991   5.259  18.553  0.00  0.00    +0.000 NA
ATOM     25  C   UNL     1      48.802   6.384  17.818  0.00  0.00    +0.000 A 
ATOM     26  C   UNL     1      48.264   7.444  18.616  0.00  0.00    +0.000 A 
ATOM     27  C   UNL     1      47.851   8.768  18.534  0.00  0.00    +0.000 A 
ATOM     28 CL   UNL     1      47.911   9.653  17.092  0.00  0.00    +0.000 Cl
ATOM     29  N   UNL     1      47.376   9.432  19.601  0.00  0.00    +0.000 NA
ATOM     30  C   UNL     1      47.314   8.767  20.760  0.00  0.00    +0.000 A 
ATOM     31  N   UNL     1      47.673   7.496  20.991  0.00  0.00    +0.000 NA
ATOM     32  C   UNL     1      48.138   6.892  19.881  0.00  0.00    +0.000 A 
ENDBRANCH  18  25
ENDBRANCH   1  20
TORSDOF 6
ENDMDL
MODEL 4
REMARK VINA RESULT:    -7.454      1.870      2.258
REMARK INTER + INTRA:         -10.994
REMARK INTER:                 -10.082
REMARK INTRA:                  -0.912
REMARK UNBOUND:                -0.925
REMARK  Name = 
REMARK  7 active torsions:
REMARK  status: ('A' for Active; 'I' for Inactive)
REMARK    1  A    between atoms: C_1  and  N_2
REMARK    2  A    between atoms: C_4  and  C_5
REMARK    3  A    between atoms: N_7  and  C_8
REMARK    4  A    between atoms: C_8  and  C_9
REMARK    5  A    between atoms: C_12  and  N_13
REMARK    6  A    between atoms: N_13  and  C_14
REMARK    7  A    between atoms: C_14  and  C_15
REMARK                            x       y       z     vdW  Elec       q    Type
REMARK                         _______ _______ _______ _____ _____    ______ ____
ROOT
ATOM      1  C   UNL     1      48.206   7.414  13.696  0.00  0.00    +0.000 C 
ENDROOT
BRANCH   1   2
ATOM      2  C   UNL     1      47.210   6.526  13.015  0.00  0.00    +0.000 A 
ATOM      3  C   UNL     1      46.654   6.906  11.792  0.00  0.00    +0.000 A 
ATOM      4  C   UNL     1      45.798   6.042  11.105  0.00  0.00    +0.000 A 
ATOM      5  C   UNL     1      45.447   4.795  11.628  0.00  0.00    +0.000 A 
ATOM      6  C   UNL     1      45.991   4.436  12.867  0.00  0.00    +0.000 A 
ATOM      7  C   UNL     1      46.857   5.289  13.559  0.00  0.00    +0.000 A 
BRANCH   5   8
ATOM      8  N   UNL     1      44.675   3.877  10.949  0.00  0.00    +0.000 N 
ATOM      9  H   UNL     1      44.304   3.080  11.461  0.00  0.00    +0.000 HD
BRANCH   8  10
ATOM     10  C   UNL     1      44.043   4.118   9.661  0.00  0.00    +0.000 C 
BRANCH  10  11
ATOM     11  C   UNL     1      44.799   3.378   8.531  0.00  0.00    +0.000 C 
ATOM     12  C   UNL     1      45.464   2.097   9.067  0.00  0.00    +0.000 C 
ATOM     13  C   UNL     1      46.214   1.359   7.963  0.00  0.00    +0.000 C 
ATOM     14  C   UNL     1      47.161   2.302   7.226  0.00  0.00    +0.000 C 
ATOM     15  C   UNL     1      46.444   3.570   6.768  0.00  0.00    +0.000 C 
ATOM     16  N   UNL     1      45.817   4.244   7.904  0.00  0.00    +0.000 NA
ATOM     17  H   UNL     1      45.377   5.111   7.591  0.00  0.00    +0.000 HD
ENDBRANCH  10  11
ENDBRANCH   8  10
ENDBRANCH   5   8
ENDBRANCH   1   2
BRANCH   1  20
ATOM     18  C   UNL     1      49.026   7.044  15.946  0.00  0.00    +0.000 C 
ATOM     19  O   UNL     1      50.062   6.580  15.492  0.00  0.00    +0.000 OA
ATOM     20  N   UNL     1      48.021   7.496  15.119  0.00  0.00    +0.000 N 
ATOM     21  H   UNL     1      47.174   7.868  15.540  0.00  0.00    +0.000 HD
BRANCH  18  25
ATOM     22  C   UNL     1      48.006   9.135  20.202  0.00  0.00    +0.000 C 
ATOM     23  N   UNL     1      48.306   8.089  19.255  0.00  0.00    +0.000 N 
ATOM     24  N   UNL     1      48.503   8.369  17.950  0.00  0.00    +0.000 NA
ATOM     25  C   UNL     1      48.753   7.159  17.390  0.00  0.00    +0.000 A 
ATOM     26  C   UNL     1      48.709   6.113  18.366  0.00  0.00    +0.000 A 
ATOM     27  C   UNL     1      48.857   4.738  18.497  0.00  0.00    +0.000 A 
ATOM     28 CL   UNL     1      49.215   3.731  17.184  0.00  0.00    +0.000 Cl
ATOM     29  N   UNL     1      48.724   4.118  19.682  0.00  0.00    +0.000 NA
ATOM     30  C   UNL     1      48.440   4.879  20.744  0.00  0.00    +0.000 A 
ATOM     31  N   UNL     1      48.269   6.209  20.772  0.00  0.00    +0.000 NA
ATOM     32  C   UNL     1      48.418   6.764  19.554  0.00  0.00    +0.000 A 
ENDBRANCH  18  25
ENDBRANCH   1  20
TORSDOF 6
ENDMDL
MODEL 5
REMARK VINA RESULT:    -7.104      2.466      3.258
REMARK INTER + INTRA:         -10.521
REMARK INTER:                  -9.765
REMARK INTRA:                  -0.755
REMARK UNBOUND:                -0.925
REMARK  Name = 
REMARK  7 active torsions:
REMARK  status: ('A' for Active; 'I' for Inactive)
REMARK    1  A    between atoms: C_1  and  N_2
REMARK    2  A    between atoms: C_4  and  C_5
REMARK    3  A    between atoms: N_7  and  C_8
REMARK    4  A    between atoms: C_8  and  C_9
REMARK    5  A    between atoms: C_12  and  N_13
REMARK    6  A    between atoms: N_13  and  C_14
REMARK    7  A    between atoms: C_14  and  C_15
REMARK                            x       y       z     vdW  Elec       q    Type
REMARK                         _______ _______ _______ _____ _____    ______ ____
ROOT
ATOM      1  C   UNL     1      47.660   4.620  14.838  0.00  0.00    +0.000 C 
ENDROOT
BRANCH   1   2
ATOM      2  C   UNL     1      46.866   4.868  13.593  0.00  0.00    +0.000 A 
ATOM      3  C   UNL     1      47.139   5.983  12.798  0.00  0.00    +0.000 A 
ATOM      4  C   UNL     1      46.468   6.170  11.587  0.00  0.00    +0.000 A 
ATOM      5  C   UNL     1      45.488   5.275  11.150  0.00  0.00    +0.000 A 
ATOM      6  C   UNL     1      45.206   4.174  11.968  0.00  0.00    +0.000 A 
ATOM      7  C   UNL     1      45.878   3.971  13.178  0.00  0.00    +0.000 A 
BRANCH   5   8
ATOM      8  N   UNL     1      44.861   5.373   9.927  0.00  0.00    +0.000 N 
ATOM      9  H   UNL     1      45.174   6.091   9.277  0.00  0.00    +0.000 HD
BRANCH   8  10
ATOM     10  C   UNL     1      44.041   4.330   9.331  0.00  0.00    +0.000 C 
BRANCH  10  11
ATOM     11  C   UNL     1      44.862   3.501   8.313  0.00  0.00    +0.000 C 
ATOM     12  C   UNL     1      45.404   2.217   8.964  0.00  0.00    +0.000 C 
ATOM     13  C   UNL     1      46.218   1.393   7.972  0.00  0.00    +0.000 C 
ATOM     14  C   UNL     1      47.279   2.254   7.292  0.00  0.00    +0.000 C 
ATOM     15  C   UNL     1      46.676   3.532   6.713  0.00  0.00    +0.000 C 
ATOM     16  N   UNL     1      45.980   4.288   7.752  0.00  0.00    +0.000 NA
ATOM     17  H   UNL     1      45.617   5.159   7.361  0.00  0.00    +0.000 HD
ENDBRANCH  10  11
ENDBRANCH   8  10
ENDBRANCH   5   8
ENDBRANCH   1   2
BRANCH   1  20
ATOM     18  C   UNL     1      48.656   5.810  16.698  0.00  0.00    +0.000 C 
ATOM     19  O   UNL     1      49.529   4.957  16.777  0.00  0.00    +0.000 OA
ATOM     20  N   UNL     1      47.662   5.732  15.749  0.00  0.00    +0.000 N 
ATOM     21  H   UNL     1      46.953   6.459  15.724  0.00  0.00    +0.000 HD
BRANCH  18  25
ATOM     22  C   UNL     1      48.339  10.456  18.054  0.00  0.00    +0.000 C 
ATOM     23  N   UNL     1      48.442   9.022  18.179  0.00  0.00    +0.000 N 
ATOM     24  N   UNL     1      48.487   8.232  17.087  0.00  0.00    +0.000 NA
ATOM     25  C   UNL     1      48.580   6.978  17.595  0.00  0.00    +0.000 A 
ATOM     26  C   UNL     1      48.591   6.994  19.026  0.00  0.00    +0.000 A 
ATOM     27  C   UNL     1      48.660   6.146  20.125  0.00  0.00    +0.000 A 
ATOM     28 CL   UNL     1      48.777   4.464  19.972  0.00  0.00    +0.000 Cl
ATOM     29  N   UNL     1      48.639   6.612  21.385  0.00  0.00    +0.000 NA
ATOM     30  C   UNL     1      48.547   7.937  21.548  0.00  0.00    +0.000 A 
ATOM     31  N   UNL     1      48.473   8.873  20.590  0.00  0.00    +0.000 NA
ATOM     32  C   UNL     1      48.500   8.337  19.356  0.00  0.00    +0.000 A 
ENDBRANCH  18  25
ENDBRANCH   1  20
TORSDOF 6
ENDMDL
MODEL 6
REMARK VINA RESULT:    -6.888      3.671      5.450
REMARK INTER + INTRA:         -10.230
REMARK INTER:                  -9.356
REMARK INTRA:                  -0.874
REMARK UNBOUND:                -0.925
REMARK  Name = 
REMARK  7 active torsions:
REMARK  status: ('A' for Active; 'I' for Inactive)
REMARK    1  A    between atoms: C_1  and  N_2
REMARK    2  A    between atoms: C_4  and  C_5
REMARK    3  A    between atoms: N_7  and  C_8
REMARK    4  A    between atoms: C_8  and  C_9
REMARK    5  A    between atoms: C_12  and  N_13
REMARK    6  A    between atoms: N_13  and  C_14
REMARK    7  A    between atoms: C_14  and  C_15
REMARK                            x       y       z     vdW  Elec       q    Type
REMARK                         _______ _______ _______ _____ _____    ______ ____
ROOT
ATOM      1  C   UNL     1      47.871   6.478  13.563  0.00  0.00    +0.000 C 
ENDROOT
BRANCH   1   2
ATOM      2  C   UNL     1      46.814   5.798  12.748  0.00  0.00    +0.000 A 
ATOM      3  C   UNL     1      46.403   6.349  11.532  0.00  0.00    +0.000 A 
ATOM      4  C   UNL     1      45.488   5.673  10.722  0.00  0.00    +0.000 A 
ATOM      5  C   UNL     1      44.934   4.451  11.111  0.00  0.00    +0.000 A 
ATOM      6  C   UNL     1      45.334   3.921  12.344  0.00  0.00    +0.000 A 
ATOM      7  C   UNL     1      46.257   4.584  13.159  0.00  0.00    +0.000 A 
BRANCH   5   8
ATOM      8  N   UNL     1      44.094   3.709  10.309  0.00  0.00    +0.000 N 
ATOM      9  H   UNL     1      43.323   4.182   9.843  0.00  0.00    +0.000 HD
BRANCH   8  10
ATOM     10  C   UNL     1      44.407   2.391   9.777  0.00  0.00    +0.000 C 
BRANCH  10  11
ATOM     11  C   UNL     1      45.629   2.458   8.829  0.00  0.00    +0.000 C 
ATOM     12  C   UNL     1      45.365   3.430   7.664  0.00  0.00    +0.000 C 
ATOM     13  C   UNL     1      46.560   3.502   6.721  0.00  0.00    +0.000 C 
ATOM     14  C   UNL     1      47.000   2.105   6.292  0.00  0.00    +0.000 C 
ATOM     15  C   UNL     1      47.195   1.186   7.496  0.00  0.00    +0.000 C 
ATOM     16  N   UNL     1      45.975   1.124   8.299  0.00  0.00    +0.000 NA
ATOM     17  H   UNL     1      46.106   0.475   9.076  0.00  0.00    +0.000 HD
ENDBRANCH  10  11
ENDBRANCH   8  10
ENDBRANCH   5   8
ENDBRANCH   1   2
BRANCH   1  20
ATOM     18  C   UNL     1      49.821   7.907  13.415  0.00  0.00    +0.000 C 
ATOM     19  O   UNL     1      49.930   7.886  14.633  0.00  0.00    +0.000 OA
ATOM     20  N   UNL     1      48.812   7.225  12.774  0.00  0.00    +0.000 N 
ATOM     21  H   UNL     1      48.755   7.276  11.760  0.00  0.00    +0.000 HD
BRANCH  18  25
ATOM     22  C   UNL     1      53.979   9.235  11.301  0.00  0.00    +0.000 C 
ATOM     23  N   UNL     1      52.570   9.229  11.611  0.00  0.00    +0.000 N 
ATOM     24  N   UNL     1      52.063   8.364  12.513  0.00  0.00    +0.000 NA
ATOM     25  C   UNL     1      50.737   8.652  12.533  0.00  0.00    +0.000 A 
ATOM     26  C   UNL     1      50.421   9.714  11.626  0.00  0.00    +0.000 A 
ATOM     27  C   UNL     1      49.351  10.469  11.164  0.00  0.00    +0.000 A 
ATOM     28 CL   UNL     1      47.767  10.238  11.715  0.00  0.00    +0.000 Cl
ATOM     29  N   UNL     1      49.507  11.436  10.244  0.00  0.00    +0.000 NA
ATOM     30  C   UNL     1      50.744  11.650   9.782  0.00  0.00    +0.000 A 
ATOM     31  N   UNL     1      51.867  11.005  10.132  0.00  0.00    +0.000 NA
ATOM     32  C   UNL     1      51.637  10.053  11.055  0.00  0.00    +0.000 A 
ENDBRANCH  18  25
ENDBRANCH   1  20
TORSDOF 6
ENDMDL
MODEL 7
REMARK VINA RESULT:    -6.634      2.641      3.755
REMARK INTER + INTRA:          -9.886
REMARK INTER:                  -9.077
REMARK INTRA:                  -0.809
REMARK UNBOUND:                -0.925
REMARK  Name = 
REMARK  7 active torsions:
REMARK  status: ('A' for Active; 'I' for Inactive)
REMARK    1  A    between atoms: C_1  and  N_2
REMARK    2  A    between atoms: C_4  and  C_5
REMARK    3  A    between atoms: N_7  and  C_8
REMARK    4  A    between atoms: C_8  and  C_9
REMARK    5  A    between atoms: C_12  and  N_13
REMARK    6  A    between atoms: N_13  and  C_14
REMARK    7  A    between atoms: C_14  and  C_15
REMARK                            x       y       z     vdW  Elec       q    Type
REMARK                         _______ _______ _______ _____ _____    ______ ____
ROOT
ATOM      1  C   UNL     1      48.457   7.782  15.049  0.00  0.00    +0.000 C 
ENDROOT
BRANCH   1   2
ATOM      2  C   UNL     1      47.513   7.388  13.955  0.00  0.00    +0.000 A 
ATOM      3  C   UNL     1      46.821   8.367  13.239  0.00  0.00    +0.000 A 
ATOM      4  C   UNL     1      46.013   8.014  12.157  0.00  0.00    +0.000 A 
ATOM      5  C   UNL     1      45.844   6.679  11.777  0.00  0.00    +0.000 A 
ATOM      6  C   UNL     1      46.523   5.705  12.519  0.00  0.00    +0.000 A 
ATOM      7  C   UNL     1      47.343   6.048  13.598  0.00  0.00    +0.000 A 
BRANCH   5   8
ATOM      8  N   UNL     1      45.125   6.291  10.667  0.00  0.00    +0.000 N 
ATOM      9  H   UNL     1      45.449   6.588   9.750  0.00  0.00    +0.000 HD
BRANCH   8  10
ATOM     10  C   UNL     1      44.156   5.206  10.647  0.00  0.00    +0.000 C 
BRANCH  10  11
ATOM     11  C   UNL     1      44.462   4.218   9.496  0.00  0.00    +0.000 C 
ATOM     12  C   UNL     1      44.787   2.818  10.048  0.00  0.00    +0.000 C 
ATOM     13  C   UNL     1      45.094   1.836   8.923  0.00  0.00    +0.000 C 
ATOM     14  C   UNL     1      46.150   2.404   7.979  0.00  0.00    +0.000 C 
ATOM     15  C   UNL     1      45.784   3.811   7.511  0.00  0.00    +0.000 C 
ATOM     16  N   UNL     1      45.580   4.696   8.657  0.00  0.00    +0.000 NA
ATOM     17  H   UNL     1      45.377   5.642   8.330  0.00  0.00    +0.000 HD
ENDBRANCH  10  11
ENDBRANCH   8  10
ENDBRANCH   5   8
ENDBRANCH   1   2
BRANCH   1  20
ATOM     18  C   UNL     1      49.204   6.192  16.717  0.00  0.00    +0.000 C 
ATOM     19  O   UNL     1      48.351   6.603  17.491  0.00  0.00    +0.000 OA
ATOM     20  N   UNL     1      49.340   6.722  15.454  0.00  0.00    +0.000 N 
ATOM     21  H   UNL     1      50.067   6.355  14.846  0.00  0.00    +0.000 HD
BRANCH  18  25
ATOM     22  C   UNL     1      50.885   1.690  17.377  0.00  0.00    +0.000 C 
ATOM     23  N   UNL     1      50.880   3.133  17.342  0.00  0.00    +0.000 N 
ATOM     24  N   UNL     1      49.779   3.814  16.963  0.00  0.00    +0.000 NA
ATOM     25  C   UNL     1      50.153   5.115  17.053  0.00  0.00    +0.000 A 
ATOM     26  C   UNL     1      51.508   5.239  17.495  0.00  0.00    +0.000 A 
ATOM     27  C   UNL     1      52.475   6.192  17.790  0.00  0.00    +0.000 A 
ATOM     28 CL   UNL     1      52.187   7.855  17.653  0.00  0.00    +0.000 Cl
ATOM     29  N   UNL     1      53.708   5.851  18.203  0.00  0.00    +0.000 NA
ATOM     30  C   UNL     1      53.975   4.545  18.323  0.00  0.00    +0.000 A 
ATOM     31  N   UNL     1      53.149   3.518  18.077  0.00  0.00    +0.000 NA
ATOM     32  C   UNL     1      51.935   3.932  17.668  0.00  0.00    +0.000 A 
ENDBRANCH  18  25
ENDBRANCH   1  20
TORSDOF 6
ENDMDL
MODEL 8
REMARK VINA RESULT:    -6.632      3.882      5.382
REMARK INTER + INTRA:          -9.883
REMARK INTER:                  -9.001
REMARK INTRA:                  -0.882
REMARK UNBOUND:                -0.925
REMARK  Name = 
REMARK  7 active torsions:
REMARK  status: ('A' for Active; 'I' for Inactive)
REMARK    1  A    between atoms: C_1  and  N_2
REMARK    2  A    between atoms: C_4  and  C_5
REMARK    3  A    between atoms: N_7  and  C_8
REMARK    4  A    between atoms: C_8  and  C_9
REMARK    5  A    between atoms: C_12  and  N_13
REMARK    6  A    between atoms: N_13  and  C_14
REMARK    7  A    between atoms: C_14  and  C_15
REMARK                            x       y       z     vdW  Elec       q    Type
REMARK                         _______ _______ _______ _____ _____    ______ ____
ROOT
ATOM      1  C   UNL     1      47.954   6.576  13.689  0.00  0.00    +0.000 C 
ENDROOT
BRANCH   1   2
ATOM      2  C   UNL     1      46.866   5.957  12.867  0.00  0.00    +0.000 A 
ATOM      3  C   UNL     1      46.439   6.575  11.691  0.00  0.00    +0.000 A 
ATOM      4  C   UNL     1      45.493   5.956  10.870  0.00  0.00    +0.000 A 
ATOM      5  C   UNL     1      44.924   4.727  11.211  0.00  0.00    +0.000 A 
ATOM      6  C   UNL     1      45.343   4.129  12.406  0.00  0.00    +0.000 A 
ATOM      7  C   UNL     1      46.297   4.734  13.231  0.00  0.00    +0.000 A 
BRANCH   5   8
ATOM      8  N   UNL     1      44.052   4.041  10.394  0.00  0.00    +0.000 N 
ATOM      9  H   UNL     1      43.358   4.570   9.871  0.00  0.00    +0.000 HD
BRANCH   8  10
ATOM     10  C   UNL     1      44.252   2.677   9.929  0.00  0.00    +0.000 C 
BRANCH  10  11
ATOM     11  C   UNL     1      45.475   2.593   8.984  0.00  0.00    +0.000 C 
ATOM     12  C   UNL     1      45.316   3.561   7.797  0.00  0.00    +0.000 C 
ATOM     13  C   UNL     1      46.513   3.486   6.856  0.00  0.00    +0.000 C 
ATOM     14  C   UNL     1      46.802   2.041   6.459  0.00  0.00    +0.000 C 
ATOM     15  C   UNL     1      46.899   1.133   7.683  0.00  0.00    +0.000 C 
ATOM     16  N   UNL     1      45.678   1.218   8.483  0.00  0.00    +0.000 NA
ATOM     17  H   UNL     1      45.739   0.576   9.275  0.00  0.00    +0.000 HD
ENDBRANCH  10  11
ENDBRANCH   8  10
ENDBRANCH   5   8
ENDBRANCH   1   2
BRANCH   1  20
ATOM     18  C   UNL     1      49.615   7.999  12.647  0.00  0.00    +0.000 C 
ATOM     19  O   UNL     1      48.959   8.986  12.947  0.00  0.00    +0.000 OA
ATOM     20  N   UNL     1      49.194   6.731  12.978  0.00  0.00    +0.000 N 
ATOM     21  H   UNL     1      49.768   5.938  12.703  0.00  0.00    +0.000 HD
BRANCH  18  25
ATOM     22  C   UNL     1      52.812   7.322   9.062  0.00  0.00    +0.000 C 
ATOM     23  N   UNL     1      52.289   7.762  10.333  0.00  0.00    +0.000 N 
ATOM     24  N   UNL     1      51.010   7.511  10.681  0.00  0.00    +0.000 NA
ATOM     25  C   UNL     1      50.892   8.067  11.913  0.00  0.00    +0.000 A 
ATOM     26  C   UNL     1      52.119   8.672  12.332  0.00  0.00    +0.000 A 
ATOM     27  C   UNL     1      52.684   9.369  13.393  0.00  0.00    +0.000 A 
ATOM     28 CL   UNL     1      51.815   9.760  14.792  0.00  0.00    +0.000 Cl
ATOM     29  N   UNL     1      53.964   9.780  13.374  0.00  0.00    +0.000 NA
ATOM     30  C   UNL     1      54.685   9.491  12.285  0.00  0.00    +0.000 A 
ATOM     31  N   UNL     1      54.279   8.830  11.190  0.00  0.00    +0.000 NA
ATOM     32  C   UNL     1      52.991   8.449  11.278  0.00  0.00    +0.000 A 
ENDBRANCH  18  25
ENDBRANCH   1  20
TORSDOF 6
ENDMDL
MODEL 9
REMARK VINA RESULT:    -6.516      2.461      3.581
REMARK INTER + INTRA:          -9.726
REMARK INTER:                  -9.109
REMARK INTRA:                  -0.617
REMARK UNBOUND:                -0.925
REMARK  Name = 
REMARK  7 active torsions:
REMARK  status: ('A' for Active; 'I' for Inactive)
REMARK    1  A    between atoms: C_1  and  N_2
REMARK    2  A    between atoms: C_4  and  C_5
REMARK    3  A    between atoms: N_7  and  C_8
REMARK    4  A    between atoms: C_8  and  C_9
REMARK    5  A    between atoms: C_12  and  N_13
REMARK    6  A    between atoms: N_13  and  C_14
REMARK    7  A    between atoms: C_14  and  C_15
REMARK                            x       y       z     vdW  Elec       q    Type
REMARK                         _______ _______ _______ _____ _____    ______ ____
ROOT
ATOM      1  C   UNL     1      48.388   6.902  14.146  0.00  0.00    +0.000 C 
ENDROOT
BRANCH   1   2
ATOM      2  C   UNL     1      47.212   6.209  13.529  0.00  0.00    +0.000 A 
ATOM      3  C   UNL     1      46.936   4.878  13.846  0.00  0.00    +0.000 A 
ATOM      4  C   UNL     1      45.789   4.255  13.349  0.00  0.00    +0.000 A 
ATOM      5  C   UNL     1      44.905   4.925  12.500  0.00  0.00    +0.000 A 
ATOM      6  C   UNL     1      45.206   6.251  12.168  0.00  0.00    +0.000 A 
ATOM      7  C   UNL     1      46.346   6.889  12.668  0.00  0.00    +0.000 A 
BRANCH   5   8
ATOM      8  N   UNL     1      43.721   4.379  12.054  0.00  0.00    +0.000 N 
ATOM      9  H   UNL     1      42.887   4.962  12.052  0.00  0.00    +0.000 HD
BRANCH   8  10
ATOM     10  C   UNL     1      43.617   3.169  11.253  0.00  0.00    +0.000 C 
BRANCH  10  11
ATOM     11  C   UNL     1      44.746   3.113  10.195  0.00  0.00    +0.000 C 
ATOM     12  C   UNL     1      44.640   4.299   9.219  0.00  0.00    +0.000 C 
ATOM     13  C   UNL     1      45.745   4.252   8.170  0.00  0.00    +0.000 C 
ATOM     14  C   UNL     1      45.800   2.883   7.497  0.00  0.00    +0.000 C 
ATOM     15  C   UNL     1      45.854   1.756   8.527  0.00  0.00    +0.000 C 
ATOM     16  N   UNL     1      44.717   1.842   9.442  0.00  0.00    +0.000 NA
ATOM     17  H   UNL     1      44.743   1.060  10.098  0.00  0.00    +0.000 HD
ENDBRANCH  10  11
ENDBRANCH   8  10
ENDBRANCH   5   8
ENDBRANCH   1   2
BRANCH   1  20
ATOM     18  C   UNL     1      49.220   6.601  16.401  0.00  0.00    +0.000 C 
ATOM     19  O   UNL     1      50.183   5.986  15.964  0.00  0.00    +0.000 OA
ATOM     20  N   UNL     1      48.253   7.107  15.562  0.00  0.00    +0.000 N 
ATOM     21  H   UNL     1      47.467   7.606  15.970  0.00  0.00    +0.000 HD
BRANCH  18  25
ATOM     22  C   UNL     1      47.310   6.127  20.834  0.00  0.00    +0.000 C 
ATOM     23  N   UNL     1      48.155   6.635  19.781  0.00  0.00    +0.000 N 
ATOM     24  N   UNL     1      48.075   6.141  18.528  0.00  0.00    +0.000 NA
ATOM     25  C   UNL     1      49.003   6.851  17.837  0.00  0.00    +0.000 A 
ATOM     26  C   UNL     1      49.667   7.799  18.679  0.00  0.00    +0.000 A 
ATOM     27  C   UNL     1      50.648   8.783  18.650  0.00  0.00    +0.000 A 
ATOM     28 CL   UNL     1      51.500   9.178  17.241  0.00  0.00    +0.000 Cl
ATOM     29  N   UNL     1      50.985   9.485  19.745  0.00  0.00    +0.000 NA
ATOM     30  C   UNL     1      50.335   9.201  20.879  0.00  0.00    +0.000 A 
ATOM     31  N   UNL     1      49.371   8.285  21.060  0.00  0.00    +0.000 NA
ATOM     32  C   UNL     1      49.084   7.622  19.924  0.00  0.00    +0.000 A 
ENDBRANCH  18  25
ENDBRANCH   1  20
TORSDOF 6
ENDMDL
