MODEL 1
REMARK VINA RESULT:    -7.095      0.000      0.000
REMARK INTER + INTRA:         -10.303
REMARK INTER:                  -9.791
REMARK INTRA:                  -0.512
REMARK UNBOUND:                -0.512
REMARK  Name = 
REMARK  8 active torsions:
REMARK  status: ('A' for Active; 'I' for Inactive)
REMARK    1  A    between atoms: C_1  and  C_2
REMARK    2  A    between atoms: C_2  and  C_3
REMARK    3  A    between atoms: C_6  and  C_7
REMARK    4  A    between atoms: C_7  and  O_8
REMARK    5  A    between atoms: O_8  and  C_9
REMARK    6  A    between atoms: C_13  and  C_14
REMARK    7  A    between atoms: C_14  and  N_15
REMARK    8  A    between atoms: C_18  and  C_19
REMARK                            x       y       z     vdW  Elec       q    Type
REMARK                         _______ _______ _______ _____ _____    ______ ____
ROOT
ATOM      1  C   UNL     1      43.916   4.069  10.390  0.00  0.00    +0.000 C 
ENDROOT
BRANCH   1   5
ATOM      2  C   UNL     1      46.909   6.043  12.716  0.00  0.00    +0.000 A 
ATOM      3  C   UNL     1      46.344   6.585  11.568  0.00  0.00    +0.000 A 
ATOM      4  N   UNL     1      45.406   5.970  10.819  0.00  0.00    +0.000 NA
ATOM      5  C   UNL     1      44.974   4.751  11.222  0.00  0.00    +0.000 A 
ATOM      6  C   UNL     1      45.472   4.128  12.360  0.00  0.00    +0.000 A 
ATOM      7  C   UNL     1      46.452   4.779  13.109  0.00  0.00    +0.000 A 
BRANCH   2   9
ATOM      8  C   UNL     1      49.178   7.088  12.688  0.00  0.00    +0.000 C 
ATOM      9  C   UNL     1      47.917   6.839  13.502  0.00  0.00    +0.000 C 
ENDBRANCH   2   9
BRANCH   7  10
ATOM     10  C   UNL     1      46.965   4.120  14.276  0.00  0.00    +0.000 C 
ATOM     11  N   UNL     1      47.388   3.584  15.217  0.00  0.00    +0.000 NA
ENDBRANCH   7  10
ENDBRANCH   1   5
BRANCH   1  12
ATOM     12  O   UNL     1      44.199   4.260   9.001  0.00  0.00    +0.000 OA
BRANCH  12  13
ATOM     13  C   UNL     1      45.037   3.336   8.440  0.00  0.00    +0.000 A 
ATOM     14  C   UNL     1      45.067   2.075   9.022  0.00  0.00    +0.000 A 
ATOM     15  N   UNL     1      45.855   1.057   8.598  0.00  0.00    +0.000 NA
ATOM     16  C   UNL     1      46.644   1.307   7.530  0.00  0.00    +0.000 A 
ATOM     17  C   UNL     1      46.681   2.521   6.852  0.00  0.00    +0.000 A 
ATOM     18  C   UNL     1      45.871   3.551   7.344  0.00  0.00    +0.000 A 
BRANCH  17  19
ATOM     19  C   UNL     1      47.615   2.724   5.690  0.00  0.00    +0.000 C 
BRANCH  19  20
ATOM     20  N   UNL     1      48.422   1.541   5.398  0.00  0.00    +0.000 NA
ATOM     21  H   UNL     1      49.380   1.834   5.203  0.00  0.00    +0.000 HD
ATOM     22  H   UNL     1      48.081   1.108   4.541  0.00  0.00    +0.000 HD
ENDBRANCH  19  20
ENDBRANCH  17  19
ENDBRANCH  12  13
ENDBRANCH   1  12
TORSDOF 7
ENDMDL
MODEL 2
REMARK VINA RESULT:    -6.976      1.510      6.543
REMARK INTER + INTRA:         -10.138
REMARK INTER:                  -9.634
REMARK INTRA:                  -0.504
REMARK UNBOUND:                -0.512
REMARK  Name = 
REMARK  8 active torsions:
REMARK  status: ('A' for Active; 'I' for Inactive)
REMARK    1  A    between atoms: C_1  and  C_2
REMARK    2  A    between atoms: C_2  and  C_3
REMARK    3  A    between atoms: C_6  and  C_7
REMARK    4  A    between atoms: C_7  and  O_8
REMARK    5  A    between atoms: O_8  and  C_9
REMARK    6  A    between atoms: C_13  and  C_14
REMARK    7  A    between atoms: C_14  and  N_15
REMARK    8  A    between atoms: C_18  and  C_19
REMARK                            x       y       z     vdW  Elec       q    Type
REMARK                         _______ _______ _______ _____ _____    ______ ____
ROOT
ATOM      1  C   UNL     1      44.119   3.921   9.962  0.00  0.00    +0.000 C 
ENDROOT
BRANCH   1   5
ATOM      2  C   UNL     1      46.887   2.578   6.995  0.00  0.00    +0.000 A 
ATOM      3  C   UNL     1      46.515   3.907   7.156  0.00  0.00    +0.000 A 
ATOM      4  N   UNL     1      45.636   4.344   8.081  0.00  0.00    +0.000 NA
ATOM      5  C   UNL     1      45.093   3.429   8.920  0.00  0.00    +0.000 A 
ATOM      6  C   UNL     1      45.405   2.077   8.844  0.00  0.00    +0.000 A 
ATOM      7  C   UNL     1      46.307   1.649   7.869  0.00  0.00    +0.000 A 
BRANCH   2   9
ATOM      8  C   UNL     1      47.251   1.780   4.655  0.00  0.00    +0.000 C 
ATOM      9  C   UNL     1      47.913   2.208   5.957  0.00  0.00    +0.000 C 
ENDBRANCH   2   9
BRANCH   7  10
ATOM     10  C   UNL     1      46.613   0.249   7.794  0.00  0.00    +0.000 C 
ATOM     11  N   UNL     1      46.862  -0.885   7.742  0.00  0.00    +0.000 NA
ENDBRANCH   7  10
ENDBRANCH   1   5
BRANCH   1  12
ATOM     12  O   UNL     1      44.556   5.184  10.471  0.00  0.00    +0.000 OA
BRANCH  12  13
ATOM     13  C   UNL     1      45.288   5.132  11.624  0.00  0.00    +0.000 A 
ATOM     14  C   UNL     1      45.046   4.064  12.479  0.00  0.00    +0.000 A 
ATOM     15  N   UNL     1      45.673   3.878  13.665  0.00  0.00    +0.000 NA
ATOM     16  C   UNL     1      46.599   4.800  14.012  0.00  0.00    +0.000 A 
ATOM     17  C   UNL     1      46.942   5.897  13.227  0.00  0.00    +0.000 A 
ATOM     18  C   UNL     1      46.247   6.062  12.024  0.00  0.00    +0.000 A 
BRANCH  17  19
ATOM     19  C   UNL     1      47.962   6.893  13.705  0.00  0.00    +0.000 C 
BRANCH  19  20
ATOM     20  N   UNL     1      48.199   6.818  15.146  0.00  0.00    +0.000 NA
ATOM     21  H   UNL     1      48.673   7.670  15.448  0.00  0.00    +0.000 HD
ATOM     22  H   UNL     1      48.843   6.053  15.338  0.00  0.00    +0.000 HD
ENDBRANCH  19  20
ENDBRANCH  17  19
ENDBRANCH  12  13
ENDBRANCH   1  12
TORSDOF 7
ENDMDL
MODEL 3
REMARK VINA RESULT:    -6.540      1.671      2.175
REMARK INTER + INTRA:          -9.538
REMARK INTER:                  -9.097
REMARK INTRA:                  -0.441
REMARK UNBOUND:                -0.512
REMARK  Name = 
REMARK  8 active torsions:
REMARK  status: ('A' for Active; 'I' for Inactive)
REMARK    1  A    between atoms: C_1  and  C_2
REMARK    2  A    between atoms: C_2  and  C_3
REMARK    3  A    between atoms: C_6  and  C_7
REMARK    4  A    between atoms: C_7  and  O_8
REMARK    5  A    between atoms: O_8  and  C_9
REMARK    6  A    between atoms: C_13  and  C_14
REMARK    7  A    between atoms: C_14  and  N_15
REMARK    8  A    between atoms: C_18  and  C_19
REMARK                            x       y       z     vdW  Elec       q    Type
REMARK                         _______ _______ _______ _____ _____    ______ ____
ROOT
ATOM      1  C   UNL     1      44.252   3.205  11.268  0.00  0.00    +0.000 C 
ENDROOT
BRANCH   1   5
ATOM      2  C   UNL     1      45.455   7.100  12.552  0.00  0.00    +0.000 A 
ATOM      3  C   UNL     1      44.333   6.859  11.768  0.00  0.00    +0.000 A 
ATOM      4  N   UNL     1      43.947   5.637  11.348  0.00  0.00    +0.000 NA
ATOM      5  C   UNL     1      44.692   4.572  11.729  0.00  0.00    +0.000 A 
ATOM      6  C   UNL     1      45.828   4.708  12.517  0.00  0.00    +0.000 A 
ATOM      7  C   UNL     1      46.214   5.984  12.927  0.00  0.00    +0.000 A 
BRANCH   2   9
ATOM      8  C   UNL     1      46.729   9.188  12.043  0.00  0.00    +0.000 C 
ATOM      9  C   UNL     1      45.767   8.502  13.002  0.00  0.00    +0.000 C 
ENDBRANCH   2   9
BRANCH   7  10
ATOM     10  C   UNL     1      47.396   6.111  13.732  0.00  0.00    +0.000 C 
ATOM     11  N   UNL     1      48.352   6.205  14.386  0.00  0.00    +0.000 NA
ENDBRANCH   7  10
ENDBRANCH   1   5
BRANCH   1  12
ATOM     12  O   UNL     1      43.866   3.262   9.892  0.00  0.00    +0.000 OA
BRANCH  12  13
ATOM     13  C   UNL     1      44.887   3.142   8.990  0.00  0.00    +0.000 A 
ATOM     14  C   UNL     1      45.322   4.305   8.369  0.00  0.00    +0.000 A 
ATOM     15  N   UNL     1      46.308   4.353   7.441  0.00  0.00    +0.000 NA
ATOM     16  C   UNL     1      46.900   3.179   7.126  0.00  0.00    +0.000 A 
ATOM     17  C   UNL     1      46.565   1.956   7.698  0.00  0.00    +0.000 A 
ATOM     18  C   UNL     1      45.521   1.953   8.630  0.00  0.00    +0.000 A 
BRANCH  17  19
ATOM     19  C   UNL     1      47.253   0.692   7.263  0.00  0.00    +0.000 C 
BRANCH  19  20
ATOM     20  N   UNL     1      46.651  -0.509   7.840  0.00  0.00    +0.000 NA
ATOM     21  H   UNL     1      45.906  -0.835   7.223  0.00  0.00    +0.000 HD
ATOM     22  H   UNL     1      46.200  -0.267   8.721  0.00  0.00    +0.000 HD
ENDBRANCH  19  20
ENDBRANCH  17  19
ENDBRANCH  12  13
ENDBRANCH   1  12
TORSDOF 7
ENDMDL
MODEL 4
REMARK VINA RESULT:    -6.384      1.787      2.673
REMARK INTER + INTRA:          -9.322
REMARK INTER:                  -9.075
REMARK INTRA:                  -0.247
REMARK UNBOUND:                -0.512
REMARK  Name = 
REMARK  8 active torsions:
REMARK  status: ('A' for Active; 'I' for Inactive)
REMARK    1  A    between atoms: C_1  and  C_2
REMARK    2  A    between atoms: C_2  and  C_3
REMARK    3  A    between atoms: C_6  and  C_7
REMARK    4  A    between atoms: C_7  and  O_8
REMARK    5  A    between atoms: O_8  and  C_9
REMARK    6  A    between atoms: C_13  and  C_14
REMARK    7  A    between atoms: C_14  and  N_15
REMARK    8  A    between atoms: C_18  and  C_19
REMARK                            x       y       z     vdW  Elec       q    Type
REMARK                         _______ _______ _______ _____ _____    ______ ____
ROOT
ATOM      1  C   UNL     1      43.650   4.406  10.538  0.00  0.00    +0.000 C 
ENDROOT
BRANCH   1   5
ATOM      2  C   UNL     1      46.481   5.150  13.653  0.00  0.00    +0.000 A 
ATOM      3  C   UNL     1      46.012   3.884  13.324  0.00  0.00    +0.000 A 
ATOM      4  N   UNL     1      45.112   3.635  12.351  0.00  0.00    +0.000 NA
ATOM      5  C   UNL     1      44.648   4.687  11.635  0.00  0.00    +0.000 A 
ATOM      6  C   UNL     1      45.059   5.991  11.883  0.00  0.00    +0.000 A 
ATOM      7  C   UNL     1      45.980   6.223  12.905  0.00  0.00    +0.000 A 
BRANCH   2   9
ATOM      8  C   UNL     1      47.393   4.217  15.784  0.00  0.00    +0.000 C 
ATOM      9  C   UNL     1      47.521   5.307  14.730  0.00  0.00    +0.000 C 
ENDBRANCH   2   9
BRANCH   7  10
ATOM     10  C   UNL     1      46.389   7.575  13.157  0.00  0.00    +0.000 C 
ATOM     11  N   UNL     1      46.725   8.668  13.367  0.00  0.00    +0.000 NA
ENDBRANCH   7  10
ENDBRANCH   1   5
BRANCH   1  12
ATOM     12  O   UNL     1      43.902   3.114   9.979  0.00  0.00    +0.000 OA
BRANCH  12  13
ATOM     13  C   UNL     1      44.893   3.064   9.038  0.00  0.00    +0.000 A 
ATOM     14  C   UNL     1      45.307   4.272   8.492  0.00  0.00    +0.000 A 
ATOM     15  N   UNL     1      46.263   4.391   7.539  0.00  0.00    +0.000 NA
ATOM     16  C   UNL     1      46.844   3.245   7.118  0.00  0.00    +0.000 A 
ATOM     17  C   UNL     1      46.528   1.982   7.607  0.00  0.00    +0.000 A 
ATOM     18  C   UNL     1      45.515   1.907   8.570  0.00  0.00    +0.000 A 
BRANCH  17  19
ATOM     19  C   UNL     1      47.202   0.755   7.058  0.00  0.00    +0.000 C 
BRANCH  19  20
ATOM     20  N   UNL     1      46.827  -0.466   7.769  0.00  0.00    +0.000 NA
ATOM     21  H   UNL     1      46.107  -0.953   7.234  0.00  0.00    +0.000 HD
ATOM     22  H   UNL     1      46.395  -0.215   8.658  0.00  0.00    +0.000 HD
ENDBRANCH  19  20
ENDBRANCH  17  19
ENDBRANCH  12  13
ENDBRANCH   1  12
TORSDOF 7
ENDMDL
MODEL 5
REMARK VINA RESULT:    -6.204      2.026      6.860
REMARK INTER + INTRA:          -9.074
REMARK INTER:                  -8.546
REMARK INTRA:                  -0.528
REMARK UNBOUND:                -0.512
REMARK  Name = 
REMARK  8 active torsions:
REMARK  status: ('A' for Active; 'I' for Inactive)
REMARK    1  A    between atoms: C_1  and  C_2
REMARK    2  A    between atoms: C_2  and  C_3
REMARK    3  A    between atoms: C_6  and  C_7
REMARK    4  A    between atoms: C_7  and  O_8
REMARK    5  A    between atoms: O_8  and  C_9
REMARK    6  A    between atoms: C_13  and  C_14
REMARK    7  A    between atoms: C_14  and  N_15
REMARK    8  A    between atoms: C_18  and  C_19
REMARK                            x       y       z     vdW  Elec       q    Type
REMARK                         _______ _______ _______ _____ _____    ______ ____
ROOT
ATOM      1  C   UNL     1      45.597   4.651   8.748  0.00  0.00    +0.000 C 
ENDROOT
BRANCH   1   5
ATOM      2  C   UNL     1      47.071   1.862   5.864  0.00  0.00    +0.000 A 
ATOM      3  C   UNL     1      46.913   3.219   5.612  0.00  0.00    +0.000 A 
ATOM      4  N   UNL     1      46.440   4.109   6.509  0.00  0.00    +0.000 NA
ATOM      5  C   UNL     1      46.114   3.653   7.742  0.00  0.00    +0.000 A 
ATOM      6  C   UNL     1      46.242   2.314   8.094  0.00  0.00    +0.000 A 
ATOM      7  C   UNL     1      46.720   1.412   7.143  0.00  0.00    +0.000 A 
BRANCH   2   9
ATOM      8  C   UNL     1      46.653   0.723   3.680  0.00  0.00    +0.000 C 
ATOM      9  C   UNL     1      47.651   0.966   4.802  0.00  0.00    +0.000 C 
ENDBRANCH   2   9
BRANCH   7  10
ATOM     10  C   UNL     1      46.838   0.031   7.516  0.00  0.00    +0.000 C 
ATOM     11  N   UNL     1      46.934  -1.085   7.827  0.00  0.00    +0.000 NA
ENDBRANCH   7  10
ENDBRANCH   1   5
BRANCH   1  12
ATOM     12  O   UNL     1      44.411   4.144   9.363  0.00  0.00    +0.000 OA
BRANCH  12  13
ATOM     13  C   UNL     1      44.262   4.443  10.690  0.00  0.00    +0.000 A 
ATOM     14  C   UNL     1      43.051   4.998  11.080  0.00  0.00    +0.000 A 
ATOM     15  N   UNL     1      42.753   5.366  12.350  0.00  0.00    +0.000 NA
ATOM     16  C   UNL     1      43.712   5.159  13.280  0.00  0.00    +0.000 A 
ATOM     17  C   UNL     1      44.953   4.590  13.012  0.00  0.00    +0.000 A 
ATOM     18  C   UNL     1      45.224   4.253  11.680  0.00  0.00    +0.000 A 
BRANCH  17  19
ATOM     19  C   UNL     1      45.975   4.426  14.102  0.00  0.00    +0.000 C 
BRANCH  19  20
ATOM     20  N   UNL     1      47.015   3.456  13.765  0.00  0.00    +0.000 NA
ATOM     21  H   UNL     1      47.816   3.602  14.380  0.00  0.00    +0.000 HD
ATOM     22  H   UNL     1      47.348   3.638  12.820  0.00  0.00    +0.000 HD
ENDBRANCH  19  20
ENDBRANCH  17  19
ENDBRANCH  12  13
ENDBRANCH   1  12
TORSDOF 7
ENDMDL
MODEL 6
REMARK VINA RESULT:    -5.933      1.828      2.848
REMARK INTER + INTRA:          -8.700
REMARK INTER:                  -8.220
REMARK INTRA:                  -0.480
REMARK UNBOUND:                -0.512
REMARK  Name = 
REMARK  8 active torsions:
REMARK  status: ('A' for Active; 'I' for Inactive)
REMARK    1  A    between atoms: C_1  and  C_2
REMARK    2  A    between atoms: C_2  and  C_3
REMARK    3  A    between atoms: C_6  and  C_7
REMARK    4  A    between atoms: C_7  and  O_8
REMARK    5  A    between atoms: O_8  and  C_9
REMARK    6  A    between atoms: C_13  and  C_14
REMARK    7  A    between atoms: C_14  and  N_15
REMARK    8  A    between atoms: C_18  and  C_19
REMARK                            x       y       z     vdW  Elec       q    Type
REMARK                         _______ _______ _______ _____ _____    ______ ____
ROOT
ATOM      1  C   UNL     1      44.500   4.730  11.040  0.00  0.00    +0.000 C 
ENDROOT
BRANCH   1   5
ATOM      2  C   UNL     1      46.759   8.098  12.387  0.00  0.00    +0.000 A 
ATOM      3  C   UNL     1      47.264   6.805  12.330  0.00  0.00    +0.000 A 
ATOM      4  N   UNL     1      46.560   5.731  11.917  0.00  0.00    +0.000 NA
ATOM      5  C   UNL     1      45.282   5.930  11.514  0.00  0.00    +0.000 A 
ATOM      6  C   UNL     1      44.688   7.186  11.527  0.00  0.00    +0.000 A 
ATOM      7  C   UNL     1      45.433   8.278  11.973  0.00  0.00    +0.000 A 
BRANCH   2   9
ATOM      8  C   UNL     1      48.386   8.891  14.110  0.00  0.00    +0.000 C 
ATOM      9  C   UNL     1      47.649   9.232  12.823  0.00  0.00    +0.000 C 
ENDBRANCH   2   9
BRANCH   7  10
ATOM     10  C   UNL     1      44.804   9.568  11.991  0.00  0.00    +0.000 C 
ATOM     11  N   UNL     1      44.290  10.610  11.999  0.00  0.00    +0.000 NA
ENDBRANCH   7  10
ENDBRANCH   1   5
BRANCH   1  12
ATOM     12  O   UNL     1      44.393   4.758   9.614  0.00  0.00    +0.000 OA
BRANCH  12  13
ATOM     13  C   UNL     1      45.040   3.749   8.956  0.00  0.00    +0.000 A 
ATOM     14  C   UNL     1      44.906   2.468   9.476  0.00  0.00    +0.000 A 
ATOM     15  N   UNL     1      45.497   1.366   8.953  0.00  0.00    +0.000 NA
ATOM     16  C   UNL     1      46.252   1.551   7.847  0.00  0.00    +0.000 A 
ATOM     17  C   UNL     1      46.440   2.782   7.225  0.00  0.00    +0.000 A 
ATOM     18  C   UNL     1      45.833   3.895   7.819  0.00  0.00    +0.000 A 
BRANCH  17  19
ATOM     19  C   UNL     1      47.324   2.903   6.015  0.00  0.00    +0.000 C 
BRANCH  19  20
ATOM     20  N   UNL     1      48.708   2.513   6.281  0.00  0.00    +0.000 NA
ATOM     21  H   UNL     1      48.764   1.494   6.311  0.00  0.00    +0.000 HD
ATOM     22  H   UNL     1      48.973   2.837   7.210  0.00  0.00    +0.000 HD
ENDBRANCH  19  20
ENDBRANCH  17  19
ENDBRANCH  12  13
ENDBRANCH   1  12
TORSDOF 7
ENDMDL
MODEL 7
REMARK VINA RESULT:    -5.869      3.255      7.850
REMARK INTER + INTRA:          -8.611
REMARK INTER:                  -8.169
REMARK INTRA:                  -0.442
REMARK UNBOUND:                -0.512
REMARK  Name = 
REMARK  8 active torsions:
REMARK  status: ('A' for Active; 'I' for Inactive)
REMARK    1  A    between atoms: C_1  and  C_2
REMARK    2  A    between atoms: C_2  and  C_3
REMARK    3  A    between atoms: C_6  and  C_7
REMARK    4  A    between atoms: C_7  and  O_8
REMARK    5  A    between atoms: O_8  and  C_9
REMARK    6  A    between atoms: C_13  and  C_14
REMARK    7  A    between atoms: C_14  and  N_15
REMARK    8  A    between atoms: C_18  and  C_19
REMARK                            x       y       z     vdW  Elec       q    Type
REMARK                         _______ _______ _______ _____ _____    ______ ____
ROOT
ATOM      1  C   UNL     1      46.966   5.187  14.455  0.00  0.00    +0.000 C 
ENDROOT
BRANCH   1   5
ATOM      2  C   UNL     1      44.960   4.742  10.708  0.00  0.00    +0.000 A 
ATOM      3  C   UNL     1      45.916   5.719  10.958  0.00  0.00    +0.000 A 
ATOM      4  N   UNL     1      46.550   5.877  12.139  0.00  0.00    +0.000 NA
ATOM      5  C   UNL     1      46.248   5.016  13.140  0.00  0.00    +0.000 A 
ATOM      6  C   UNL     1      45.310   4.002  12.986  0.00  0.00    +0.000 A 
ATOM      7  C   UNL     1      44.658   3.869  11.760  0.00  0.00    +0.000 A 
BRANCH   2   9
ATOM      8  C   UNL     1      45.309   3.973   8.356  0.00  0.00    +0.000 C 
ATOM      9  C   UNL     1      44.348   4.628   9.337  0.00  0.00    +0.000 C 
ENDBRANCH   2   9
BRANCH   7  10
ATOM     10  C   UNL     1      43.684   2.824  11.619  0.00  0.00    +0.000 C 
ATOM     11  N   UNL     1      42.890   1.983  11.503  0.00  0.00    +0.000 NA
ENDBRANCH   7  10
ENDBRANCH   1   5
BRANCH   1  12
ATOM     12  O   UNL     1      46.610   4.121  15.340  0.00  0.00    +0.000 OA
BRANCH  12  13
ATOM     13  C   UNL     1      47.586   3.733  16.215  0.00  0.00    +0.000 A 
ATOM     14  C   UNL     1      48.349   2.628  15.860  0.00  0.00    +0.000 A 
ATOM     15  N   UNL     1      49.341   2.107  16.624  0.00  0.00    +0.000 NA
ATOM     16  C   UNL     1      49.591   2.729  17.797  0.00  0.00    +0.000 A 
ATOM     17  C   UNL     1      48.909   3.855  18.246  0.00  0.00    +0.000 A 
ATOM     18  C   UNL     1      47.875   4.339  17.436  0.00  0.00    +0.000 A 
BRANCH  17  19
ATOM     19  C   UNL     1      49.230   4.465  19.583  0.00  0.00    +0.000 C 
BRANCH  19  20
ATOM     20  N   UNL     1      48.478   3.859  20.680  0.00  0.00    +0.000 NA
ATOM     21  H   UNL     1      48.955   3.006  20.976  0.00  0.00    +0.000 HD
ATOM     22  H   UNL     1      47.564   3.566  20.336  0.00  0.00    +0.000 HD
ENDBRANCH  19  20
ENDBRANCH  17  19
ENDBRANCH  12  13
ENDBRANCH   1  12
TORSDOF 7
ENDMDL
MODEL 8
REMARK VINA RESULT:    -5.774      2.790      4.709
REMARK INTER + INTRA:          -8.480
REMARK INTER:                  -7.974
REMARK INTRA:                  -0.506
REMARK UNBOUND:                -0.512
REMARK  Name = 
REMARK  8 active torsions:
REMARK  status: ('A' for Active; 'I' for Inactive)
REMARK    1  A    between atoms: C_1  and  C_2
REMARK    2  A    between atoms: C_2  and  C_3
REMARK    3  A    between atoms: C_6  and  C_7
REMARK    4  A    between atoms: C_7  and  O_8
REMARK    5  A    between atoms: O_8  and  C_9
REMARK    6  A    between atoms: C_13  and  C_14
REMARK    7  A    between atoms: C_14  and  N_15
REMARK    8  A    between atoms: C_18  and  C_19
REMARK                            x       y       z     vdW  Elec       q    Type
REMARK                         _______ _______ _______ _____ _____    ______ ____
ROOT
ATOM      1  C   UNL     1      47.363   6.397  12.799  0.00  0.00    +0.000 C 
ENDROOT
BRANCH   1   5
ATOM      2  C   UNL     1      48.912   5.487  16.678  0.00  0.00    +0.000 A 
ATOM      3  C   UNL     1      49.426   6.483  15.857  0.00  0.00    +0.000 A 
ATOM      4  N   UNL     1      48.954   6.775  14.627  0.00  0.00    +0.000 NA
ATOM      5  C   UNL     1      47.898   6.061  14.170  0.00  0.00    +0.000 A 
ATOM      6  C   UNL     1      47.308   5.049  14.917  0.00  0.00    +0.000 A 
ATOM      7  C   UNL     1      47.824   4.757  16.180  0.00  0.00    +0.000 A 
BRANCH   2   9
ATOM      8  C   UNL     1      50.677   4.327  18.013  0.00  0.00    +0.000 C 
ATOM      9  C   UNL     1      49.488   5.277  18.052  0.00  0.00    +0.000 C 
ENDBRANCH   2   9
BRANCH   7  10
ATOM     10  C   UNL     1      47.213   3.702  16.937  0.00  0.00    +0.000 C 
ATOM     11  N   UNL     1      46.710   2.850  17.546  0.00  0.00    +0.000 NA
ENDBRANCH   7  10
ENDBRANCH   1   5
BRANCH   1  12
ATOM     12  O   UNL     1      45.975   6.728  12.893  0.00  0.00    +0.000 OA
BRANCH  12  13
ATOM     13  C   UNL     1      45.126   5.895  12.218  0.00  0.00    +0.000 A 
ATOM     14  C   UNL     1      43.983   5.478  12.889  0.00  0.00    +0.000 A 
ATOM     15  N   UNL     1      43.054   4.641  12.367  0.00  0.00    +0.000 NA
ATOM     16  C   UNL     1      43.271   4.206  11.106  0.00  0.00    +0.000 A 
ATOM     17  C   UNL     1      44.366   4.573  10.329  0.00  0.00    +0.000 A 
ATOM     18  C   UNL     1      45.312   5.417  10.921  0.00  0.00    +0.000 A 
BRANCH  17  19
ATOM     19  C   UNL     1      44.546   4.015   8.945  0.00  0.00    +0.000 C 
BRANCH  19  20
ATOM     20  N   UNL     1      45.587   4.706   8.185  0.00  0.00    +0.000 NA
ATOM     21  H   UNL     1      46.488   4.273   8.389  0.00  0.00    +0.000 HD
ATOM     22  H   UNL     1      45.657   5.668   8.514  0.00  0.00    +0.000 HD
ENDBRANCH  19  20
ENDBRANCH  17  19
ENDBRANCH  12  13
ENDBRANCH   1  12
TORSDOF 7
ENDMDL
MODEL 9
REMARK VINA RESULT:    -5.687      2.687      7.095
REMARK INTER + INTRA:          -8.360
REMARK INTER:                  -7.795
REMARK INTRA:                  -0.565
REMARK UNBOUND:                -0.512
REMARK  Name = 
REMARK  8 active torsions:
REMARK  status: ('A' for Active; 'I' for Inactive)
REMARK    1  A    between atoms: C_1  and  C_2
REMARK    2  A    between atoms: C_2  and  C_3
REMARK    3  A    between atoms: C_6  and  C_7
REMARK    4  A    between atoms: C_7  and  O_8
REMARK    5  A    between atoms: O_8  and  C_9
REMARK    6  A    between atoms: C_13  and  C_14
REMARK    7  A    between atoms: C_14  and  N_15
REMARK    8  A    between atoms: C_18  and  C_19
REMARK                            x       y       z     vdW  Elec       q    Type
REMARK                         _______ _______ _______ _____ _____    ______ ____
ROOT
ATOM      1  C   UNL     1      46.094   6.788  13.015  0.00  0.00    +0.000 C 
ENDROOT
BRANCH   1   5
ATOM      2  C   UNL     1      44.991   4.312   9.710  0.00  0.00    +0.000 A 
ATOM      3  C   UNL     1      45.838   5.408   9.602  0.00  0.00    +0.000 A 
ATOM      4  N   UNL     1      46.187   6.204  10.634  0.00  0.00    +0.000 NA
ATOM      5  C   UNL     1      45.693   5.905  11.859  0.00  0.00    +0.000 A 
ATOM      6  C   UNL     1      44.843   4.826  12.071  0.00  0.00    +0.000 A 
ATOM      7  C   UNL     1      44.486   4.026  10.985  0.00  0.00    +0.000 A 
BRANCH   2   9
ATOM      8  C   UNL     1      45.955   3.272   7.652  0.00  0.00    +0.000 C 
ATOM      9  C   UNL     1      44.705   3.465   8.499  0.00  0.00    +0.000 C 
ENDBRANCH   2   9
BRANCH   7  10
ATOM     10  C   UNL     1      43.600   2.921  11.216  0.00  0.00    +0.000 C 
ATOM     11  N   UNL     1      42.887   2.024  11.410  0.00  0.00    +0.000 NA
ENDBRANCH   7  10
ENDBRANCH   1   5
BRANCH   1  12
ATOM     12  O   UNL     1      47.514   6.753  13.178  0.00  0.00    +0.000 OA
BRANCH  12  13
ATOM     13  C   UNL     1      47.956   6.223  14.358  0.00  0.00    +0.000 A 
ATOM     14  C   UNL     1      48.827   7.000  15.112  0.00  0.00    +0.000 A 
ATOM     15  N   UNL     1      49.368   6.613  16.293  0.00  0.00    +0.000 NA
ATOM     16  C   UNL     1      49.012   5.392  16.750  0.00  0.00    +0.000 A 
ATOM     17  C   UNL     1      48.132   4.537  16.095  0.00  0.00    +0.000 A 
ATOM     18  C   UNL     1      47.621   4.969  14.866  0.00  0.00    +0.000 A 
BRANCH  17  19
ATOM     19  C   UNL     1      47.816   3.180  16.661  0.00  0.00    +0.000 C 
BRANCH  19  20
ATOM     20  N   UNL     1      46.598   3.171  17.470  0.00  0.00    +0.000 NA
ATOM     21  H   UNL     1      46.078   4.032  17.295  0.00  0.00    +0.000 HD
ATOM     22  H   UNL     1      46.852   3.192  18.456  0.00  0.00    +0.000 HD
ENDBRANCH  19  20
ENDBRANCH  17  19
ENDBRANCH  12  13
ENDBRANCH   1  12
TORSDOF 7
ENDMDL
