MODEL 1
REMARK VINA RESULT:    -8.551      0.000      0.000
REMARK INTER + INTRA:         -12.564
REMARK INTER:                 -11.550
REMARK INTRA:                  -1.014
REMARK UNBOUND:                -1.014
REMARK  Name = 
REMARK  8 active torsions:
REMARK  status: ('A' for Active; 'I' for Inactive)
REMARK    1  A    between atoms: C_1  and  C_2
REMARK    2  A    between atoms: C_4  and  C_5
REMARK    3  A    between atoms: C_13  and  C_14
REMARK    4  A    between atoms: C_14  and  C_15
REMARK    5  A    between atoms: C_14  and  C_16
REMARK    6  A    between atoms: C_16  and  O_17
REMARK    7  A    between atoms: O_17  and  C_18
REMARK    8  A    between atoms: C_21  and  C_22
REMARK                            x       y       z     vdW  Elec       q    Type
REMARK                         _______ _______ _______ _____ _____    ______ ____
ROOT
ATOM      1  C   UNL     1      43.620   4.603  12.524  0.00  0.00    +0.000 C 
ATOM      2  C   UNL     1      42.975   5.753  11.750  0.00  0.00    +0.000 C 
ENDROOT
BRANCH   1   8
ATOM      3  C   UNL     1      47.423   3.805  15.483  0.00  0.00    +0.000 C 
ATOM      4  C   UNL     1      46.801   4.615  14.388  0.00  0.00    +0.000 A 
ATOM      5  N   UNL     1      47.502   5.647  13.889  0.00  0.00    +0.000 NA
ATOM      6  C   UNL     1      46.930   6.364  12.898  0.00  0.00    +0.000 A 
ATOM      7  C   UNL     1      45.665   6.060  12.422  0.00  0.00    +0.000 A 
ATOM      8  C   UNL     1      45.012   4.984  12.988  0.00  0.00    +0.000 A 
ATOM      9  N   UNL     1      45.567   4.259  13.981  0.00  0.00    +0.000 NA
BRANCH   6  10
ATOM     10  C   UNL     1      47.712   7.506  12.376  0.00  0.00    +0.000 A 
ATOM     11  C   UNL     1      47.163   8.802  12.295  0.00  0.00    +0.000 A 
ATOM     12  C   UNL     1      47.924   9.895  11.872  0.00  0.00    +0.000 A 
ATOM     13  C   UNL     1      49.253   9.713  11.502  0.00  0.00    +0.000 A 
ATOM     14  C   UNL     1      49.807   8.437  11.541  0.00  0.00    +0.000 A 
ATOM     15 CL   UNL     1      51.449   8.211  11.078  0.00  0.00    +0.000 Cl
ATOM     16  C   UNL     1      49.048   7.344  11.966  0.00  0.00    +0.000 A 
ENDBRANCH   6  10
ENDBRANCH   1   8
BRANCH   1  17
ATOM     17  C   UNL     1      43.698   3.315  11.694  0.00  0.00    +0.000 C 
BRANCH  17  18
ATOM     18  O   UNL     1      43.405   3.577  10.314  0.00  0.00    +0.000 OA
BRANCH  18  19
ATOM     19  C   UNL     1      44.405   3.273   9.438  0.00  0.00    +0.000 A 
ATOM     20  C   UNL     1      44.943   2.025   9.188  0.00  0.00    +0.000 A 
ATOM     21  N   UNL     1      45.927   1.782   8.294  0.00  0.00    +0.000 NA
ATOM     22  C   UNL     1      46.384   2.868   7.628  0.00  0.00    +0.000 A 
ATOM     23  N   UNL     1      45.946   4.132   7.785  0.00  0.00    +0.000 NA
ATOM     24  C   UNL     1      44.960   4.298   8.696  0.00  0.00    +0.000 A 
BRANCH  22  25
ATOM     25  C   UNL     1      47.474   2.602   6.616  0.00  0.00    +0.000 C 
ATOM     26  N   UNL     1      47.303   3.213   5.395  0.00  0.00    +0.000 N 
ATOM     27  O   UNL     1      48.454   1.900   6.829  0.00  0.00    +0.000 OA
ATOM     28  H   UNL     1      46.490   3.793   5.225  0.00  0.00    +0.000 HD
ATOM     29  H   UNL     1      47.999   3.074   4.675  0.00  0.00    +0.000 HD
ENDBRANCH  22  25
ENDBRANCH  18  19
ENDBRANCH  17  18
ENDBRANCH   1  17
TORSDOF 6
ENDMDL
MODEL 2
REMARK VINA RESULT:    -8.386      1.111      1.702
REMARK INTER + INTRA:         -12.341
REMARK INTER:                 -11.417
REMARK INTRA:                  -0.924
REMARK UNBOUND:                -1.014
REMARK  Name = 
REMARK  8 active torsions:
REMARK  status: ('A' for Active; 'I' for Inactive)
REMARK    1  A    between atoms: C_1  and  C_2
REMARK    2  A    between atoms: C_4  and  C_5
REMARK    3  A    between atoms: C_13  and  C_14
REMARK    4  A    between atoms: C_14  and  C_15
REMARK    5  A    between atoms: C_14  and  C_16
REMARK    6  A    between atoms: C_16  and  O_17
REMARK    7  A    between atoms: O_17  and  C_18
REMARK    8  A    between atoms: C_21  and  C_22
REMARK                            x       y       z     vdW  Elec       q    Type
REMARK                         _______ _______ _______ _____ _____    ______ ____
ROOT
ATOM      1  C   UNL     1      43.923   4.611  12.321  0.00  0.00    +0.000 C 
ATOM      2  C   UNL     1      43.362   5.776  11.505  0.00  0.00    +0.000 C 
ENDROOT
BRANCH   1   8
ATOM      3  C   UNL     1      47.411   3.806  15.644  0.00  0.00    +0.000 C 
ATOM      4  C   UNL     1      46.918   4.595  14.471  0.00  0.00    +0.000 A 
ATOM      5  N   UNL     1      47.696   5.588  14.004  0.00  0.00    +0.000 NA
ATOM      6  C   UNL     1      47.241   6.285  12.942  0.00  0.00    +0.000 A 
ATOM      7  C   UNL     1      46.016   6.002  12.361  0.00  0.00    +0.000 A 
ATOM      8  C   UNL     1      45.278   4.967  12.899  0.00  0.00    +0.000 A 
ATOM      9  N   UNL     1      45.716   4.262  13.963  0.00  0.00    +0.000 NA
BRANCH   6  10
ATOM     10  C   UNL     1      48.104   7.384  12.458  0.00  0.00    +0.000 A 
ATOM     11  C   UNL     1      49.481   7.195  12.222  0.00  0.00    +0.000 A 
ATOM     12  C   UNL     1      50.282   8.212  11.696  0.00  0.00    +0.000 A 
ATOM     13  C   UNL     1      49.725   9.454  11.409  0.00  0.00    +0.000 A 
ATOM     14  C   UNL     1      48.375   9.676  11.665  0.00  0.00    +0.000 A 
ATOM     15 CL   UNL     1      47.687  11.214  11.314  0.00  0.00    +0.000 Cl
ATOM     16  C   UNL     1      47.573   8.659  12.189  0.00  0.00    +0.000 A 
ENDBRANCH   6  10
ENDBRANCH   1   8
BRANCH   1  17
ATOM     17  C   UNL     1      44.048   3.326  11.492  0.00  0.00    +0.000 C 
BRANCH  17  18
ATOM     18  O   UNL     1      43.684   3.562  10.124  0.00  0.00    +0.000 OA
BRANCH  18  19
ATOM     19  C   UNL     1      44.635   3.231   9.204  0.00  0.00    +0.000 A 
ATOM     20  C   UNL     1      45.256   4.079   8.307  0.00  0.00    +0.000 A 
ATOM     21  N   UNL     1      46.206   3.697   7.426  0.00  0.00    +0.000 NA
ATOM     22  C   UNL     1      46.532   2.384   7.461  0.00  0.00    +0.000 A 
ATOM     23  N   UNL     1      45.997   1.460   8.282  0.00  0.00    +0.000 NA
ATOM     24  C   UNL     1      45.053   1.917   9.137  0.00  0.00    +0.000 A 
BRANCH  22  25
ATOM     25  C   UNL     1      47.604   1.951   6.488  0.00  0.00    +0.000 C 
ATOM     26  N   UNL     1      48.683   2.800   6.387  0.00  0.00    +0.000 N 
ATOM     27  O   UNL     1      47.554   0.926   5.820  0.00  0.00    +0.000 OA
ATOM     28  H   UNL     1      48.718   3.646   6.942  0.00  0.00    +0.000 HD
ATOM     29  H   UNL     1      49.434   2.565   5.752  0.00  0.00    +0.000 HD
ENDBRANCH  22  25
ENDBRANCH  18  19
ENDBRANCH  17  18
ENDBRANCH   1  17
TORSDOF 6
ENDMDL
MODEL 3
REMARK VINA RESULT:    -8.127      2.205      4.219
REMARK INTER + INTRA:         -11.992
REMARK INTER:                 -11.218
REMARK INTRA:                  -0.774
REMARK UNBOUND:                -1.014
REMARK  Name = 
REMARK  8 active torsions:
REMARK  status: ('A' for Active; 'I' for Inactive)
REMARK    1  A    between atoms: C_1  and  C_2
REMARK    2  A    between atoms: C_4  and  C_5
REMARK    3  A    between atoms: C_13  and  C_14
REMARK    4  A    between atoms: C_14  and  C_15
REMARK    5  A    between atoms: C_14  and  C_16
REMARK    6  A    between atoms: C_16  and  O_17
REMARK    7  A    between atoms: O_17  and  C_18
REMARK    8  A    between atoms: C_21  and  C_22
REMARK                            x       y       z     vdW  Elec       q    Type
REMARK                         _______ _______ _______ _____ _____    ______ ____
ROOT
ATOM      1  C   UNL     1      44.467   4.397  12.324  0.00  0.00    +0.000 C 
ATOM      2  C   UNL     1      43.237   4.798  13.139  0.00  0.00    +0.000 C 
ENDROOT
BRANCH   1   8
ATOM      3  C   UNL     1      48.408   7.270  12.056  0.00  0.00    +0.000 C 
ATOM      4  C   UNL     1      47.593   6.283  12.835  0.00  0.00    +0.000 A 
ATOM      5  N   UNL     1      48.036   5.916  14.050  0.00  0.00    +0.000 NA
ATOM      6  C   UNL     1      47.287   5.031  14.741  0.00  0.00    +0.000 A 
ATOM      7  C   UNL     1      46.116   4.508  14.218  0.00  0.00    +0.000 A 
ATOM      8  C   UNL     1      45.731   4.937  12.964  0.00  0.00    +0.000 A 
ATOM      9  N   UNL     1      46.469   5.818  12.257  0.00  0.00    +0.000 NA
BRANCH   6  10
ATOM     10  C   UNL     1      47.803   4.627  16.068  0.00  0.00    +0.000 A 
ATOM     11  C   UNL     1      47.705   3.298  16.526  0.00  0.00    +0.000 A 
ATOM     12  C   UNL     1      48.257   2.900  17.747  0.00  0.00    +0.000 A 
ATOM     13  C   UNL     1      48.908   3.832  18.549  0.00  0.00    +0.000 A 
ATOM     14  C   UNL     1      48.988   5.158  18.133  0.00  0.00    +0.000 A 
ATOM     15 CL   UNL     1      49.789   6.312  19.128  0.00  0.00    +0.000 Cl
ATOM     16  C   UNL     1      48.438   5.556  16.912  0.00  0.00    +0.000 A 
ENDBRANCH   6  10
ENDBRANCH   1   8
BRANCH   1  17
ATOM     17  C   UNL     1      44.387   4.884  10.872  0.00  0.00    +0.000 C 
BRANCH  17  18
ATOM     18  O   UNL     1      43.914   3.841  10.007  0.00  0.00    +0.000 OA
BRANCH  18  19
ATOM     19  C   UNL     1      44.811   3.403   9.078  0.00  0.00    +0.000 A 
ATOM     20  C   UNL     1      45.405   4.148   8.077  0.00  0.00    +0.000 A 
ATOM     21  N   UNL     1      46.302   3.662   7.192  0.00  0.00    +0.000 NA
ATOM     22  C   UNL     1      46.603   2.350   7.335  0.00  0.00    +0.000 A 
ATOM     23  N   UNL     1      46.090   1.521   8.264  0.00  0.00    +0.000 NA
ATOM     24  C   UNL     1      45.199   2.078   9.115  0.00  0.00    +0.000 A 
BRANCH  22  25
ATOM     25  C   UNL     1      47.616   1.802   6.358  0.00  0.00    +0.000 C 
ATOM     26  N   UNL     1      48.807   2.491   6.299  0.00  0.00    +0.000 N 
ATOM     27  O   UNL     1      47.431   0.818   5.653  0.00  0.00    +0.000 OA
ATOM     28  H   UNL     1      48.954   3.303   6.885  0.00  0.00    +0.000 HD
ATOM     29  H   UNL     1      49.526   2.173   5.664  0.00  0.00    +0.000 HD
ENDBRANCH  22  25
ENDBRANCH  18  19
ENDBRANCH  17  18
ENDBRANCH   1  17
TORSDOF 6
ENDMDL
MODEL 4
REMARK VINA RESULT:    -7.787      3.490      7.199
REMARK INTER + INTRA:         -11.532
REMARK INTER:                 -10.675
REMARK INTRA:                  -0.857
REMARK UNBOUND:                -1.014
REMARK  Name = 
REMARK  8 active torsions:
REMARK  status: ('A' for Active; 'I' for Inactive)
REMARK    1  A    between atoms: C_1  and  C_2
REMARK    2  A    between atoms: C_4  and  C_5
REMARK    3  A    between atoms: C_13  and  C_14
REMARK    4  A    between atoms: C_14  and  C_15
REMARK    5  A    between atoms: C_14  and  C_16
REMARK    6  A    between atoms: C_16  and  O_17
REMARK    7  A    between atoms: O_17  and  C_18
REMARK    8  A    between atoms: C_21  and  C_22
REMARK                            x       y       z     vdW  Elec       q    Type
REMARK                         _______ _______ _______ _____ _____    ______ ____
ROOT
ATOM      1  C   UNL     1      45.300   7.143  11.192  0.00  0.00    +0.000 C 
ATOM      2  C   UNL     1      43.974   7.893  11.334  0.00  0.00    +0.000 C 
ENDROOT
BRANCH   1   8
ATOM      3  C   UNL     1      43.263   2.869  12.391  0.00  0.00    +0.000 C 
ATOM      4  C   UNL     1      44.104   3.665  11.442  0.00  0.00    +0.000 A 
ATOM      5  N   UNL     1      44.614   3.036  10.368  0.00  0.00    +0.000 NA
ATOM      6  C   UNL     1      45.365   3.768   9.519  0.00  0.00    +0.000 A 
ATOM      7  C   UNL     1      45.616   5.111   9.748  0.00  0.00    +0.000 A 
ATOM      8  C   UNL     1      45.056   5.682  10.873  0.00  0.00    +0.000 A 
ATOM      9  N   UNL     1      44.305   4.964  11.734  0.00  0.00    +0.000 NA
BRANCH   6  10
ATOM     10  C   UNL     1      45.930   3.051   8.355  0.00  0.00    +0.000 A 
ATOM     11  C   UNL     1      46.347   3.736   7.195  0.00  0.00    +0.000 A 
ATOM     12  C   UNL     1      46.948   3.067   6.125  0.00  0.00    +0.000 A 
ATOM     13  C   UNL     1      47.130   1.689   6.184  0.00  0.00    +0.000 A 
ATOM     14  C   UNL     1      46.695   0.986   7.303  0.00  0.00    +0.000 A 
ATOM     15 CL   UNL     1      46.917  -0.719   7.373  0.00  0.00    +0.000 Cl
ATOM     16  C   UNL     1      46.096   1.654   8.375  0.00  0.00    +0.000 A 
ENDBRANCH   6  10
ENDBRANCH   1   8
BRANCH   1  17
ATOM     17  C   UNL     1      46.164   7.248  12.455  0.00  0.00    +0.000 C 
BRANCH  17  18
ATOM     18  O   UNL     1      47.230   6.288  12.428  0.00  0.00    +0.000 OA
BRANCH  18  19
ATOM     19  C   UNL     1      47.448   5.627  13.601  0.00  0.00    +0.000 A 
ATOM     20  C   UNL     1      48.101   6.110  14.720  0.00  0.00    +0.000 A 
ATOM     21  N   UNL     1      48.275   5.413  15.864  0.00  0.00    +0.000 NA
ATOM     22  C   UNL     1      47.760   4.161  15.862  0.00  0.00    +0.000 A 
ATOM     23  N   UNL     1      47.109   3.578  14.837  0.00  0.00    +0.000 NA
ATOM     24  C   UNL     1      46.973   4.336  13.725  0.00  0.00    +0.000 A 
BRANCH  22  25
ATOM     25  C   UNL     1      47.937   3.381  17.143  0.00  0.00    +0.000 C 
ATOM     26  N   UNL     1      46.799   2.772  17.622  0.00  0.00    +0.000 N 
ATOM     27  O   UNL     1      49.000   3.273  17.742  0.00  0.00    +0.000 OA
ATOM     28  H   UNL     1      45.924   2.864  17.121  0.00  0.00    +0.000 HD
ATOM     29  H   UNL     1      46.853   2.234  18.476  0.00  0.00    +0.000 HD
ENDBRANCH  22  25
ENDBRANCH  18  19
ENDBRANCH  17  18
ENDBRANCH   1  17
TORSDOF 6
ENDMDL
MODEL 5
REMARK VINA RESULT:    -7.470      1.837      2.713
REMARK INTER + INTRA:         -11.104
REMARK INTER:                 -10.318
REMARK INTRA:                  -0.786
REMARK UNBOUND:                -1.014
REMARK  Name = 
REMARK  8 active torsions:
REMARK  status: ('A' for Active; 'I' for Inactive)
REMARK    1  A    between atoms: C_1  and  C_2
REMARK    2  A    between atoms: C_4  and  C_5
REMARK    3  A    between atoms: C_13  and  C_14
REMARK    4  A    between atoms: C_14  and  C_15
REMARK    5  A    between atoms: C_14  and  C_16
REMARK    6  A    between atoms: C_16  and  O_17
REMARK    7  A    between atoms: O_17  and  C_18
REMARK    8  A    between atoms: C_21  and  C_22
REMARK                            x       y       z     vdW  Elec       q    Type
REMARK                         _______ _______ _______ _____ _____    ______ ____
ROOT
ATOM      1  C   UNL     1      44.211   4.971  11.886  0.00  0.00    +0.000 C 
ATOM      2  C   UNL     1      43.183   4.887  13.015  0.00  0.00    +0.000 C 
ENDROOT
BRANCH   1   8
ATOM      3  C   UNL     1      43.911   9.772  11.041  0.00  0.00    +0.000 C 
ATOM      4  C   UNL     1      44.736   8.595  11.460  0.00  0.00    +0.000 A 
ATOM      5  N   UNL     1      46.025   8.808  11.779  0.00  0.00    +0.000 NA
ATOM      6  C   UNL     1      46.753   7.738  12.162  0.00  0.00    +0.000 A 
ATOM      7  C   UNL     1      46.204   6.467  12.210  0.00  0.00    +0.000 A 
ATOM      8  C   UNL     1      44.874   6.334  11.867  0.00  0.00    +0.000 A 
ATOM      9  N   UNL     1      44.132   7.392  11.480  0.00  0.00    +0.000 NA
BRANCH   6  10
ATOM     10  C   UNL     1      48.173   7.992  12.490  0.00  0.00    +0.000 A 
ATOM     11  C   UNL     1      48.571   8.417  13.774  0.00  0.00    +0.000 A 
ATOM     12  C   UNL     1      49.917   8.588  14.106  0.00  0.00    +0.000 A 
ATOM     13  C   UNL     1      50.901   8.352  13.151  0.00  0.00    +0.000 A 
ATOM     14  C   UNL     1      50.532   7.965  11.866  0.00  0.00    +0.000 A 
ATOM     15 CL   UNL     1      51.749   7.678  10.684  0.00  0.00    +0.000 Cl
ATOM     16  C   UNL     1      49.186   7.792  11.534  0.00  0.00    +0.000 A 
ENDBRANCH   6  10
ENDBRANCH   1   8
BRANCH   1  17
ATOM     17  C   UNL     1      43.589   4.692  10.511  0.00  0.00    +0.000 C 
BRANCH  17  18
ATOM     18  O   UNL     1      43.725   3.307  10.159  0.00  0.00    +0.000 OA
BRANCH  18  19
ATOM     19  C   UNL     1      44.695   3.033   9.240  0.00  0.00    +0.000 A 
ATOM     20  C   UNL     1      45.321   3.931   8.397  0.00  0.00    +0.000 A 
ATOM     21  N   UNL     1      46.289   3.603   7.513  0.00  0.00    +0.000 NA
ATOM     22  C   UNL     1      46.630   2.293   7.489  0.00  0.00    +0.000 A 
ATOM     23  N   UNL     1      46.092   1.325   8.254  0.00  0.00    +0.000 NA
ATOM     24  C   UNL     1      45.129   1.728   9.115  0.00  0.00    +0.000 A 
BRANCH  22  25
ATOM     25  C   UNL     1      47.722   1.921   6.515  0.00  0.00    +0.000 C 
ATOM     26  N   UNL     1      48.742   2.838   6.396  0.00  0.00    +0.000 N 
ATOM     27  O   UNL     1      47.736   0.886   5.859  0.00  0.00    +0.000 OA
ATOM     28  H   UNL     1      48.724   3.691   6.941  0.00  0.00    +0.000 HD
ATOM     29  H   UNL     1      49.503   2.646   5.760  0.00  0.00    +0.000 HD
ENDBRANCH  22  25
ENDBRANCH  18  19
ENDBRANCH  17  18
ENDBRANCH   1  17
TORSDOF 6
ENDMDL
MODEL 6
REMARK VINA RESULT:    -7.359      2.752      3.340
REMARK INTER + INTRA:         -10.954
REMARK INTER:                 -10.172
REMARK INTRA:                  -0.783
REMARK UNBOUND:                -1.014
REMARK  Name = 
REMARK  8 active torsions:
REMARK  status: ('A' for Active; 'I' for Inactive)
REMARK    1  A    between atoms: C_1  and  C_2
REMARK    2  A    between atoms: C_4  and  C_5
REMARK    3  A    between atoms: C_13  and  C_14
REMARK    4  A    between atoms: C_14  and  C_15
REMARK    5  A    between atoms: C_14  and  C_16
REMARK    6  A    between atoms: C_16  and  O_17
REMARK    7  A    between atoms: O_17  and  C_18
REMARK    8  A    between atoms: C_21  and  C_22
REMARK                            x       y       z     vdW  Elec       q    Type
REMARK                         _______ _______ _______ _____ _____    ______ ____
ROOT
ATOM      1  C   UNL     1      45.023   4.490  11.794  0.00  0.00    +0.000 C 
ATOM      2  C   UNL     1      44.724   3.671  13.050  0.00  0.00    +0.000 C 
ENDROOT
BRANCH   1   8
ATOM      3  C   UNL     1      48.367   7.089  14.227  0.00  0.00    +0.000 C 
ATOM      4  C   UNL     1      47.179   7.065  13.316  0.00  0.00    +0.000 A 
ATOM      5  N   UNL     1      46.686   8.240  12.888  0.00  0.00    +0.000 NA
ATOM      6  C   UNL     1      45.619   8.201  12.061  0.00  0.00    +0.000 A 
ATOM      7  C   UNL     1      45.043   7.001  11.679  0.00  0.00    +0.000 A 
ATOM      8  C   UNL     1      45.610   5.839  12.162  0.00  0.00    +0.000 A 
ATOM      9  N   UNL     1      46.674   5.859  12.991  0.00  0.00    +0.000 NA
BRANCH   6  10
ATOM     10  C   UNL     1      45.082   9.506  11.619  0.00  0.00    +0.000 A 
ATOM     11  C   UNL     1      45.801  10.704  11.807  0.00  0.00    +0.000 A 
ATOM     12  C   UNL     1      45.328  11.927  11.325  0.00  0.00    +0.000 A 
ATOM     13  C   UNL     1      44.110  11.983  10.654  0.00  0.00    +0.000 A 
ATOM     14  C   UNL     1      43.366  10.819  10.485  0.00  0.00    +0.000 A 
ATOM     15 CL   UNL     1      41.858  10.889   9.659  0.00  0.00    +0.000 Cl
ATOM     16  C   UNL     1      43.839   9.595  10.965  0.00  0.00    +0.000 A 
ENDBRANCH   6  10
ENDBRANCH   1   8
BRANCH   1  17
ATOM     17  C   UNL     1      43.776   4.700  10.925  0.00  0.00    +0.000 C 
BRANCH  17  18
ATOM     18  O   UNL     1      43.526   3.553  10.101  0.00  0.00    +0.000 OA
BRANCH  18  19
ATOM     19  C   UNL     1      44.532   3.223   9.241  0.00  0.00    +0.000 A 
ATOM     20  C   UNL     1      45.121   1.982   9.085  0.00  0.00    +0.000 A 
ATOM     21  N   UNL     1      46.107   1.710   8.202  0.00  0.00    +0.000 NA
ATOM     22  C   UNL     1      46.512   2.758   7.447  0.00  0.00    +0.000 A 
ATOM     23  N   UNL     1      46.022   4.010   7.509  0.00  0.00    +0.000 NA
ATOM     24  C   UNL     1      45.037   4.208   8.415  0.00  0.00    +0.000 A 
BRANCH  22  25
ATOM     25  C   UNL     1      47.604   2.458   6.448  0.00  0.00    +0.000 C 
ATOM     26  N   UNL     1      47.369   2.906   5.168  0.00  0.00    +0.000 N 
ATOM     27  O   UNL     1      48.640   1.862   6.718  0.00  0.00    +0.000 OA
ATOM     28  H   UNL     1      46.511   3.398   4.951  0.00  0.00    +0.000 HD
ATOM     29  H   UNL     1      48.063   2.736   4.453  0.00  0.00    +0.000 HD
ENDBRANCH  22  25
ENDBRANCH  18  19
ENDBRANCH  17  18
ENDBRANCH   1  17
TORSDOF 6
ENDMDL
MODEL 7
REMARK VINA RESULT:    -7.318      2.475      3.259
REMARK INTER + INTRA:         -10.898
REMARK INTER:                 -10.193
REMARK INTRA:                  -0.705
REMARK UNBOUND:                -1.014
REMARK  Name = 
REMARK  8 active torsions:
REMARK  status: ('A' for Active; 'I' for Inactive)
REMARK    1  A    between atoms: C_1  and  C_2
REMARK    2  A    between atoms: C_4  and  C_5
REMARK    3  A    between atoms: C_13  and  C_14
REMARK    4  A    between atoms: C_14  and  C_15
REMARK    5  A    between atoms: C_14  and  C_16
REMARK    6  A    between atoms: C_16  and  O_17
REMARK    7  A    between atoms: O_17  and  C_18
REMARK    8  A    between atoms: C_21  and  C_22
REMARK                            x       y       z     vdW  Elec       q    Type
REMARK                         _______ _______ _______ _____ _____    ______ ____
ROOT
ATOM      1  C   UNL     1      45.226   4.726  11.772  0.00  0.00    +0.000 C 
ATOM      2  C   UNL     1      44.658   3.825  12.869  0.00  0.00    +0.000 C 
ENDROOT
BRANCH   1   8
ATOM      3  C   UNL     1      45.224   9.577  12.341  0.00  0.00    +0.000 C 
ATOM      4  C   UNL     1      45.862   8.254  12.633  0.00  0.00    +0.000 A 
ATOM      5  N   UNL     1      46.968   8.240  13.396  0.00  0.00    +0.000 NA
ATOM      6  C   UNL     1      47.527   7.039  13.656  0.00  0.00    +0.000 A 
ATOM      7  C   UNL     1      46.994   5.867  13.146  0.00  0.00    +0.000 A 
ATOM      8  C   UNL     1      45.856   5.967  12.372  0.00  0.00    +0.000 A 
ATOM      9  N   UNL     1      45.286   7.159  12.100  0.00  0.00    +0.000 NA
BRANCH   6  10
ATOM     10  C   UNL     1      48.755   7.050  14.482  0.00  0.00    +0.000 A 
ATOM     11  C   UNL     1      49.907   7.757  14.085  0.00  0.00    +0.000 A 
ATOM     12  C   UNL     1      51.041   7.827  14.898  0.00  0.00    +0.000 A 
ATOM     13  C   UNL     1      51.054   7.174  16.127  0.00  0.00    +0.000 A 
ATOM     14  C   UNL     1      49.940   6.441  16.526  0.00  0.00    +0.000 A 
ATOM     15 CL   UNL     1      49.959   5.630  18.044  0.00  0.00    +0.000 Cl
ATOM     16  C   UNL     1      48.805   6.372  15.714  0.00  0.00    +0.000 A 
ENDBRANCH   6  10
ENDBRANCH   1   8
BRANCH   1  17
ATOM     17  C   UNL     1      44.159   5.143  10.752  0.00  0.00    +0.000 C 
BRANCH  17  18
ATOM     18  O   UNL     1      43.701   4.012   9.996  0.00  0.00    +0.000 OA
BRANCH  18  19
ATOM     19  C   UNL     1      44.640   3.427   9.199  0.00  0.00    +0.000 A 
ATOM     20  C   UNL     1      45.020   2.098   9.197  0.00  0.00    +0.000 A 
ATOM     21  N   UNL     1      45.949   1.570   8.370  0.00  0.00    +0.000 NA
ATOM     22  C   UNL     1      46.518   2.443   7.506  0.00  0.00    +0.000 A 
ATOM     23  N   UNL     1      46.236   3.757   7.414  0.00  0.00    +0.000 NA
ATOM     24  C   UNL     1      45.297   4.214   8.273  0.00  0.00    +0.000 A 
BRANCH  22  25
ATOM     25  C   UNL     1      47.546   1.857   6.568  0.00  0.00    +0.000 C 
ATOM     26  N   UNL     1      48.653   2.643   6.344  0.00  0.00    +0.000 N 
ATOM     27  O   UNL     1      47.439   0.764   6.026  0.00  0.00    +0.000 OA
ATOM     28  H   UNL     1      48.735   3.546   6.795  0.00  0.00    +0.000 HD
ATOM     29  H   UNL     1      49.377   2.306   5.724  0.00  0.00    +0.000 HD
ENDBRANCH  22  25
ENDBRANCH  18  19
ENDBRANCH  17  18
ENDBRANCH   1  17
TORSDOF 6
ENDMDL
MODEL 8
REMARK VINA RESULT:    -7.213      3.366      7.105
REMARK INTER + INTRA:         -10.757
REMARK INTER:                  -9.944
REMARK INTRA:                  -0.813
REMARK UNBOUND:                -1.014
REMARK  Name = 
REMARK  8 active torsions:
REMARK  status: ('A' for Active; 'I' for Inactive)
REMARK    1  A    between atoms: C_1  and  C_2
REMARK    2  A    between atoms: C_4  and  C_5
REMARK    3  A    between atoms: C_13  and  C_14
REMARK    4  A    between atoms: C_14  and  C_15
REMARK    5  A    between atoms: C_14  and  C_16
REMARK    6  A    between atoms: C_16  and  O_17
REMARK    7  A    between atoms: O_17  and  C_18
REMARK    8  A    between atoms: C_21  and  C_22
REMARK                            x       y       z     vdW  Elec       q    Type
REMARK                         _______ _______ _______ _____ _____    ______ ____
ROOT
ATOM      1  C   UNL     1      46.124   8.030  11.591  0.00  0.00    +0.000 C 
ATOM      2  C   UNL     1      45.249   9.281  11.682  0.00  0.00    +0.000 C 
ENDROOT
BRANCH   1   8
ATOM      3  C   UNL     1      41.955   5.498  11.849  0.00  0.00    +0.000 C 
ATOM      4  C   UNL     1      43.338   5.633  11.293  0.00  0.00    +0.000 A 
ATOM      5  N   UNL     1      43.782   4.674  10.461  0.00  0.00    +0.000 NA
ATOM      6  C   UNL     1      45.029   4.813   9.963  0.00  0.00    +0.000 A 
ATOM      7  C   UNL     1      45.829   5.890  10.305  0.00  0.00    +0.000 A 
ATOM      8  C   UNL     1      45.299   6.831  11.165  0.00  0.00    +0.000 A 
ATOM      9  N   UNL     1      44.056   6.707  11.674  0.00  0.00    +0.000 NA
BRANCH   6  10
ATOM     10  C   UNL     1      45.502   3.737   9.064  0.00  0.00    +0.000 A 
ATOM     11  C   UNL     1      45.357   2.376   9.401  0.00  0.00    +0.000 A 
ATOM     12  C   UNL     1      45.737   1.359   8.521  0.00  0.00    +0.000 A 
ATOM     13  C   UNL     1      46.289   1.682   7.286  0.00  0.00    +0.000 A 
ATOM     14  C   UNL     1      46.474   3.019   6.945  0.00  0.00    +0.000 A 
ATOM     15 CL   UNL     1      47.162   3.418   5.419  0.00  0.00    +0.000 Cl
ATOM     16  C   UNL     1      46.092   4.037   7.823  0.00  0.00    +0.000 A 
ENDBRANCH   6  10
ENDBRANCH   1   8
BRANCH   1  17
ATOM     17  C   UNL     1      46.827   7.715  12.917  0.00  0.00    +0.000 C 
BRANCH  17  18
ATOM     18  O   UNL     1      47.704   6.587  12.778  0.00  0.00    +0.000 OA
BRANCH  18  19
ATOM     19  C   UNL     1      47.649   5.678  13.792  0.00  0.00    +0.000 A 
ATOM     20  C   UNL     1      47.098   4.411  13.747  0.00  0.00    +0.000 A 
ATOM     21  N   UNL     1      47.087   3.544  14.783  0.00  0.00    +0.000 NA
ATOM     22  C   UNL     1      47.661   3.997  15.922  0.00  0.00    +0.000 A 
ATOM     23  N   UNL     1      48.225   5.208  16.092  0.00  0.00    +0.000 NA
ATOM     24  C   UNL     1      48.200   6.021  15.011  0.00  0.00    +0.000 A 
BRANCH  22  25
ATOM     25  C   UNL     1      47.666   3.029  17.081  0.00  0.00    +0.000 C 
ATOM     26  N   UNL     1      48.904   2.549  17.441  0.00  0.00    +0.000 N 
ATOM     27  O   UNL     1      46.661   2.672  17.683  0.00  0.00    +0.000 OA
ATOM     28  H   UNL     1      49.731   2.849  16.939  0.00  0.00    +0.000 HD
ATOM     29  H   UNL     1      48.973   1.897  18.211  0.00  0.00    +0.000 HD
ENDBRANCH  22  25
ENDBRANCH  18  19
ENDBRANCH  17  18
ENDBRANCH   1  17
TORSDOF 6
ENDMDL
MODEL 9
REMARK VINA RESULT:    -6.957      4.151      7.738
REMARK INTER + INTRA:         -10.412
REMARK INTER:                  -9.447
REMARK INTRA:                  -0.964
REMARK UNBOUND:                -1.014
REMARK  Name = 
REMARK  8 active torsions:
REMARK  status: ('A' for Active; 'I' for Inactive)
REMARK    1  A    between atoms: C_1  and  C_2
REMARK    2  A    between atoms: C_4  and  C_5
REMARK    3  A    between atoms: C_13  and  C_14
REMARK    4  A    between atoms: C_14  and  C_15
REMARK    5  A    between atoms: C_14  and  C_16
REMARK    6  A    between atoms: C_16  and  O_17
REMARK    7  A    between atoms: O_17  and  C_18
REMARK    8  A    between atoms: C_21  and  C_22
REMARK                            x       y       z     vdW  Elec       q    Type
REMARK                         _______ _______ _______ _____ _____    ______ ____
ROOT
ATOM      1  C   UNL     1      48.906   8.497  12.174  0.00  0.00    +0.000 C 
ATOM      2  C   UNL     1      49.167   9.934  12.630  0.00  0.00    +0.000 C 
ENDROOT
BRANCH   1   8
ATOM      3  C   UNL     1      44.380  10.292  11.779  0.00  0.00    +0.000 C 
ATOM      4  C   UNL     1      45.286   9.100  11.816  0.00  0.00    +0.000 A 
ATOM      5  N   UNL     1      44.732   7.881  11.705  0.00  0.00    +0.000 NA
ATOM      6  C   UNL     1      45.563   6.817  11.733  0.00  0.00    +0.000 A 
ATOM      7  C   UNL     1      46.931   6.970  11.886  0.00  0.00    +0.000 A 
ATOM      8  C   UNL     1      47.420   8.256  11.993  0.00  0.00    +0.000 A 
ATOM      9  N   UNL     1      46.605   9.330  11.969  0.00  0.00    +0.000 NA
BRANCH   6  10
ATOM     10  C   UNL     1      44.929   5.484  11.628  0.00  0.00    +0.000 A 
ATOM     11  C   UNL     1      44.175   4.938  12.687  0.00  0.00    +0.000 A 
ATOM     12  C   UNL     1      43.516   3.713  12.562  0.00  0.00    +0.000 A 
ATOM     13  C   UNL     1      43.610   2.993  11.375  0.00  0.00    +0.000 A 
ATOM     14  C   UNL     1      44.376   3.496  10.327  0.00  0.00    +0.000 A 
ATOM     15 CL   UNL     1      44.495   2.603   8.860  0.00  0.00    +0.000 Cl
ATOM     16  C   UNL     1      45.034   4.722  10.450  0.00  0.00    +0.000 A 
ENDBRANCH   6  10
ENDBRANCH   1   8
BRANCH   1  17
ATOM     17  C   UNL     1      49.471   7.464  13.157  0.00  0.00    +0.000 C 
BRANCH  17  18
ATOM     18  O   UNL     1      49.176   7.831  14.513  0.00  0.00    +0.000 OA
BRANCH  18  19
ATOM     19  C   UNL     1      48.837   6.798  15.336  0.00  0.00    +0.000 A 
ATOM     20  C   UNL     1      49.159   6.658  16.672  0.00  0.00    +0.000 A 
ATOM     21  N   UNL     1      48.781   5.616  17.445  0.00  0.00    +0.000 NA
ATOM     22  C   UNL     1      48.042   4.671  16.818  0.00  0.00    +0.000 A 
ATOM     23  N   UNL     1      47.668   4.691  15.524  0.00  0.00    +0.000 NA
ATOM     24  C   UNL     1      48.083   5.765  14.814  0.00  0.00    +0.000 A 
BRANCH  22  25
ATOM     25  C   UNL     1      47.603   3.510  17.678  0.00  0.00    +0.000 C 
ATOM     26  N   UNL     1      48.397   3.255  18.773  0.00  0.00    +0.000 N 
ATOM     27  O   UNL     1      46.616   2.820  17.452  0.00  0.00    +0.000 OA
ATOM     28  H   UNL     1      49.211   3.830  18.955  0.00  0.00    +0.000 HD
ATOM     29  H   UNL     1      48.155   2.490  19.388  0.00  0.00    +0.000 HD
ENDBRANCH  22  25
ENDBRANCH  18  19
ENDBRANCH  17  18
ENDBRANCH   1  17
TORSDOF 6
ENDMDL
