MODEL 1
REMARK VINA RESULT:    -7.950      0.000      0.000
REMARK INTER + INTRA:         -11.828
REMARK INTER:                 -10.972
REMARK INTRA:                  -0.857
REMARK UNBOUND:                -0.857
REMARK  Name = 
REMARK  8 active torsions:
REMARK  status: ('A' for Active; 'I' for Inactive)
REMARK    1  A    between atoms: C_1  and  C_2
REMARK    2  A    between atoms: C_2  and  C_3
REMARK    3  A    between atoms: C_2  and  C_15
REMARK    4  A    between atoms: C_3  and  O_4
REMARK    5  A    between atoms: O_4  and  C_5
REMARK    6  A    between atoms: C_8  and  C_9
REMARK    7  A    between atoms: C_19  and  C_20
REMARK    8  A    between atoms: C_20  and  N_21
REMARK                            x       y       z     vdW  Elec       q    Type
REMARK                         _______ _______ _______ _____ _____    ______ ____
ROOT
ATOM      1  C   UNL     1      43.655   4.919  10.253  0.00  0.00    +0.000 C 
ENDROOT
BRANCH   1   3
ATOM      2  C   UNL     1      42.907   4.722  12.670  0.00  0.00    +0.000 C 
ATOM      3  C   UNL     1      43.715   5.544  11.657  0.00  0.00    +0.000 C 
BRANCH   3   4
ATOM      4  C   UNL     1      45.154   5.702  12.125  0.00  0.00    +0.000 A 
ATOM      5  C   UNL     1      46.026   6.562  11.447  0.00  0.00    +0.000 A 
ATOM      6  C   UNL     1      47.331   6.756  11.906  0.00  0.00    +0.000 A 
ATOM      7  C   UNL     1      47.777   6.108  13.058  0.00  0.00    +0.000 A 
ATOM      8  C   UNL     1      46.925   5.249  13.760  0.00  0.00    +0.000 A 
ATOM      9  C   UNL     1      45.629   5.032  13.266  0.00  0.00    +0.000 A 
BRANCH   8  10
ATOM     10  C   UNL     1      47.371   4.587  15.040  0.00  0.00    +0.000 C 
BRANCH  10  11
ATOM     11  N   UNL     1      47.591   3.156  14.841  0.00  0.00    +0.000 NA
ATOM     12  H   UNL     1      48.318   3.032  14.137  0.00  0.00    +0.000 HD
ATOM     13  H   UNL     1      46.746   2.734  14.463  0.00  0.00    +0.000 HD
ENDBRANCH  10  11
ENDBRANCH   8  10
ENDBRANCH   3   4
ENDBRANCH   1   3
BRANCH   1  14
ATOM     14  O   UNL     1      44.053   3.539  10.294  0.00  0.00    +0.000 OA
BRANCH  14  15
ATOM     15  C   UNL     1      44.874   3.150   9.271  0.00  0.00    +0.000 A 
ATOM     16  C   UNL     1      45.267   4.125   8.355  0.00  0.00    +0.000 A 
ATOM     17  N   UNL     1      46.108   3.903   7.308  0.00  0.00    +0.000 NA
ATOM     18  C   UNL     1      46.558   2.618   7.163  0.00  0.00    +0.000 A 
ATOM     19  C   UNL     1      46.179   1.581   7.999  0.00  0.00    +0.000 A 
ATOM     20  F   UNL     1      46.609   0.324   7.834  0.00  0.00    +0.000 F 
ATOM     21  C   UNL     1      45.323   1.849   9.058  0.00  0.00    +0.000 A 
BRANCH  18  22
ATOM     22  C   UNL     1      47.528   2.366   6.054  0.00  0.00    +0.000 C 
ATOM     23  N   UNL     1      48.843   2.591   6.357  0.00  0.00    +0.000 N 
ATOM     24  O   UNL     1      47.204   1.971   4.942  0.00  0.00    +0.000 OA
ATOM     25  H   UNL     1      49.104   2.890   7.294  0.00  0.00    +0.000 HD
ATOM     26  H   UNL     1      49.546   2.401   5.660  0.00  0.00    +0.000 HD
ENDBRANCH  18  22
ENDBRANCH  14  15
ENDBRANCH   1  14
TORSDOF 7
ENDMDL
MODEL 2
REMARK VINA RESULT:    -7.293      1.754      2.226
REMARK INTER + INTRA:         -10.921
REMARK INTER:                 -10.229
REMARK INTRA:                  -0.692
REMARK UNBOUND:                -0.857
REMARK  Name = 
REMARK  8 active torsions:
REMARK  status: ('A' for Active; 'I' for Inactive)
REMARK    1  A    between atoms: C_1  and  C_2
REMARK    2  A    between atoms: C_2  and  C_3
REMARK    3  A    between atoms: C_2  and  C_15
REMARK    4  A    between atoms: C_3  and  O_4
REMARK    5  A    between atoms: O_4  and  C_5
REMARK    6  A    between atoms: C_8  and  C_9
REMARK    7  A    between atoms: C_19  and  C_20
REMARK    8  A    between atoms: C_20  and  N_21
REMARK                            x       y       z     vdW  Elec       q    Type
REMARK                         _______ _______ _______ _____ _____    ______ ____
ROOT
ATOM      1  C   UNL     1      43.558   5.191  10.710  0.00  0.00    +0.000 C 
ENDROOT
BRANCH   1   3
ATOM      2  C   UNL     1      43.147   4.260  13.035  0.00  0.00    +0.000 C 
ATOM      3  C   UNL     1      43.649   5.461  12.222  0.00  0.00    +0.000 C 
BRANCH   3   4
ATOM      4  C   UNL     1      45.069   5.824  12.628  0.00  0.00    +0.000 A 
ATOM      5  C   UNL     1      45.880   4.883  13.275  0.00  0.00    +0.000 A 
ATOM      6  C   UNL     1      47.204   5.189  13.598  0.00  0.00    +0.000 A 
ATOM      7  C   UNL     1      47.742   6.433  13.265  0.00  0.00    +0.000 A 
ATOM      8  C   UNL     1      46.957   7.390  12.612  0.00  0.00    +0.000 A 
ATOM      9  C   UNL     1      45.617   7.083  12.328  0.00  0.00    +0.000 A 
BRANCH   8  10
ATOM     10  C   UNL     1      47.539   8.716  12.190  0.00  0.00    +0.000 C 
BRANCH  10  11
ATOM     11  N   UNL     1      46.852   9.823  12.850  0.00  0.00    +0.000 NA
ATOM     12  H   UNL     1      45.906   9.890  12.475  0.00  0.00    +0.000 HD
ATOM     13  H   UNL     1      47.318  10.697  12.619  0.00  0.00    +0.000 HD
ENDBRANCH  10  11
ENDBRANCH   8  10
ENDBRANCH   3   4
ENDBRANCH   1   3
BRANCH   1  14
ATOM     14  O   UNL     1      43.554   3.779  10.446  0.00  0.00    +0.000 OA
BRANCH  14  15
ATOM     15  C   UNL     1      44.465   3.369   9.511  0.00  0.00    +0.000 A 
ATOM     16  C   UNL     1      45.020   4.343   8.682  0.00  0.00    +0.000 A 
ATOM     17  N   UNL     1      45.964   4.100   7.733  0.00  0.00    +0.000 NA
ATOM     18  C   UNL     1      46.352   2.794   7.595  0.00  0.00    +0.000 A 
ATOM     19  C   UNL     1      45.817   1.759   8.343  0.00  0.00    +0.000 A 
ATOM     20  F   UNL     1      46.190   0.483   8.184  0.00  0.00    +0.000 F 
ATOM     21  C   UNL     1      44.859   2.050   9.305  0.00  0.00    +0.000 A 
BRANCH  18  22
ATOM     22  C   UNL     1      47.429   2.515   6.597  0.00  0.00    +0.000 C 
ATOM     23  N   UNL     1      47.339   3.210   5.421  0.00  0.00    +0.000 N 
ATOM     24  O   UNL     1      48.353   1.735   6.791  0.00  0.00    +0.000 OA
ATOM     25  H   UNL     1      46.585   3.878   5.283  0.00  0.00    +0.000 HD
ATOM     26  H   UNL     1      48.059   3.090   4.726  0.00  0.00    +0.000 HD
ENDBRANCH  18  22
ENDBRANCH  14  15
ENDBRANCH   1  14
TORSDOF 7
ENDMDL
MODEL 3
REMARK VINA RESULT:    -6.981      3.136      6.548
REMARK INTER + INTRA:         -10.491
REMARK INTER:                  -9.608
REMARK INTRA:                  -0.883
REMARK UNBOUND:                -0.857
REMARK  Name = 
REMARK  8 active torsions:
REMARK  status: ('A' for Active; 'I' for Inactive)
REMARK    1  A    between atoms: C_1  and  C_2
REMARK    2  A    between atoms: C_2  and  C_3
REMARK    3  A    between atoms: C_2  and  C_15
REMARK    4  A    between atoms: C_3  and  O_4
REMARK    5  A    between atoms: O_4  and  C_5
REMARK    6  A    between atoms: C_8  and  C_9
REMARK    7  A    between atoms: C_19  and  C_20
REMARK    8  A    between atoms: C_20  and  N_21
REMARK                            x       y       z     vdW  Elec       q    Type
REMARK                         _______ _______ _______ _____ _____    ______ ____
ROOT
ATOM      1  C   UNL     1      44.986   3.034  12.276  0.00  0.00    +0.000 C 
ENDROOT
BRANCH   1   3
ATOM      2  C   UNL     1      43.046   4.226  11.154  0.00  0.00    +0.000 C 
ATOM      3  C   UNL     1      44.064   3.083  11.045  0.00  0.00    +0.000 C 
BRANCH   3   4
ATOM      4  C   UNL     1      44.872   3.209   9.761  0.00  0.00    +0.000 A 
ATOM      5  C   UNL     1      45.144   4.471   9.219  0.00  0.00    +0.000 A 
ATOM      6  C   UNL     1      45.934   4.597   8.075  0.00  0.00    +0.000 A 
ATOM      7  C   UNL     1      46.477   3.466   7.465  0.00  0.00    +0.000 A 
ATOM      8  C   UNL     1      46.229   2.193   7.989  0.00  0.00    +0.000 A 
ATOM      9  C   UNL     1      45.400   2.077   9.117  0.00  0.00    +0.000 A 
BRANCH   8  10
ATOM     10  C   UNL     1      46.857   0.965   7.378  0.00  0.00    +0.000 C 
BRANCH  10  11
ATOM     11  N   UNL     1      47.923   1.330   6.448  0.00  0.00    +0.000 NA
ATOM     12  H   UNL     1      47.514   1.487   5.527  0.00  0.00    +0.000 HD
ATOM     13  H   UNL     1      48.569   0.550   6.350  0.00  0.00    +0.000 HD
ENDBRANCH  10  11
ENDBRANCH   8  10
ENDBRANCH   3   4
ENDBRANCH   1   3
BRANCH   1  14
ATOM     14  O   UNL     1      44.741   4.157  13.138  0.00  0.00    +0.000 OA
BRANCH  14  15
ATOM     15  C   UNL     1      45.770   5.056  13.211  0.00  0.00    +0.000 A 
ATOM     16  C   UNL     1      46.826   4.757  14.070  0.00  0.00    +0.000 A 
ATOM     17  N   UNL     1      47.935   5.530  14.224  0.00  0.00    +0.000 NA
ATOM     18  C   UNL     1      47.968   6.685  13.488  0.00  0.00    +0.000 A 
ATOM     19  C   UNL     1      46.940   7.081  12.649  0.00  0.00    +0.000 A 
ATOM     20  F   UNL     1      46.975   8.222  11.951  0.00  0.00    +0.000 F 
ATOM     21  C   UNL     1      45.828   6.261  12.516  0.00  0.00    +0.000 A 
BRANCH  18  22
ATOM     22  C   UNL     1      49.203   7.519  13.601  0.00  0.00    +0.000 C 
ATOM     23  N   UNL     1      50.178   7.257  12.676  0.00  0.00    +0.000 N 
ATOM     24  O   UNL     1      49.360   8.395  14.440  0.00  0.00    +0.000 OA
ATOM     25  H   UNL     1      50.025   6.548  11.963  0.00  0.00    +0.000 HD
ATOM     26  H   UNL     1      51.018   7.815  12.679  0.00  0.00    +0.000 HD
ENDBRANCH  18  22
ENDBRANCH  14  15
ENDBRANCH   1  14
TORSDOF 7
ENDMDL
MODEL 4
REMARK VINA RESULT:    -6.515      4.831      8.080
REMARK INTER + INTRA:          -9.847
REMARK INTER:                  -9.253
REMARK INTRA:                  -0.594
REMARK UNBOUND:                -0.857
REMARK  Name = 
REMARK  8 active torsions:
REMARK  status: ('A' for Active; 'I' for Inactive)
REMARK    1  A    between atoms: C_1  and  C_2
REMARK    2  A    between atoms: C_2  and  C_3
REMARK    3  A    between atoms: C_2  and  C_15
REMARK    4  A    between atoms: C_3  and  O_4
REMARK    5  A    between atoms: O_4  and  C_5
REMARK    6  A    between atoms: C_8  and  C_9
REMARK    7  A    between atoms: C_19  and  C_20
REMARK    8  A    between atoms: C_20  and  N_21
REMARK                            x       y       z     vdW  Elec       q    Type
REMARK                         _______ _______ _______ _____ _____    ______ ____
ROOT
ATOM      1  C   UNL     1      46.857   3.877  14.616  0.00  0.00    +0.000 C 
ENDROOT
BRANCH   1   3
ATOM      2  C   UNL     1      47.856   6.110  13.943  0.00  0.00    +0.000 C 
ATOM      3  C   UNL     1      46.584   5.253  13.984  0.00  0.00    +0.000 C 
BRANCH   3   4
ATOM      4  C   UNL     1      45.993   5.108  12.590  0.00  0.00    +0.000 A 
ATOM      5  C   UNL     1      46.269   6.062  11.603  0.00  0.00    +0.000 A 
ATOM      6  C   UNL     1      45.779   5.904  10.305  0.00  0.00    +0.000 A 
ATOM      7  C   UNL     1      45.019   4.783   9.970  0.00  0.00    +0.000 A 
ATOM      8  C   UNL     1      44.733   3.809  10.934  0.00  0.00    +0.000 A 
ATOM      9  C   UNL     1      45.199   4.000  12.245  0.00  0.00    +0.000 A 
BRANCH   8  10
ATOM     10  C   UNL     1      43.964   2.562  10.575  0.00  0.00    +0.000 C 
BRANCH  10  11
ATOM     11  N   UNL     1      43.036   2.193  11.641  0.00  0.00    +0.000 NA
ATOM     12  H   UNL     1      43.200   1.219  11.894  0.00  0.00    +0.000 HD
ATOM     13  H   UNL     1      42.082   2.246  11.292  0.00  0.00    +0.000 HD
ENDBRANCH  10  11
ENDBRANCH   8  10
ENDBRANCH   3   4
ENDBRANCH   1   3
BRANCH   1  14
ATOM     14  O   UNL     1      47.033   3.996  16.037  0.00  0.00    +0.000 OA
BRANCH  14  15
ATOM     15  C   UNL     1      48.203   3.470  16.514  0.00  0.00    +0.000 A 
ATOM     16  C   UNL     1      48.592   2.222  16.031  0.00  0.00    +0.000 A 
ATOM     17  N   UNL     1      49.743   1.586  16.381  0.00  0.00    +0.000 NA
ATOM     18  C   UNL     1      50.535   2.237  17.288  0.00  0.00    +0.000 A 
ATOM     19  C   UNL     1      50.200   3.456  17.854  0.00  0.00    +0.000 A 
ATOM     20  F   UNL     1      50.974   4.072  18.756  0.00  0.00    +0.000 F 
ATOM     21  C   UNL     1      49.019   4.074  17.467  0.00  0.00    +0.000 A 
BRANCH  18  22
ATOM     22  C   UNL     1      51.832   1.582  17.641  0.00  0.00    +0.000 C 
ATOM     23  N   UNL     1      51.742   0.281  18.059  0.00  0.00    +0.000 N 
ATOM     24  O   UNL     1      52.920   2.136  17.559  0.00  0.00    +0.000 OA
ATOM     25  H   UNL     1      50.835  -0.179  18.094  0.00  0.00    +0.000 HD
ATOM     26  H   UNL     1      52.587  -0.223  18.274  0.00  0.00    +0.000 HD
ENDBRANCH  18  22
ENDBRANCH  14  15
ENDBRANCH   1  14
TORSDOF 7
ENDMDL
MODEL 5
REMARK VINA RESULT:    -6.498      3.301      7.249
REMARK INTER + INTRA:          -9.824
REMARK INTER:                  -9.228
REMARK INTRA:                  -0.597
REMARK UNBOUND:                -0.857
REMARK  Name = 
REMARK  8 active torsions:
REMARK  status: ('A' for Active; 'I' for Inactive)
REMARK    1  A    between atoms: C_1  and  C_2
REMARK    2  A    between atoms: C_2  and  C_3
REMARK    3  A    between atoms: C_2  and  C_15
REMARK    4  A    between atoms: C_3  and  O_4
REMARK    5  A    between atoms: O_4  and  C_5
REMARK    6  A    between atoms: C_8  and  C_9
REMARK    7  A    between atoms: C_19  and  C_20
REMARK    8  A    between atoms: C_20  and  N_21
REMARK                            x       y       z     vdW  Elec       q    Type
REMARK                         _______ _______ _______ _____ _____    ______ ____
ROOT
ATOM      1  C   UNL     1      45.080   3.578  12.033  0.00  0.00    +0.000 C 
ENDROOT
BRANCH   1   3
ATOM      2  C   UNL     1      43.325   4.831  10.695  0.00  0.00    +0.000 C 
ATOM      3  C   UNL     1      44.178   3.558  10.787  0.00  0.00    +0.000 C 
BRANCH   3   4
ATOM      4  C   UNL     1      44.998   3.373   9.519  0.00  0.00    +0.000 A 
ATOM      5  C   UNL     1      45.390   4.485   8.763  0.00  0.00    +0.000 A 
ATOM      6  C   UNL     1      46.192   4.327   7.632  0.00  0.00    +0.000 A 
ATOM      7  C   UNL     1      46.629   3.059   7.249  0.00  0.00    +0.000 A 
ATOM      8  C   UNL     1      46.260   1.930   7.989  0.00  0.00    +0.000 A 
ATOM      9  C   UNL     1      45.420   2.099   9.102  0.00  0.00    +0.000 A 
BRANCH   8  10
ATOM     10  C   UNL     1      46.772   0.559   7.624  0.00  0.00    +0.000 C 
BRANCH  10  11
ATOM     11  N   UNL     1      47.173   0.507   6.220  0.00  0.00    +0.000 NA
ATOM     12  H   UNL     1      46.466   0.983   5.660  0.00  0.00    +0.000 HD
ATOM     13  H   UNL     1      47.187  -0.461   5.908  0.00  0.00    +0.000 HD
ENDBRANCH  10  11
ENDBRANCH   8  10
ENDBRANCH   3   4
ENDBRANCH   1   3
BRANCH   1  14
ATOM     14  O   UNL     1      45.868   4.779  12.069  0.00  0.00    +0.000 OA
BRANCH  14  15
ATOM     15  C   UNL     1      46.585   4.958  13.221  0.00  0.00    +0.000 A 
ATOM     16  C   UNL     1      47.552   5.962  13.229  0.00  0.00    +0.000 A 
ATOM     17  N   UNL     1      48.317   6.286  14.306  0.00  0.00    +0.000 NA
ATOM     18  C   UNL     1      48.111   5.538  15.434  0.00  0.00    +0.000 A 
ATOM     19  C   UNL     1      47.205   4.492  15.498  0.00  0.00    +0.000 A 
ATOM     20  F   UNL     1      47.028   3.753  16.601  0.00  0.00    +0.000 F 
ATOM     21  C   UNL     1      46.440   4.195  14.378  0.00  0.00    +0.000 A 
BRANCH  18  22
ATOM     22  C   UNL     1      48.901   5.916  16.646  0.00  0.00    +0.000 C 
ATOM     23  N   UNL     1      48.374   6.928  17.401  0.00  0.00    +0.000 N 
ATOM     24  O   UNL     1      49.944   5.368  16.978  0.00  0.00    +0.000 OA
ATOM     25  H   UNL     1      47.490   7.355  17.133  0.00  0.00    +0.000 HD
ATOM     26  H   UNL     1      48.843   7.200  18.251  0.00  0.00    +0.000 HD
ENDBRANCH  18  22
ENDBRANCH  14  15
ENDBRANCH   1  14
TORSDOF 7
ENDMDL
MODEL 6
REMARK VINA RESULT:    -6.285      4.425      6.630
REMARK INTER + INTRA:          -9.530
REMARK INTER:                  -8.582
REMARK INTRA:                  -0.948
REMARK UNBOUND:                -0.857
REMARK  Name = 
REMARK  8 active torsions:
REMARK  status: ('A' for Active; 'I' for Inactive)
REMARK    1  A    between atoms: C_1  and  C_2
REMARK    2  A    between atoms: C_2  and  C_3
REMARK    3  A    between atoms: C_2  and  C_15
REMARK    4  A    between atoms: C_3  and  O_4
REMARK    5  A    between atoms: O_4  and  C_5
REMARK    6  A    between atoms: C_8  and  C_9
REMARK    7  A    between atoms: C_19  and  C_20
REMARK    8  A    between atoms: C_20  and  N_21
REMARK                            x       y       z     vdW  Elec       q    Type
REMARK                         _______ _______ _______ _____ _____    ______ ____
ROOT
ATOM      1  C   UNL     1      48.726   7.852  13.558  0.00  0.00    +0.000 C 
ENDROOT
BRANCH   1   3
ATOM      2  C   UNL     1      50.088   7.731  11.420  0.00  0.00    +0.000 C 
ATOM      3  C   UNL     1      49.526   8.649  12.514  0.00  0.00    +0.000 C 
BRANCH   3   4
ATOM      4  C   UNL     1      48.676   9.752  11.899  0.00  0.00    +0.000 A 
ATOM      5  C   UNL     1      49.257  10.699  11.047  0.00  0.00    +0.000 A 
ATOM      6  C   UNL     1      48.473  11.678  10.433  0.00  0.00    +0.000 A 
ATOM      7  C   UNL     1      47.096  11.714  10.647  0.00  0.00    +0.000 A 
ATOM      8  C   UNL     1      46.486  10.776  11.487  0.00  0.00    +0.000 A 
ATOM      9  C   UNL     1      47.291   9.822  12.130  0.00  0.00    +0.000 A 
BRANCH   8  10
ATOM     10  C   UNL     1      44.990  10.764  11.683  0.00  0.00    +0.000 C 
BRANCH  10  11
ATOM     11  N   UNL     1      44.600   9.767  12.677  0.00  0.00    +0.000 NA
ATOM     12  H   UNL     1      45.310   9.034  12.701  0.00  0.00    +0.000 HD
ATOM     13  H   UNL     1      43.733   9.321  12.387  0.00  0.00    +0.000 HD
ENDBRANCH  10  11
ENDBRANCH   8  10
ENDBRANCH   3   4
ENDBRANCH   1   3
BRANCH   1  14
ATOM     14  O   UNL     1      48.753   6.448  13.254  0.00  0.00    +0.000 OA
BRANCH  14  15
ATOM     15  C   UNL     1      47.522   5.879  13.069  0.00  0.00    +0.000 A 
ATOM     16  C   UNL     1      47.109   4.924  13.997  0.00  0.00    +0.000 A 
ATOM     17  N   UNL     1      45.901   4.298  13.971  0.00  0.00    +0.000 NA
ATOM     18  C   UNL     1      45.072   4.637  12.934  0.00  0.00    +0.000 A 
ATOM     19  C   UNL     1      45.424   5.539  11.944  0.00  0.00    +0.000 A 
ATOM     20  F   UNL     1      44.613   5.847  10.924  0.00  0.00    +0.000 F 
ATOM     21  C   UNL     1      46.664   6.160  12.010  0.00  0.00    +0.000 A 
BRANCH  18  22
ATOM     22  C   UNL     1      43.719   4.003  12.920  0.00  0.00    +0.000 C 
ATOM     23  N   UNL     1      43.692   2.676  12.583  0.00  0.00    +0.000 N 
ATOM     24  O   UNL     1      42.685   4.596  13.200  0.00  0.00    +0.000 OA
ATOM     25  H   UNL     1      44.560   2.186  12.383  0.00  0.00    +0.000 HD
ATOM     26  H   UNL     1      42.811   2.187  12.594  0.00  0.00    +0.000 HD
ENDBRANCH  18  22
ENDBRANCH  14  15
ENDBRANCH   1  14
TORSDOF 7
ENDMDL
MODEL 7
REMARK VINA RESULT:    -6.213      3.538      8.289
REMARK INTER + INTRA:          -9.430
REMARK INTER:                  -8.913
REMARK INTRA:                  -0.517
REMARK UNBOUND:                -0.857
REMARK  Name = 
REMARK  8 active torsions:
REMARK  status: ('A' for Active; 'I' for Inactive)
REMARK    1  A    between atoms: C_1  and  C_2
REMARK    2  A    between atoms: C_2  and  C_3
REMARK    3  A    between atoms: C_2  and  C_15
REMARK    4  A    between atoms: C_3  and  O_4
REMARK    5  A    between atoms: O_4  and  C_5
REMARK    6  A    between atoms: C_8  and  C_9
REMARK    7  A    between atoms: C_19  and  C_20
REMARK    8  A    between atoms: C_20  and  N_21
REMARK                            x       y       z     vdW  Elec       q    Type
REMARK                         _______ _______ _______ _____ _____    ______ ____
ROOT
ATOM      1  C   UNL     1      46.162   3.068   6.123  0.00  0.00    +0.000 C 
ENDROOT
BRANCH   1   3
ATOM      2  C   UNL     1      47.790   1.279   6.891  0.00  0.00    +0.000 C 
ATOM      3  C   UNL     1      47.267   2.086   5.695  0.00  0.00    +0.000 C 
BRANCH   3   4
ATOM      4  C   UNL     1      46.776   1.154   4.597  0.00  0.00    +0.000 A 
ATOM      5  C   UNL     1      46.091   1.669   3.489  0.00  0.00    +0.000 A 
ATOM      6  C   UNL     1      45.689   0.827   2.450  0.00  0.00    +0.000 A 
ATOM      7  C   UNL     1      45.981  -0.536   2.493  0.00  0.00    +0.000 A 
ATOM      8  C   UNL     1      46.670  -1.077   3.584  0.00  0.00    +0.000 A 
ATOM      9  C   UNL     1      47.033  -0.227   4.641  0.00  0.00    +0.000 A 
BRANCH   8  10
ATOM     10  C   UNL     1      47.047  -2.537   3.620  0.00  0.00    +0.000 C 
BRANCH  10  11
ATOM     11  N   UNL     1      46.220  -3.268   4.577  0.00  0.00    +0.000 NA
ATOM     12  H   UNL     1      46.607  -4.204   4.695  0.00  0.00    +0.000 HD
ATOM     13  H   UNL     1      45.285  -3.387   4.195  0.00  0.00    +0.000 HD
ENDBRANCH  10  11
ENDBRANCH   8  10
ENDBRANCH   3   4
ENDBRANCH   1   3
BRANCH   1  14
ATOM     14  O   UNL     1      46.646   3.968   7.132  0.00  0.00    +0.000 OA
BRANCH  14  15
ATOM     15  C   UNL     1      45.864   4.046   8.252  0.00  0.00    +0.000 A 
ATOM     16  C   UNL     1      44.965   3.006   8.484  0.00  0.00    +0.000 A 
ATOM     17  N   UNL     1      44.149   2.921   9.569  0.00  0.00    +0.000 NA
ATOM     18  C   UNL     1      44.226   3.958  10.459  0.00  0.00    +0.000 A 
ATOM     19  C   UNL     1      45.055   5.053  10.281  0.00  0.00    +0.000 A 
ATOM     20  F   UNL     1      45.106   6.071  11.149  0.00  0.00    +0.000 F 
ATOM     21  C   UNL     1      45.876   5.100   9.163  0.00  0.00    +0.000 A 
BRANCH  18  22
ATOM     22  C   UNL     1      43.379   3.855  11.687  0.00  0.00    +0.000 C 
ATOM     23  N   UNL     1      42.386   4.791  11.798  0.00  0.00    +0.000 N 
ATOM     24  O   UNL     1      43.526   2.997  12.546  0.00  0.00    +0.000 OA
ATOM     25  H   UNL     1      42.253   5.481  11.063  0.00  0.00    +0.000 HD
ATOM     26  H   UNL     1      41.759   4.747  12.587  0.00  0.00    +0.000 HD
ENDBRANCH  18  22
ENDBRANCH  14  15
ENDBRANCH   1  14
TORSDOF 7
ENDMDL
MODEL 8
REMARK VINA RESULT:    -6.103      4.606      6.542
REMARK INTER + INTRA:          -9.279
REMARK INTER:                  -8.468
REMARK INTRA:                  -0.810
REMARK UNBOUND:                -0.857
REMARK  Name = 
REMARK  8 active torsions:
REMARK  status: ('A' for Active; 'I' for Inactive)
REMARK    1  A    between atoms: C_1  and  C_2
REMARK    2  A    between atoms: C_2  and  C_3
REMARK    3  A    between atoms: C_2  and  C_15
REMARK    4  A    between atoms: C_3  and  O_4
REMARK    5  A    between atoms: O_4  and  C_5
REMARK    6  A    between atoms: C_8  and  C_9
REMARK    7  A    between atoms: C_19  and  C_20
REMARK    8  A    between atoms: C_20  and  N_21
REMARK                            x       y       z     vdW  Elec       q    Type
REMARK                         _______ _______ _______ _____ _____    ______ ____
ROOT
ATOM      1  C   UNL     1      48.905   7.431  14.087  0.00  0.00    +0.000 C 
ENDROOT
BRANCH   1   3
ATOM      2  C   UNL     1      50.626   8.595  15.544  0.00  0.00    +0.000 C 
ATOM      3  C   UNL     1      49.893   7.278  15.257  0.00  0.00    +0.000 C 
BRANCH   3   4
ATOM      4  C   UNL     1      49.187   6.777  16.508  0.00  0.00    +0.000 A 
ATOM      5  C   UNL     1      48.681   7.686  17.445  0.00  0.00    +0.000 A 
ATOM      6  C   UNL     1      47.981   7.235  18.566  0.00  0.00    +0.000 A 
ATOM      7  C   UNL     1      47.761   5.871  18.758  0.00  0.00    +0.000 A 
ATOM      8  C   UNL     1      48.248   4.940  17.834  0.00  0.00    +0.000 A 
ATOM      9  C   UNL     1      48.985   5.404  16.732  0.00  0.00    +0.000 A 
BRANCH   8  10
ATOM     10  C   UNL     1      47.968   3.467  17.994  0.00  0.00    +0.000 C 
BRANCH  10  11
ATOM     11  N   UNL     1      46.631   3.132  17.508  0.00  0.00    +0.000 NA
ATOM     12  H   UNL     1      45.961   3.781  17.922  0.00  0.00    +0.000 HD
ATOM     13  H   UNL     1      46.375   2.203  17.835  0.00  0.00    +0.000 HD
ENDBRANCH  10  11
ENDBRANCH   8  10
ENDBRANCH   3   4
ENDBRANCH   1   3
BRANCH   1  14
ATOM     14  O   UNL     1      48.815   6.210  13.336  0.00  0.00    +0.000 OA
BRANCH  14  15
ATOM     15  C   UNL     1      47.542   5.743  13.152  0.00  0.00    +0.000 A 
ATOM     16  C   UNL     1      47.204   4.536  13.762  0.00  0.00    +0.000 A 
ATOM     17  N   UNL     1      45.972   3.962  13.704  0.00  0.00    +0.000 NA
ATOM     18  C   UNL     1      45.032   4.634  12.969  0.00  0.00    +0.000 A 
ATOM     19  C   UNL     1      45.297   5.814  12.293  0.00  0.00    +0.000 A 
ATOM     20  F   UNL     1      44.375   6.450  11.560  0.00  0.00    +0.000 F 
ATOM     21  C   UNL     1      46.566   6.369  12.381  0.00  0.00    +0.000 A 
BRANCH  18  22
ATOM     22  C   UNL     1      43.656   4.051  12.941  0.00  0.00    +0.000 C 
ATOM     23  N   UNL     1      43.584   2.727  12.599  0.00  0.00    +0.000 N 
ATOM     24  O   UNL     1      42.643   4.680  13.214  0.00  0.00    +0.000 OA
ATOM     25  H   UNL     1      44.435   2.205  12.405  0.00  0.00    +0.000 HD
ATOM     26  H   UNL     1      42.685   2.270  12.601  0.00  0.00    +0.000 HD
ENDBRANCH  18  22
ENDBRANCH  14  15
ENDBRANCH   1  14
TORSDOF 7
ENDMDL
MODEL 9
REMARK VINA RESULT:    -6.054      3.421      5.562
REMARK INTER + INTRA:          -9.212
REMARK INTER:                  -8.549
REMARK INTRA:                  -0.662
REMARK UNBOUND:                -0.857
REMARK  Name = 
REMARK  8 active torsions:
REMARK  status: ('A' for Active; 'I' for Inactive)
REMARK    1  A    between atoms: C_1  and  C_2
REMARK    2  A    between atoms: C_2  and  C_3
REMARK    3  A    between atoms: C_2  and  C_15
REMARK    4  A    between atoms: C_3  and  O_4
REMARK    5  A    between atoms: O_4  and  C_5
REMARK    6  A    between atoms: C_8  and  C_9
REMARK    7  A    between atoms: C_19  and  C_20
REMARK    8  A    between atoms: C_20  and  N_21
REMARK                            x       y       z     vdW  Elec       q    Type
REMARK                         _______ _______ _______ _____ _____    ______ ____
ROOT
ATOM      1  C   UNL     1      48.494   6.912  13.688  0.00  0.00    +0.000 C 
ENDROOT
BRANCH   1   3
ATOM      2  C   UNL     1      48.483   9.010  15.115  0.00  0.00    +0.000 C 
ATOM      3  C   UNL     1      49.026   7.583  14.966  0.00  0.00    +0.000 C 
BRANCH   3   4
ATOM      4  C   UNL     1      48.694   6.754  16.198  0.00  0.00    +0.000 A 
ATOM      5  C   UNL     1      48.539   7.374  17.444  0.00  0.00    +0.000 A 
ATOM      6  C   UNL     1      48.176   6.629  18.568  0.00  0.00    +0.000 A 
ATOM      7  C   UNL     1      47.946   5.257  18.460  0.00  0.00    +0.000 A 
ATOM      8  C   UNL     1      48.085   4.612  17.226  0.00  0.00    +0.000 A 
ATOM      9  C   UNL     1      48.489   5.366  16.112  0.00  0.00    +0.000 A 
BRANCH   8  10
ATOM     10  C   UNL     1      47.782   3.142  17.079  0.00  0.00    +0.000 C 
BRANCH  10  11
ATOM     11  N   UNL     1      46.556   2.786  17.789  0.00  0.00    +0.000 NA
ATOM     12  H   UNL     1      46.691   2.967  18.784  0.00  0.00    +0.000 HD
ATOM     13  H   UNL     1      46.388   1.788  17.695  0.00  0.00    +0.000 HD
ENDBRANCH  10  11
ENDBRANCH   8  10
ENDBRANCH   3   4
ENDBRANCH   1   3
BRANCH   1  14
ATOM     14  O   UNL     1      47.085   7.152  13.537  0.00  0.00    +0.000 OA
BRANCH  14  15
ATOM     15  C   UNL     1      46.411   6.186  12.841  0.00  0.00    +0.000 A 
ATOM     16  C   UNL     1      45.922   5.097  13.560  0.00  0.00    +0.000 A 
ATOM     17  N   UNL     1      45.201   4.078  13.019  0.00  0.00    +0.000 NA
ATOM     18  C   UNL     1      44.983   4.150  11.669  0.00  0.00    +0.000 A 
ATOM     19  C   UNL     1      45.474   5.171  10.872  0.00  0.00    +0.000 A 
ATOM     20  F   UNL     1      45.272   5.219   9.550  0.00  0.00    +0.000 F 
ATOM     21  C   UNL     1      46.201   6.195  11.464  0.00  0.00    +0.000 A 
BRANCH  18  22
ATOM     22  C   UNL     1      44.145   3.070  11.064  0.00  0.00    +0.000 C 
ATOM     23  N   UNL     1      44.758   2.316  10.100  0.00  0.00    +0.000 N 
ATOM     24  O   UNL     1      42.990   2.837  11.396  0.00  0.00    +0.000 OA
ATOM     25  H   UNL     1      45.728   2.498   9.854  0.00  0.00    +0.000 HD
ATOM     26  H   UNL     1      44.254   1.549   9.684  0.00  0.00    +0.000 HD
ENDBRANCH  18  22
ENDBRANCH  14  15
ENDBRANCH   1  14
TORSDOF 7
ENDMDL
