MODEL 1
REMARK VINA RESULT:    -7.980      0.000      0.000
REMARK INTER + INTRA:         -10.771
REMARK INTER:                 -10.080
REMARK INTRA:                  -0.691
REMARK UNBOUND:                -0.691
REMARK  Name = 
REMARK  5 active torsions:
REMARK  status: ('A' for Active; 'I' for Inactive)
REMARK    1  A    between atoms: C_2  and  C_3
REMARK    2  A    between atoms: C_6  and  C_7
REMARK    3  A    between atoms: C_7  and  O_8
REMARK    4  A    between atoms: N_11  and  C_12
REMARK    5  A    between atoms: C_16  and  C_17
REMARK                            x       y       z     vdW  Elec       q    Type
REMARK                         _______ _______ _______ _____ _____    ______ ____
ROOT
ATOM      1  C   UNL     1      44.572   4.742  10.457  0.00  0.00    +0.000 C 
ATOM      2  C   UNL     1      45.263   6.098  10.721  0.00  0.00    +0.000 C 
ATOM      3  C   UNL     1      46.531   5.932  11.551  0.00  0.00    +0.000 C 
ATOM      4  N   UNL     1      46.172   5.151  12.737  0.00  0.00    +0.000 N 
ATOM      5  O   UNL     1      45.754   3.855  12.395  0.00  0.00    +0.000 OA
ATOM      6  C   UNL     1      44.456   3.989  11.803  0.00  0.00    +0.000 C 
ENDROOT
BRANCH   1  10
ATOM      7  C   UNL     1      46.592   2.433   7.346  0.00  0.00    +0.000 A 
ATOM      8  C   UNL     1      45.909   1.788   8.380  0.00  0.00    +0.000 A 
ATOM      9  C   UNL     1      45.258   2.535   9.368  0.00  0.00    +0.000 A 
ATOM     10  C   UNL     1      45.274   3.942   9.348  0.00  0.00    +0.000 A 
ATOM     11  C   UNL     1      45.965   4.565   8.291  0.00  0.00    +0.000 A 
ATOM     12  C   UNL     1      46.615   3.822   7.301  0.00  0.00    +0.000 A 
BRANCH   7  14
ATOM     13  N   UNL     1      47.809   1.053   5.525  0.00  0.00    +0.000 NA
ATOM     14  C   UNL     1      47.264   1.669   6.335  0.00  0.00    +0.000 C 
ENDBRANCH   7  14
ENDBRANCH   1  10
BRANCH   4  15
ATOM     15  C   UNL     1      46.937   5.313  13.898  0.00  0.00    +0.000 A 
ATOM     16  C   UNL     1      46.985   4.379  14.929  0.00  0.00    +0.000 A 
ATOM     17  N   UNL     1      47.735   4.496  16.047  0.00  0.00    +0.000 NA
ATOM     18  C   UNL     1      48.500   5.606  16.142  0.00  0.00    +0.000 A 
ATOM     19  C   UNL     1      48.566   6.616  15.182  0.00  0.00    +0.000 A 
ATOM     20  C   UNL     1      47.768   6.428  14.047  0.00  0.00    +0.000 A 
BRANCH  19  21
ATOM     21  C   UNL     1      49.390   7.824  15.344  0.00  0.00    +0.000 A 
ATOM     22  C   UNL     1      50.777   7.799  15.168  0.00  0.00    +0.000 A 
ATOM     23  N   UNL     1      51.600   8.863  15.327  0.00  0.00    +0.000 NA
ATOM     24  C   UNL     1      51.017  10.027  15.695  0.00  0.00    +0.000 A 
ATOM     25  C   UNL     1      49.656  10.170  15.904  0.00  0.00    +0.000 A 
ATOM     26 CL   UNL     1      48.988  11.677  16.379  0.00  0.00    +0.000 Cl
ATOM     27  C   UNL     1      48.838   9.060  15.722  0.00  0.00    +0.000 A 
ENDBRANCH  19  21
ENDBRANCH   4  15
BRANCH   1  28
ATOM     28  O   UNL     1      43.230   4.995  10.007  0.00  0.00    +0.000 OA
ATOM     29  H   UNL     1      43.243   5.783   9.442  0.00  0.00    +0.000 HD
ENDBRANCH   1  28
TORSDOF 5
ENDMDL
MODEL 2
REMARK VINA RESULT:    -7.530      2.067      3.173
REMARK INTER + INTRA:         -10.202
REMARK INTER:                  -9.636
REMARK INTRA:                  -0.566
REMARK UNBOUND:                -0.691
REMARK  Name = 
REMARK  5 active torsions:
REMARK  status: ('A' for Active; 'I' for Inactive)
REMARK    1  A    between atoms: C_2  and  C_3
REMARK    2  A    between atoms: C_6  and  C_7
REMARK    3  A    between atoms: C_7  and  O_8
REMARK    4  A    between atoms: N_11  and  C_12
REMARK    5  A    between atoms: C_16  and  C_17
REMARK                            x       y       z     vdW  Elec       q    Type
REMARK                         _______ _______ _______ _____ _____    ______ ____
ROOT
ATOM      1  C   UNL     1      44.483   4.239  10.950  0.00  0.00    +0.000 C 
ATOM      2  C   UNL     1      44.644   5.773  11.031  0.00  0.00    +0.000 C 
ATOM      3  C   UNL     1      46.049   6.168  11.473  0.00  0.00    +0.000 C 
ATOM      4  N   UNL     1      46.342   5.425  12.700  0.00  0.00    +0.000 N 
ATOM      5  O   UNL     1      46.379   4.040  12.468  0.00  0.00    +0.000 OA
ATOM      6  C   UNL     1      45.023   3.625  12.263  0.00  0.00    +0.000 C 
ENDROOT
BRANCH   1  10
ATOM      7  C   UNL     1      46.324   2.550   7.365  0.00  0.00    +0.000 A 
ATOM      8  C   UNL     1      45.818   1.717   8.365  0.00  0.00    +0.000 A 
ATOM      9  C   UNL     1      45.223   2.265   9.506  0.00  0.00    +0.000 A 
ATOM     10  C   UNL     1      45.119   3.658   9.677  0.00  0.00    +0.000 A 
ATOM     11  C   UNL     1      45.631   4.475   8.650  0.00  0.00    +0.000 A 
ATOM     12  C   UNL     1      46.226   3.930   7.508  0.00  0.00    +0.000 A 
BRANCH   7  14
ATOM     13  N   UNL     1      47.430   1.538   5.255  0.00  0.00    +0.000 NA
ATOM     14  C   UNL     1      46.939   1.990   6.197  0.00  0.00    +0.000 C 
ENDBRANCH   7  14
ENDBRANCH   1  10
BRANCH   4  15
ATOM     15  C   UNL     1      47.263   5.966  13.604  0.00  0.00    +0.000 A 
ATOM     16  C   UNL     1      48.050   7.081  13.333  0.00  0.00    +0.000 A 
ATOM     17  N   UNL     1      48.926   7.642  14.197  0.00  0.00    +0.000 NA
ATOM     18  C   UNL     1      49.014   7.066  15.417  0.00  0.00    +0.000 A 
ATOM     19  C   UNL     1      48.277   5.958  15.834  0.00  0.00    +0.000 A 
ATOM     20  C   UNL     1      47.385   5.433  14.892  0.00  0.00    +0.000 A 
BRANCH  19  21
ATOM     21  C   UNL     1      48.432   5.347  17.163  0.00  0.00    +0.000 A 
ATOM     22  C   UNL     1      48.997   4.079  17.329  0.00  0.00    +0.000 A 
ATOM     23  N   UNL     1      49.146   3.444  18.517  0.00  0.00    +0.000 NA
ATOM     24  C   UNL     1      48.698   4.099  19.612  0.00  0.00    +0.000 A 
ATOM     25  C   UNL     1      48.116   5.354  19.569  0.00  0.00    +0.000 A 
ATOM     26 CL   UNL     1      47.561   6.121  21.000  0.00  0.00    +0.000 Cl
ATOM     27  C   UNL     1      47.987   5.983  18.335  0.00  0.00    +0.000 A 
ENDBRANCH  19  21
ENDBRANCH   4  15
BRANCH   1  28
ATOM     28  O   UNL     1      43.079   3.931  10.895  0.00  0.00    +0.000 OA
ATOM     29  H   UNL     1      42.685   4.164  11.751  0.00  0.00    +0.000 HD
ENDBRANCH   1  28
TORSDOF 5
ENDMDL
MODEL 3
REMARK VINA RESULT:    -6.909      4.422      8.844
REMARK INTER + INTRA:          -9.418
REMARK INTER:                  -8.901
REMARK INTRA:                  -0.517
REMARK UNBOUND:                -0.691
REMARK  Name = 
REMARK  5 active torsions:
REMARK  status: ('A' for Active; 'I' for Inactive)
REMARK    1  A    between atoms: C_2  and  C_3
REMARK    2  A    between atoms: C_6  and  C_7
REMARK    3  A    between atoms: C_7  and  O_8
REMARK    4  A    between atoms: N_11  and  C_12
REMARK    5  A    between atoms: C_16  and  C_17
REMARK                            x       y       z     vdW  Elec       q    Type
REMARK                         _______ _______ _______ _____ _____    ______ ____
ROOT
ATOM      1  C   UNL     1      49.729   5.185  18.151  0.00  0.00    +0.000 C 
ATOM      2  C   UNL     1      48.276   4.851  17.748  0.00  0.00    +0.000 C 
ATOM      3  C   UNL     1      48.106   4.813  16.233  0.00  0.00    +0.000 C 
ATOM      4  N   UNL     1      48.647   6.067  15.706  0.00  0.00    +0.000 N 
ATOM      5  O   UNL     1      50.027   6.176  15.944  0.00  0.00    +0.000 OA
ATOM      6  C   UNL     1      50.180   6.427  17.346  0.00  0.00    +0.000 C 
ENDROOT
BRANCH   1  10
ATOM      7  C   UNL     1      52.423   1.772  17.722  0.00  0.00    +0.000 A 
ATOM      8  C   UNL     1      52.882   2.977  18.257  0.00  0.00    +0.000 A 
ATOM      9  C   UNL     1      52.012   4.063  18.398  0.00  0.00    +0.000 A 
ATOM     10  C   UNL     1      50.662   3.972  18.008  0.00  0.00    +0.000 A 
ATOM     11  C   UNL     1      50.224   2.743  17.479  0.00  0.00    +0.000 A 
ATOM     12  C   UNL     1      51.092   1.655  17.338  0.00  0.00    +0.000 A 
BRANCH   7  14
ATOM     13  N   UNL     1      54.033  -0.237  17.455  0.00  0.00    +0.000 NA
ATOM     14  C   UNL     1      53.315   0.659  17.572  0.00  0.00    +0.000 C 
ENDBRANCH   7  14
ENDBRANCH   1  10
BRANCH   4  15
ATOM     15  C   UNL     1      48.147   6.551  14.492  0.00  0.00    +0.000 A 
ATOM     16  C   UNL     1      48.680   7.645  13.816  0.00  0.00    +0.000 A 
ATOM     17  N   UNL     1      48.236   8.116  12.630  0.00  0.00    +0.000 NA
ATOM     18  C   UNL     1      47.204   7.447  12.069  0.00  0.00    +0.000 A 
ATOM     19  C   UNL     1      46.582   6.327  12.620  0.00  0.00    +0.000 A 
ATOM     20  C   UNL     1      47.097   5.889  13.847  0.00  0.00    +0.000 A 
BRANCH  19  21
ATOM     21  C   UNL     1      45.440   5.651  11.987  0.00  0.00    +0.000 A 
ATOM     22  C   UNL     1      44.272   5.357  12.697  0.00  0.00    +0.000 A 
ATOM     23  N   UNL     1      43.193   4.715  12.187  0.00  0.00    +0.000 NA
ATOM     24  C   UNL     1      43.277   4.328  10.894  0.00  0.00    +0.000 A 
ATOM     25  C   UNL     1      44.384   4.558  10.095  0.00  0.00    +0.000 A 
ATOM     26 CL   UNL     1      44.423   4.028   8.464  0.00  0.00    +0.000 Cl
ATOM     27  C   UNL     1      45.470   5.229  10.646  0.00  0.00    +0.000 A 
ENDBRANCH  19  21
ENDBRANCH   4  15
BRANCH   1  28
ATOM     28  O   UNL     1      49.741   5.564  19.538  0.00  0.00    +0.000 OA
ATOM     29  H   UNL     1      49.370   6.458  19.611  0.00  0.00    +0.000 HD
ENDBRANCH   1  28
TORSDOF 5
ENDMDL
MODEL 4
REMARK VINA RESULT:    -6.842      2.298      3.132
REMARK INTER + INTRA:          -9.333
REMARK INTER:                  -8.916
REMARK INTRA:                  -0.417
REMARK UNBOUND:                -0.691
REMARK  Name = 
REMARK  5 active torsions:
REMARK  status: ('A' for Active; 'I' for Inactive)
REMARK    1  A    between atoms: C_2  and  C_3
REMARK    2  A    between atoms: C_6  and  C_7
REMARK    3  A    between atoms: C_7  and  O_8
REMARK    4  A    between atoms: N_11  and  C_12
REMARK    5  A    between atoms: C_16  and  C_17
REMARK                            x       y       z     vdW  Elec       q    Type
REMARK                         _______ _______ _______ _____ _____    ______ ____
ROOT
ATOM      1  C   UNL     1      44.461   4.767  11.376  0.00  0.00    +0.000 C 
ATOM      2  C   UNL     1      44.483   6.311  11.346  0.00  0.00    +0.000 C 
ATOM      3  C   UNL     1      45.878   6.859  11.625  0.00  0.00    +0.000 C 
ATOM      4  N   UNL     1      46.350   6.233  12.861  0.00  0.00    +0.000 N 
ATOM      5  O   UNL     1      46.496   4.844  12.714  0.00  0.00    +0.000 OA
ATOM      6  C   UNL     1      45.173   4.298  12.666  0.00  0.00    +0.000 C 
ENDROOT
BRANCH   1  10
ATOM      7  C   UNL     1      46.060   3.072   7.679  0.00  0.00    +0.000 A 
ATOM      8  C   UNL     1      46.139   4.445   7.925  0.00  0.00    +0.000 A 
ATOM      9  C   UNL     1      45.632   4.979   9.114  0.00  0.00    +0.000 A 
ATOM     10  C   UNL     1      45.032   4.156  10.086  0.00  0.00    +0.000 A 
ATOM     11  C   UNL     1      44.972   2.775   9.815  0.00  0.00    +0.000 A 
ATOM     12  C   UNL     1      45.479   2.238   8.628  0.00  0.00    +0.000 A 
BRANCH   7  14
ATOM     13  N   UNL     1      46.989   2.078   5.477  0.00  0.00    +0.000 NA
ATOM     14  C   UNL     1      46.574   2.524   6.459  0.00  0.00    +0.000 C 
ENDBRANCH   7  14
ENDBRANCH   1  10
BRANCH   4  15
ATOM     15  C   UNL     1      47.293   6.917  13.637  0.00  0.00    +0.000 A 
ATOM     16  C   UNL     1      47.618   8.258  13.456  0.00  0.00    +0.000 A 
ATOM     17  N   UNL     1      48.503   8.949  14.208  0.00  0.00    +0.000 NA
ATOM     18  C   UNL     1      49.093   8.270  15.217  0.00  0.00    +0.000 A 
ATOM     19  C   UNL     1      48.852   6.931  15.527  0.00  0.00    +0.000 A 
ATOM     20  C   UNL     1      47.920   6.277  14.712  0.00  0.00    +0.000 A 
BRANCH  19  21
ATOM     21  C   UNL     1      49.543   6.224  16.616  0.00  0.00    +0.000 A 
ATOM     22  C   UNL     1      50.934   6.086  16.639  0.00  0.00    +0.000 A 
ATOM     23  N   UNL     1      51.634   5.427  17.593  0.00  0.00    +0.000 NA
ATOM     24  C   UNL     1      50.912   4.856  18.585  0.00  0.00    +0.000 A 
ATOM     25  C   UNL     1      49.532   4.921  18.663  0.00  0.00    +0.000 A 
ATOM     26 CL   UNL     1      48.682   4.164  19.947  0.00  0.00    +0.000 Cl
ATOM     27  C   UNL     1      48.845   5.614  17.673  0.00  0.00    +0.000 A 
ENDBRANCH  19  21
ENDBRANCH   4  15
BRANCH   1  28
ATOM     28  O   UNL     1      43.094   4.333  11.476  0.00  0.00    +0.000 OA
ATOM     29  H   UNL     1      42.539   4.963  10.988  0.00  0.00    +0.000 HD
ENDBRANCH   1  28
TORSDOF 5
ENDMDL
MODEL 5
REMARK VINA RESULT:    -6.799      3.636      9.085
REMARK INTER + INTRA:          -9.279
REMARK INTER:                  -8.636
REMARK INTRA:                  -0.643
REMARK UNBOUND:                -0.691
REMARK  Name = 
REMARK  5 active torsions:
REMARK  status: ('A' for Active; 'I' for Inactive)
REMARK    1  A    between atoms: C_2  and  C_3
REMARK    2  A    between atoms: C_6  and  C_7
REMARK    3  A    between atoms: C_7  and  O_8
REMARK    4  A    between atoms: N_11  and  C_12
REMARK    5  A    between atoms: C_16  and  C_17
REMARK                            x       y       z     vdW  Elec       q    Type
REMARK                         _______ _______ _______ _____ _____    ______ ____
ROOT
ATOM      1  C   UNL     1      48.143   8.809  13.041  0.00  0.00    +0.000 C 
ATOM      2  C   UNL     1      46.645   9.177  12.959  0.00  0.00    +0.000 C 
ATOM      3  C   UNL     1      45.761   7.935  12.923  0.00  0.00    +0.000 C 
ATOM      4  N   UNL     1      46.271   7.071  11.857  0.00  0.00    +0.000 N 
ATOM      5  O   UNL     1      47.571   6.620  12.134  0.00  0.00    +0.000 OA
ATOM      6  C   UNL     1      48.440   7.745  11.958  0.00  0.00    +0.000 C 
ENDROOT
BRANCH   1  10
ATOM      7  C   UNL     1      49.336   7.675  17.089  0.00  0.00    +0.000 A 
ATOM      8  C   UNL     1      48.533   8.797  16.872  0.00  0.00    +0.000 A 
ATOM      9  C   UNL     1      48.149   9.149  15.574  0.00  0.00    +0.000 A 
ATOM     10  C   UNL     1      48.558   8.391  14.461  0.00  0.00    +0.000 A 
ATOM     11  C   UNL     1      49.361   7.260  14.709  0.00  0.00    +0.000 A 
ATOM     12  C   UNL     1      49.745   6.905  16.006  0.00  0.00    +0.000 A 
BRANCH   7  14
ATOM     13  N   UNL     1      50.059   7.030  19.489  0.00  0.00    +0.000 NA
ATOM     14  C   UNL     1      49.735   7.316  18.418  0.00  0.00    +0.000 C 
ENDBRANCH   7  14
ENDBRANCH   1  10
BRANCH   4  15
ATOM     15  C   UNL     1      45.384   6.185  11.235  0.00  0.00    +0.000 A 
ATOM     16  C   UNL     1      44.004   6.222  11.409  0.00  0.00    +0.000 A 
ATOM     17  N   UNL     1      43.123   5.398  10.800  0.00  0.00    +0.000 NA
ATOM     18  C   UNL     1      43.645   4.485   9.950  0.00  0.00    +0.000 A 
ATOM     19  C   UNL     1      45.003   4.343   9.665  0.00  0.00    +0.000 A 
ATOM     20  C   UNL     1      45.858   5.233  10.326  0.00  0.00    +0.000 A 
BRANCH  19  21
ATOM     21  C   UNL     1      45.527   3.313   8.757  0.00  0.00    +0.000 A 
ATOM     22  C   UNL     1      45.519   1.956   9.097  0.00  0.00    +0.000 A 
ATOM     23  N   UNL     1      46.008   0.958   8.324  0.00  0.00    +0.000 NA
ATOM     24  C   UNL     1      46.552   1.322   7.140  0.00  0.00    +0.000 A 
ATOM     25  C   UNL     1      46.621   2.633   6.700  0.00  0.00    +0.000 A 
ATOM     26 CL   UNL     1      47.334   3.022   5.189  0.00  0.00    +0.000 Cl
ATOM     27  C   UNL     1      46.100   3.633   7.514  0.00  0.00    +0.000 A 
ENDBRANCH  19  21
ENDBRANCH   4  15
BRANCH   1  28
ATOM     28  O   UNL     1      48.917   9.972  12.703  0.00  0.00    +0.000 OA
ATOM     29  H   UNL     1      49.386   9.793  11.873  0.00  0.00    +0.000 HD
ENDBRANCH   1  28
TORSDOF 5
ENDMDL
MODEL 6
REMARK VINA RESULT:    -6.589      4.104      8.526
REMARK INTER + INTRA:          -9.013
REMARK INTER:                  -8.339
REMARK INTRA:                  -0.675
REMARK UNBOUND:                -0.691
REMARK  Name = 
REMARK  5 active torsions:
REMARK  status: ('A' for Active; 'I' for Inactive)
REMARK    1  A    between atoms: C_2  and  C_3
REMARK    2  A    between atoms: C_6  and  C_7
REMARK    3  A    between atoms: C_7  and  O_8
REMARK    4  A    between atoms: N_11  and  C_12
REMARK    5  A    between atoms: C_16  and  C_17
REMARK                            x       y       z     vdW  Elec       q    Type
REMARK                         _______ _______ _______ _____ _____    ______ ____
ROOT
ATOM      1  C   UNL     1      47.834   8.810  13.539  0.00  0.00    +0.000 C 
ATOM      2  C   UNL     1      47.872   7.290  13.813  0.00  0.00    +0.000 C 
ATOM      3  C   UNL     1      47.426   6.487  12.597  0.00  0.00    +0.000 C 
ATOM      4  N   UNL     1      46.135   7.031  12.169  0.00  0.00    +0.000 N 
ATOM      5  O   UNL     1      46.253   8.362  11.739  0.00  0.00    +0.000 OA
ATOM      6  C   UNL     1      46.461   9.154  12.915  0.00  0.00    +0.000 C 
ENDROOT
BRANCH   1  10
ATOM      7  C   UNL     1      51.287  10.138  11.215  0.00  0.00    +0.000 A 
ATOM      8  C   UNL     1      51.408   9.096  12.136  0.00  0.00    +0.000 A 
ATOM      9  C   UNL     1      50.296   8.671  12.871  0.00  0.00    +0.000 A 
ATOM     10  C   UNL     1      49.037   9.277  12.704  0.00  0.00    +0.000 A 
ATOM     11  C   UNL     1      48.942  10.321  11.764  0.00  0.00    +0.000 A 
ATOM     12  C   UNL     1      50.051  10.747  11.027  0.00  0.00    +0.000 A 
BRANCH   7  14
ATOM     13  N   UNL     1      53.345  10.936   9.863  0.00  0.00    +0.000 NA
ATOM     14  C   UNL     1      52.427  10.578  10.464  0.00  0.00    +0.000 C 
ENDBRANCH   7  14
ENDBRANCH   1  10
BRANCH   4  15
ATOM     15  C   UNL     1      45.253   6.191  11.481  0.00  0.00    +0.000 A 
ATOM     16  C   UNL     1      43.868   6.250  11.610  0.00  0.00    +0.000 A 
ATOM     17  N   UNL     1      42.992   5.471  10.937  0.00  0.00    +0.000 NA
ATOM     18  C   UNL     1      43.524   4.585  10.067  0.00  0.00    +0.000 A 
ATOM     19  C   UNL     1      44.888   4.426   9.821  0.00  0.00    +0.000 A 
ATOM     20  C   UNL     1      45.738   5.269  10.547  0.00  0.00    +0.000 A 
BRANCH  19  21
ATOM     21  C   UNL     1      45.422   3.424   8.886  0.00  0.00    +0.000 A 
ATOM     22  C   UNL     1      45.432   2.060   9.195  0.00  0.00    +0.000 A 
ATOM     23  N   UNL     1      45.931   1.086   8.396  0.00  0.00    +0.000 NA
ATOM     24  C   UNL     1      46.466   1.486   7.220  0.00  0.00    +0.000 A 
ATOM     25  C   UNL     1      46.518   2.807   6.811  0.00  0.00    +0.000 A 
ATOM     26 CL   UNL     1      47.221   3.241   5.307  0.00  0.00    +0.000 Cl
ATOM     27  C   UNL     1      45.987   3.781   7.650  0.00  0.00    +0.000 A 
ENDBRANCH  19  21
ENDBRANCH   4  15
BRANCH   1  28
ATOM     28  O   UNL     1      47.901   9.501  14.798  0.00  0.00    +0.000 OA
ATOM     29  H   UNL     1      47.841  10.454  14.623  0.00  0.00    +0.000 HD
ENDBRANCH   1  28
TORSDOF 5
ENDMDL
MODEL 7
REMARK VINA RESULT:    -5.938      6.365      9.015
REMARK INTER + INTRA:          -8.192
REMARK INTER:                  -7.465
REMARK INTRA:                  -0.726
REMARK UNBOUND:                -0.691
REMARK  Name = 
REMARK  5 active torsions:
REMARK  status: ('A' for Active; 'I' for Inactive)
REMARK    1  A    between atoms: C_2  and  C_3
REMARK    2  A    between atoms: C_6  and  C_7
REMARK    3  A    between atoms: C_7  and  O_8
REMARK    4  A    between atoms: N_11  and  C_12
REMARK    5  A    between atoms: C_16  and  C_17
REMARK                            x       y       z     vdW  Elec       q    Type
REMARK                         _______ _______ _______ _____ _____    ______ ____
ROOT
ATOM      1  C   UNL     1      42.373  11.972  10.016  0.00  0.00    +0.000 C 
ATOM      2  C   UNL     1      42.699  10.578   9.435  0.00  0.00    +0.000 C 
ATOM      3  C   UNL     1      43.209   9.625  10.510  0.00  0.00    +0.000 C 
ATOM      4  N   UNL     1      44.304  10.304  11.205  0.00  0.00    +0.000 N 
ATOM      5  O   UNL     1      43.856  11.452  11.879  0.00  0.00    +0.000 OA
ATOM      6  C   UNL     1      43.576  12.432  10.872  0.00  0.00    +0.000 C 
ENDROOT
BRANCH   1  10
ATOM      7  C   UNL     1      38.527  12.020  12.088  0.00  0.00    +0.000 A 
ATOM      8  C   UNL     1      38.711  11.232  10.950  0.00  0.00    +0.000 A 
ATOM      9  C   UNL     1      39.948  11.216  10.296  0.00  0.00    +0.000 A 
ATOM     10  C   UNL     1      41.030  11.986  10.763  0.00  0.00    +0.000 A 
ATOM     11  C   UNL     1      40.817  12.766  11.916  0.00  0.00    +0.000 A 
ATOM     12  C   UNL     1      39.583  12.783  12.573  0.00  0.00    +0.000 A 
BRANCH   7  14
ATOM     13  N   UNL     1      36.234  12.061  13.290  0.00  0.00    +0.000 NA
ATOM     14  C   UNL     1      37.258  12.042  12.756  0.00  0.00    +0.000 C 
ENDBRANCH   7  14
ENDBRANCH   1  10
BRANCH   4  15
ATOM     15  C   UNL     1      45.291   9.523  11.818  0.00  0.00    +0.000 A 
ATOM     16  C   UNL     1      46.447  10.046  12.390  0.00  0.00    +0.000 A 
ATOM     17  N   UNL     1      47.402   9.319  13.012  0.00  0.00    +0.000 NA
ATOM     18  C   UNL     1      47.188   7.986  13.084  0.00  0.00    +0.000 A 
ATOM     19  C   UNL     1      46.071   7.326  12.572  0.00  0.00    +0.000 A 
ATOM     20  C   UNL     1      45.119   8.141  11.947  0.00  0.00    +0.000 A 
BRANCH  19  21
ATOM     21  C   UNL     1      45.898   5.868  12.646  0.00  0.00    +0.000 A 
ATOM     22  C   UNL     1      46.702   5.071  13.467  0.00  0.00    +0.000 A 
ATOM     23  N   UNL     1      46.617   3.723  13.565  0.00  0.00    +0.000 NA
ATOM     24  C   UNL     1      45.684   3.119  12.794  0.00  0.00    +0.000 A 
ATOM     25  C   UNL     1      44.838   3.803  11.940  0.00  0.00    +0.000 A 
ATOM     26 CL   UNL     1      43.683   2.968  10.983  0.00  0.00    +0.000 Cl
ATOM     27  C   UNL     1      44.943   5.188  11.870  0.00  0.00    +0.000 A 
ENDBRANCH  19  21
ENDBRANCH   4  15
BRANCH   1  28
ATOM     28  O   UNL     1      42.259  12.904   8.927  0.00  0.00    +0.000 OA
ATOM     29  H   UNL     1      43.138  13.018   8.533  0.00  0.00    +0.000 HD
ENDBRANCH   1  28
TORSDOF 5
ENDMDL
MODEL 8
REMARK VINA RESULT:    -5.886      5.296      8.247
REMARK INTER + INTRA:          -8.125
REMARK INTER:                  -7.481
REMARK INTRA:                  -0.645
REMARK UNBOUND:                -0.691
REMARK  Name = 
REMARK  5 active torsions:
REMARK  status: ('A' for Active; 'I' for Inactive)
REMARK    1  A    between atoms: C_2  and  C_3
REMARK    2  A    between atoms: C_6  and  C_7
REMARK    3  A    between atoms: C_7  and  O_8
REMARK    4  A    between atoms: N_11  and  C_12
REMARK    5  A    between atoms: C_16  and  C_17
REMARK                            x       y       z     vdW  Elec       q    Type
REMARK                         _______ _______ _______ _____ _____    ______ ____
ROOT
ATOM      1  C   UNL     1      44.291  10.957  11.114  0.00  0.00    +0.000 C 
ATOM      2  C   UNL     1      45.442  10.359  11.952  0.00  0.00    +0.000 C 
ATOM      3  C   UNL     1      45.762   8.929  11.531  0.00  0.00    +0.000 C 
ATOM      4  N   UNL     1      44.503   8.182  11.543  0.00  0.00    +0.000 N 
ATOM      5  O   UNL     1      43.598   8.679  10.591  0.00  0.00    +0.000 OA
ATOM      6  C   UNL     1      43.128   9.936  11.092  0.00  0.00    +0.000 C 
ENDROOT
BRANCH   1  10
ATOM      7  C   UNL     1      45.617  12.167   7.131  0.00  0.00    +0.000 A 
ATOM      8  C   UNL     1      44.424  11.462   7.299  0.00  0.00    +0.000 A 
ATOM      9  C   UNL     1      44.002  11.085   8.578  0.00  0.00    +0.000 A 
ATOM     10  C   UNL     1      44.761  11.401   9.720  0.00  0.00    +0.000 A 
ATOM     11  C   UNL     1      45.957  12.118   9.522  0.00  0.00    +0.000 A 
ATOM     12  C   UNL     1      46.381  12.498   8.244  0.00  0.00    +0.000 A 
BRANCH   7  14
ATOM     13  N   UNL     1      46.406  12.853   4.763  0.00  0.00    +0.000 NA
ATOM     14  C   UNL     1      46.054  12.549   5.820  0.00  0.00    +0.000 C 
ENDBRANCH   7  14
ENDBRANCH   1  10
BRANCH   4  15
ATOM     15  C   UNL     1      44.549   6.799  11.748  0.00  0.00    +0.000 A 
ATOM     16  C   UNL     1      44.267   6.188  12.966  0.00  0.00    +0.000 A 
ATOM     17  N   UNL     1      44.277   4.854  13.186  0.00  0.00    +0.000 NA
ATOM     18  C   UNL     1      44.572   4.074  12.122  0.00  0.00    +0.000 A 
ATOM     19  C   UNL     1      44.859   4.544  10.841  0.00  0.00    +0.000 A 
ATOM     20  C   UNL     1      44.824   5.935  10.683  0.00  0.00    +0.000 A 
BRANCH  19  21
ATOM     21  C   UNL     1      45.206   3.657   9.720  0.00  0.00    +0.000 A 
ATOM     22  C   UNL     1      45.010   2.274   9.788  0.00  0.00    +0.000 A 
ATOM     23  N   UNL     1      45.331   1.395   8.808  0.00  0.00    +0.000 NA
ATOM     24  C   UNL     1      45.892   1.914   7.692  0.00  0.00    +0.000 A 
ATOM     25  C   UNL     1      46.139   3.264   7.515  0.00  0.00    +0.000 A 
ATOM     26 CL   UNL     1      46.864   3.850   6.074  0.00  0.00    +0.000 Cl
ATOM     27  C   UNL     1      45.789   4.141   8.536  0.00  0.00    +0.000 A 
ENDBRANCH  19  21
ENDBRANCH   4  15
BRANCH   1  28
ATOM     28  O   UNL     1      43.800  12.129  11.785  0.00  0.00    +0.000 OA
ATOM     29  H   UNL     1      44.239  12.191  12.648  0.00  0.00    +0.000 HD
ENDBRANCH   1  28
TORSDOF 5
ENDMDL
