MODEL 1
REMARK VINA RESULT:    -8.150      0.000      0.000
REMARK INTER + INTRA:         -12.074
REMARK INTER:                 -11.009
REMARK INTRA:                  -1.066
REMARK UNBOUND:                -1.066
REMARK  Name = 
REMARK  7 active torsions:
REMARK  status: ('A' for Active; 'I' for Inactive)
REMARK    1  A    between atoms: C_1  and  N_2
REMARK    2  A    between atoms: N_2  and  C_3
REMARK    3  A    between atoms: C_3  and  C_4
REMARK    4  A    between atoms: C_7  and  C_8
REMARK    5  A    between atoms: C_8  and  N_9
REMARK    6  A    between atoms: C_10  and  C_12
REMARK    7  A    between atoms: C_24  and  C_26
REMARK                            x       y       z     vdW  Elec       q    Type
REMARK                         _______ _______ _______ _____ _____    ______ ____
ROOT
ATOM      1  C   UNL     1      46.427   4.444  13.478  0.00  0.00    +0.000 A 
ATOM      2  C   UNL     1      46.668   3.972  14.779  0.00  0.00    +0.000 A 
ATOM      3  C   UNL     1      47.515   4.670  15.641  0.00  0.00    +0.000 A 
ATOM      4  C   UNL     1      48.127   5.855  15.221  0.00  0.00    +0.000 A 
ATOM      5  C   UNL     1      47.924   6.300  13.907  0.00  0.00    +0.000 A 
ATOM      6  C   UNL     1      47.072   5.607  13.045  0.00  0.00    +0.000 A 
ENDROOT
BRANCH   1   7
ATOM      7  C   UNL     1      45.493   3.693  12.567  0.00  0.00    +0.000 C 
BRANCH   7   9
ATOM      8  C   UNL     1      43.367   5.033  12.960  0.00  0.00    +0.000 C 
ATOM      9  N   UNL     1      44.307   4.384  12.050  0.00  0.00    +0.000 N 
ATOM     10  C   UNL     1      43.963   4.454  10.686  0.00  0.00    +0.000 C 
ATOM     11  O   UNL     1      42.974   5.083  10.302  0.00  0.00    +0.000 OA
BRANCH  10  12
ATOM     12  C   UNL     1      44.797   3.826   9.629  0.00  0.00    +0.000 A 
ATOM     13  C   UNL     1      44.903   2.456   9.388  0.00  0.00    +0.000 A 
ATOM     14  C   UNL     1      45.762   1.985   8.394  0.00  0.00    +0.000 A 
ATOM     15  C   UNL     1      46.436   2.908   7.617  0.00  0.00    +0.000 A 
ATOM     16  N   UNL     1      46.304   4.242   7.764  0.00  0.00    +0.000 NA
ATOM     17  C   UNL     1      45.482   4.670   8.759  0.00  0.00    +0.000 A 
ENDBRANCH  10  12
ENDBRANCH   7   9
ENDBRANCH   1   7
BRANCH   4  18
ATOM     18  C   UNL     1      49.016   6.631  16.154  0.00  0.00    +0.000 C 
BRANCH  18  19
ATOM     19  N   UNL     1      50.102   5.820  16.634  0.00  0.00    +0.000 N 
ATOM     20  C   UNL     1      50.141   5.400  17.938  0.00  0.00    +0.000 C 
ATOM     21  O   UNL     1      49.237   5.651  18.731  0.00  0.00    +0.000 OA
ATOM     22  H   UNL     1      50.948   5.803  16.075  0.00  0.00    +0.000 HD
BRANCH  20  23
ATOM     23  C   UNL     1      51.295   4.581  18.326  0.00  0.00    +0.000 A 
ATOM     24  C   UNL     1      52.304   5.141  19.098  0.00  0.00    +0.000 A 
ATOM     25  S   UNL     1      53.543   4.044  19.505  0.00  0.00    +0.000 S 
ATOM     26  C   UNL     1      52.801   2.794  18.622  0.00  0.00    +0.000 A 
ATOM     27  N   UNL     1      53.371   1.562  18.539  0.00  0.00    +0.000 NA
ATOM     28  C   UNL     1      52.715   0.716  17.820  0.00  0.00    +0.000 A 
ATOM     29  N   UNL     1      51.534   0.988  17.175  0.00  0.00    +0.000 N 
ATOM     30  C   UNL     1      50.909   2.208  17.251  0.00  0.00    +0.000 A 
ATOM     31  O   UNL     1      49.835   2.406  16.699  0.00  0.00    +0.000 OA
ATOM     32  C   UNL     1      51.615   3.202  18.041  0.00  0.00    +0.000 A 
ATOM     33  H   UNL     1      51.066   0.278  16.632  0.00  0.00    +0.000 HD
ENDBRANCH  20  23
ENDBRANCH  18  19
ENDBRANCH   4  18
TORSDOF 6
ENDMDL
MODEL 2
REMARK VINA RESULT:    -7.669      2.634      3.214
REMARK INTER + INTRA:         -11.425
REMARK INTER:                 -10.654
REMARK INTRA:                  -0.771
REMARK UNBOUND:                -1.066
REMARK  Name = 
REMARK  7 active torsions:
REMARK  status: ('A' for Active; 'I' for Inactive)
REMARK    1  A    between atoms: C_1  and  N_2
REMARK    2  A    between atoms: N_2  and  C_3
REMARK    3  A    between atoms: C_3  and  C_4
REMARK    4  A    between atoms: C_7  and  C_8
REMARK    5  A    between atoms: C_8  and  N_9
REMARK    6  A    between atoms: C_10  and  C_12
REMARK    7  A    between atoms: C_24  and  C_26
REMARK                            x       y       z     vdW  Elec       q    Type
REMARK                         _______ _______ _______ _____ _____    ______ ____
ROOT
ATOM      1  C   UNL     1      45.329   6.832  11.523  0.00  0.00    +0.000 A 
ATOM      2  C   UNL     1      46.543   6.209  11.852  0.00  0.00    +0.000 A 
ATOM      3  C   UNL     1      47.453   6.834  12.707  0.00  0.00    +0.000 A 
ATOM      4  C   UNL     1      47.158   8.087  13.255  0.00  0.00    +0.000 A 
ATOM      5  C   UNL     1      45.966   8.729  12.888  0.00  0.00    +0.000 A 
ATOM      6  C   UNL     1      45.053   8.103  12.038  0.00  0.00    +0.000 A 
ENDROOT
BRANCH   1   7
ATOM      7  C   UNL     1      44.348   6.136  10.618  0.00  0.00    +0.000 C 
BRANCH   7   9
ATOM      8  C   UNL     1      42.730   5.001  12.219  0.00  0.00    +0.000 C 
ATOM      9  N   UNL     1      43.672   4.928  11.106  0.00  0.00    +0.000 N 
ATOM     10  C   UNL     1      43.889   3.636  10.590  0.00  0.00    +0.000 C 
ATOM     11  O   UNL     1      43.264   2.661  11.012  0.00  0.00    +0.000 OA
BRANCH  10  12
ATOM     12  C   UNL     1      44.834   3.381   9.472  0.00  0.00    +0.000 A 
ATOM     13  C   UNL     1      45.405   4.357   8.655  0.00  0.00    +0.000 A 
ATOM     14  C   UNL     1      46.242   3.985   7.603  0.00  0.00    +0.000 A 
ATOM     15  C   UNL     1      46.543   2.646   7.444  0.00  0.00    +0.000 A 
ATOM     16  N   UNL     1      46.076   1.677   8.256  0.00  0.00    +0.000 NA
ATOM     17  C   UNL     1      45.240   2.067   9.256  0.00  0.00    +0.000 A 
ENDBRANCH  10  12
ENDBRANCH   7   9
ENDBRANCH   1   7
BRANCH   4  18
ATOM     18  C   UNL     1      48.117   8.753  14.203  0.00  0.00    +0.000 C 
BRANCH  18  19
ATOM     19  N   UNL     1      48.317   7.958  15.385  0.00  0.00    +0.000 N 
ATOM     20  C   UNL     1      49.531   7.380  15.644  0.00  0.00    +0.000 C 
ATOM     21  O   UNL     1      50.505   7.553  14.914  0.00  0.00    +0.000 OA
ATOM     22  H   UNL     1      47.487   7.619  15.860  0.00  0.00    +0.000 HD
BRANCH  20  23
ATOM     23  C   UNL     1      49.628   6.585  16.874  0.00  0.00    +0.000 A 
ATOM     24  C   UNL     1      50.451   7.016  17.905  0.00  0.00    +0.000 A 
ATOM     25  S   UNL     1      50.410   6.010  19.280  0.00  0.00    +0.000 S 
ATOM     26  C   UNL     1      49.328   4.934  18.527  0.00  0.00    +0.000 A 
ATOM     27  N   UNL     1      48.895   3.815  19.167  0.00  0.00    +0.000 NA
ATOM     28  C   UNL     1      48.097   3.077  18.473  0.00  0.00    +0.000 A 
ATOM     29  N   UNL     1      47.687   3.357  17.193  0.00  0.00    +0.000 N 
ATOM     30  C   UNL     1      48.078   4.486  16.517  0.00  0.00    +0.000 A 
ATOM     31  O   UNL     1      47.661   4.728  15.392  0.00  0.00    +0.000 OA
ATOM     32  C   UNL     1      48.988   5.347  17.252  0.00  0.00    +0.000 A 
ATOM     33  H   UNL     1      47.055   2.740  16.706  0.00  0.00    +0.000 HD
ENDBRANCH  20  23
ENDBRANCH  18  19
ENDBRANCH   4  18
TORSDOF 6
ENDMDL
MODEL 3
REMARK VINA RESULT:    -7.514      3.523      8.854
REMARK INTER + INTRA:         -11.215
REMARK INTER:                  -9.655
REMARK INTRA:                  -1.560
REMARK UNBOUND:                -1.066
REMARK  Name = 
REMARK  7 active torsions:
REMARK  status: ('A' for Active; 'I' for Inactive)
REMARK    1  A    between atoms: C_1  and  N_2
REMARK    2  A    between atoms: N_2  and  C_3
REMARK    3  A    between atoms: C_3  and  C_4
REMARK    4  A    between atoms: C_7  and  C_8
REMARK    5  A    between atoms: C_8  and  N_9
REMARK    6  A    between atoms: C_10  and  C_12
REMARK    7  A    between atoms: C_24  and  C_26
REMARK                            x       y       z     vdW  Elec       q    Type
REMARK                         _______ _______ _______ _____ _____    ______ ____
ROOT
ATOM      1  C   UNL     1      49.058   7.707  16.112  0.00  0.00    +0.000 A 
ATOM      2  C   UNL     1      48.384   8.859  15.676  0.00  0.00    +0.000 A 
ATOM      3  C   UNL     1      47.854   8.925  14.386  0.00  0.00    +0.000 A 
ATOM      4  C   UNL     1      47.981   7.838  13.516  0.00  0.00    +0.000 A 
ATOM      5  C   UNL     1      48.695   6.706  13.936  0.00  0.00    +0.000 A 
ATOM      6  C   UNL     1      49.221   6.636  15.227  0.00  0.00    +0.000 A 
ENDROOT
BRANCH   1   7
ATOM      7  C   UNL     1      49.604   7.641  17.514  0.00  0.00    +0.000 C 
BRANCH   7   9
ATOM      8  C   UNL     1      48.353   8.633  19.494  0.00  0.00    +0.000 C 
ATOM      9  N   UNL     1      48.663   7.498  18.630  0.00  0.00    +0.000 N 
ATOM     10  C   UNL     1      48.025   6.291  18.977  0.00  0.00    +0.000 C 
ATOM     11  O   UNL     1      47.211   6.236  19.903  0.00  0.00    +0.000 OA
BRANCH  10  12
ATOM     12  C   UNL     1      48.248   5.033  18.219  0.00  0.00    +0.000 A 
ATOM     13  C   UNL     1      49.407   4.259  18.256  0.00  0.00    +0.000 A 
ATOM     14  C   UNL     1      49.515   3.122  17.456  0.00  0.00    +0.000 A 
ATOM     15  C   UNL     1      48.424   2.749  16.694  0.00  0.00    +0.000 A 
ATOM     16  N   UNL     1      47.257   3.423  16.686  0.00  0.00    +0.000 NA
ATOM     17  C   UNL     1      47.192   4.544  17.454  0.00  0.00    +0.000 A 
ENDBRANCH  10  12
ENDBRANCH   7   9
ENDBRANCH   1   7
BRANCH   4  18
ATOM     18  C   UNL     1      47.385   7.887  12.135  0.00  0.00    +0.000 C 
BRANCH  18  19
ATOM     19  N   UNL     1      46.741   6.645  11.801  0.00  0.00    +0.000 N 
ATOM     20  C   UNL     1      45.426   6.429  12.118  0.00  0.00    +0.000 C 
ATOM     21  O   UNL     1      44.733   7.294  12.649  0.00  0.00    +0.000 OA
ATOM     22  H   UNL     1      47.342   5.857  11.585  0.00  0.00    +0.000 HD
BRANCH  20  23
ATOM     23  C   UNL     1      44.868   5.126  11.737  0.00  0.00    +0.000 A 
ATOM     24  C   UNL     1      44.159   4.386  12.673  0.00  0.00    +0.000 A 
ATOM     25  S   UNL     1      43.534   2.924  12.058  0.00  0.00    +0.000 S 
ATOM     26  C   UNL     1      44.231   3.206  10.532  0.00  0.00    +0.000 A 
ATOM     27  N   UNL     1      44.093   2.305   9.522  0.00  0.00    +0.000 NA
ATOM     28  C   UNL     1      44.690   2.633   8.427  0.00  0.00    +0.000 A 
ATOM     29  N   UNL     1      45.414   3.785   8.246  0.00  0.00    +0.000 N 
ATOM     30  C   UNL     1      45.560   4.734   9.227  0.00  0.00    +0.000 A 
ATOM     31  O   UNL     1      46.176   5.771   9.020  0.00  0.00    +0.000 OA
ATOM     32  C   UNL     1      44.914   4.407  10.487  0.00  0.00    +0.000 A 
ATOM     33  H   UNL     1      45.852   3.986   7.360  0.00  0.00    +0.000 HD
ENDBRANCH  20  23
ENDBRANCH  18  19
ENDBRANCH   4  18
TORSDOF 6
ENDMDL
MODEL 4
REMARK VINA RESULT:    -7.439      3.753      8.651
REMARK INTER + INTRA:         -11.114
REMARK INTER:                  -9.579
REMARK INTRA:                  -1.535
REMARK UNBOUND:                -1.066
REMARK  Name = 
REMARK  7 active torsions:
REMARK  status: ('A' for Active; 'I' for Inactive)
REMARK    1  A    between atoms: C_1  and  N_2
REMARK    2  A    between atoms: N_2  and  C_3
REMARK    3  A    between atoms: C_3  and  C_4
REMARK    4  A    between atoms: C_7  and  C_8
REMARK    5  A    between atoms: C_8  and  N_9
REMARK    6  A    between atoms: C_10  and  C_12
REMARK    7  A    between atoms: C_24  and  C_26
REMARK                            x       y       z     vdW  Elec       q    Type
REMARK                         _______ _______ _______ _____ _____    ______ ____
ROOT
ATOM      1  C   UNL     1      49.070   7.627  16.347  0.00  0.00    +0.000 A 
ATOM      2  C   UNL     1      49.145   6.603  15.389  0.00  0.00    +0.000 A 
ATOM      3  C   UNL     1      48.766   6.839  14.067  0.00  0.00    +0.000 A 
ATOM      4  C   UNL     1      48.315   8.104  13.679  0.00  0.00    +0.000 A 
ATOM      5  C   UNL     1      48.195   9.113  14.646  0.00  0.00    +0.000 A 
ATOM      6  C   UNL     1      48.579   8.881  15.968  0.00  0.00    +0.000 A 
ENDROOT
BRANCH   1   7
ATOM      7  C   UNL     1      49.504   7.364  17.765  0.00  0.00    +0.000 C 
BRANCH   7   9
ATOM      8  C   UNL     1      48.084   8.266  19.673  0.00  0.00    +0.000 C 
ATOM      9  N   UNL     1      48.475   7.168  18.792  0.00  0.00    +0.000 N 
ATOM     10  C   UNL     1      47.821   5.945  19.035  0.00  0.00    +0.000 C 
ATOM     11  O   UNL     1      46.934   5.847  19.886  0.00  0.00    +0.000 OA
BRANCH  10  12
ATOM     12  C   UNL     1      48.117   4.721  18.247  0.00  0.00    +0.000 A 
ATOM     13  C   UNL     1      49.249   3.918  18.391  0.00  0.00    +0.000 A 
ATOM     14  C   UNL     1      49.439   2.819  17.554  0.00  0.00    +0.000 A 
ATOM     15  C   UNL     1      48.449   2.511  16.640  0.00  0.00    +0.000 A 
ATOM     16  N   UNL     1      47.304   3.214  16.518  0.00  0.00    +0.000 NA
ATOM     17  C   UNL     1      47.161   4.296  17.328  0.00  0.00    +0.000 A 
ENDBRANCH  10  12
ENDBRANCH   7   9
ENDBRANCH   1   7
BRANCH   4  18
ATOM     18  C   UNL     1      47.936   8.378  12.249  0.00  0.00    +0.000 C 
BRANCH  18  19
ATOM     19  N   UNL     1      47.354   7.215  11.633  0.00  0.00    +0.000 N 
ATOM     20  C   UNL     1      45.995   7.095  11.505  0.00  0.00    +0.000 C 
ATOM     21  O   UNL     1      45.226   7.986  11.859  0.00  0.00    +0.000 OA
ATOM     22  H   UNL     1      47.941   6.392  11.554  0.00  0.00    +0.000 HD
BRANCH  20  23
ATOM     23  C   UNL     1      45.505   5.868  10.867  0.00  0.00    +0.000 A 
ATOM     24  C   UNL     1      45.760   5.647   9.521  0.00  0.00    +0.000 A 
ATOM     25  S   UNL     1      45.169   4.154   8.949  0.00  0.00    +0.000 S 
ATOM     26  C   UNL     1      44.507   3.772  10.469  0.00  0.00    +0.000 A 
ATOM     27  N   UNL     1      43.825   2.611  10.663  0.00  0.00    +0.000 NA
ATOM     28  C   UNL     1      43.358   2.459  11.855  0.00  0.00    +0.000 A 
ATOM     29  N   UNL     1      43.511   3.363  12.877  0.00  0.00    +0.000 N 
ATOM     30  C   UNL     1      44.211   4.536  12.734  0.00  0.00    +0.000 A 
ATOM     31  O   UNL     1      44.366   5.300  13.677  0.00  0.00    +0.000 OA
ATOM     32  C   UNL     1      44.750   4.761  11.404  0.00  0.00    +0.000 A 
ATOM     33  H   UNL     1      43.125   3.181  13.791  0.00  0.00    +0.000 HD
ENDBRANCH  20  23
ENDBRANCH  18  19
ENDBRANCH   4  18
TORSDOF 6
ENDMDL
MODEL 5
REMARK VINA RESULT:    -7.411      3.414     10.312
REMARK INTER + INTRA:         -11.076
REMARK INTER:                  -9.706
REMARK INTRA:                  -1.369
REMARK UNBOUND:                -1.066
REMARK  Name = 
REMARK  7 active torsions:
REMARK  status: ('A' for Active; 'I' for Inactive)
REMARK    1  A    between atoms: C_1  and  N_2
REMARK    2  A    between atoms: N_2  and  C_3
REMARK    3  A    between atoms: C_3  and  C_4
REMARK    4  A    between atoms: C_7  and  C_8
REMARK    5  A    between atoms: C_8  and  N_9
REMARK    6  A    between atoms: C_10  and  C_12
REMARK    7  A    between atoms: C_24  and  C_26
REMARK                            x       y       z     vdW  Elec       q    Type
REMARK                         _______ _______ _______ _____ _____    ______ ____
ROOT
ATOM      1  C   UNL     1      51.530   3.789  17.669  0.00  0.00    +0.000 A 
ATOM      2  C   UNL     1      50.959   2.525  17.453  0.00  0.00    +0.000 A 
ATOM      3  C   UNL     1      49.592   2.397  17.203  0.00  0.00    +0.000 A 
ATOM      4  C   UNL     1      48.776   3.532  17.156  0.00  0.00    +0.000 A 
ATOM      5  C   UNL     1      49.339   4.789  17.419  0.00  0.00    +0.000 A 
ATOM      6  C   UNL     1      50.707   4.919  17.662  0.00  0.00    +0.000 A 
ENDROOT
BRANCH   1   7
ATOM      7  C   UNL     1      53.011   3.913  17.914  0.00  0.00    +0.000 C 
BRANCH   7   9
ATOM      8  C   UNL     1      54.323   1.876  18.686  0.00  0.00    +0.000 C 
ATOM      9  N   UNL     1      53.617   3.118  18.988  0.00  0.00    +0.000 N 
ATOM     10  C   UNL     1      53.545   3.448  20.355  0.00  0.00    +0.000 C 
ATOM     11  O   UNL     1      54.107   2.763  21.213  0.00  0.00    +0.000 OA
BRANCH  10  12
ATOM     12  C   UNL     1      52.843   4.665  20.837  0.00  0.00    +0.000 A 
ATOM     13  C   UNL     1      51.513   4.720  21.256  0.00  0.00    +0.000 A 
ATOM     14  C   UNL     1      50.951   5.937  21.640  0.00  0.00    +0.000 A 
ATOM     15  C   UNL     1      51.761   7.057  21.665  0.00  0.00    +0.000 A 
ATOM     16  N   UNL     1      53.071   7.035  21.343  0.00  0.00    +0.000 NA
ATOM     17  C   UNL     1      53.582   5.839  20.945  0.00  0.00    +0.000 A 
ENDBRANCH  10  12
ENDBRANCH   7   9
ENDBRANCH   1   7
BRANCH   4  18
ATOM     18  C   UNL     1      47.307   3.407  16.855  0.00  0.00    +0.000 C 
BRANCH  18  19
ATOM     19  N   UNL     1      46.882   4.407  15.912  0.00  0.00    +0.000 N 
ATOM     20  C   UNL     1      46.942   4.171  14.564  0.00  0.00    +0.000 C 
ATOM     21  O   UNL     1      47.307   3.090  14.107  0.00  0.00    +0.000 OA
ATOM     22  H   UNL     1      46.805   5.360  16.252  0.00  0.00    +0.000 HD
BRANCH  20  23
ATOM     23  C   UNL     1      46.489   5.258  13.689  0.00  0.00    +0.000 A 
ATOM     24  C   UNL     1      47.299   6.371  13.506  0.00  0.00    +0.000 A 
ATOM     25  S   UNL     1      46.652   7.516  12.421  0.00  0.00    +0.000 S 
ATOM     26  C   UNL     1      45.244   6.588  12.197  0.00  0.00    +0.000 A 
ATOM     27  N   UNL     1      44.243   7.021  11.384  0.00  0.00    +0.000 NA
ATOM     28  C   UNL     1      43.225   6.232  11.322  0.00  0.00    +0.000 A 
ATOM     29  N   UNL     1      43.114   5.043  12.000  0.00  0.00    +0.000 N 
ATOM     30  C   UNL     1      44.108   4.555  12.812  0.00  0.00    +0.000 A 
ATOM     31  O   UNL     1      43.997   3.470  13.368  0.00  0.00    +0.000 OA
ATOM     32  C   UNL     1      45.275   5.413  12.924  0.00  0.00    +0.000 A 
ATOM     33  H   UNL     1      42.292   4.467  11.903  0.00  0.00    +0.000 HD
ENDBRANCH  20  23
ENDBRANCH  18  19
ENDBRANCH   4  18
TORSDOF 6
ENDMDL
MODEL 6
REMARK VINA RESULT:    -6.897      3.356      9.399
REMARK INTER + INTRA:         -10.382
REMARK INTER:                  -8.944
REMARK INTRA:                  -1.437
REMARK UNBOUND:                -1.066
REMARK  Name = 
REMARK  7 active torsions:
REMARK  status: ('A' for Active; 'I' for Inactive)
REMARK    1  A    between atoms: C_1  and  N_2
REMARK    2  A    between atoms: N_2  and  C_3
REMARK    3  A    between atoms: C_3  and  C_4
REMARK    4  A    between atoms: C_7  and  C_8
REMARK    5  A    between atoms: C_8  and  N_9
REMARK    6  A    between atoms: C_10  and  C_12
REMARK    7  A    between atoms: C_24  and  C_26
REMARK                            x       y       z     vdW  Elec       q    Type
REMARK                         _______ _______ _______ _____ _____    ______ ____
ROOT
ATOM      1  C   UNL     1      51.420   3.546  18.288  0.00  0.00    +0.000 A 
ATOM      2  C   UNL     1      50.484   4.507  18.702  0.00  0.00    +0.000 A 
ATOM      3  C   UNL     1      49.155   4.428  18.285  0.00  0.00    +0.000 A 
ATOM      4  C   UNL     1      48.737   3.382  17.456  0.00  0.00    +0.000 A 
ATOM      5  C   UNL     1      49.683   2.448  17.006  0.00  0.00    +0.000 A 
ATOM      6  C   UNL     1      51.011   2.522  17.427  0.00  0.00    +0.000 A 
ENDROOT
BRANCH   1   7
ATOM      7  C   UNL     1      52.846   3.631  18.765  0.00  0.00    +0.000 C 
BRANCH   7   9
ATOM      8  C   UNL     1      54.834   2.731  17.458  0.00  0.00    +0.000 C 
ATOM      9  N   UNL     1      53.911   3.817  17.773  0.00  0.00    +0.000 N 
ATOM     10  C   UNL     1      54.151   5.024  17.087  0.00  0.00    +0.000 C 
ATOM     11  O   UNL     1      55.036   5.113  16.233  0.00  0.00    +0.000 OA
BRANCH  10  12
ATOM     12  C   UNL     1      53.320   6.236  17.307  0.00  0.00    +0.000 A 
ATOM     13  C   UNL     1      53.438   7.114  18.384  0.00  0.00    +0.000 A 
ATOM     14  C   UNL     1      52.562   8.193  18.506  0.00  0.00    +0.000 A 
ATOM     15  C   UNL     1      51.637   8.405  17.501  0.00  0.00    +0.000 A 
ATOM     16  N   UNL     1      51.539   7.627  16.404  0.00  0.00    +0.000 NA
ATOM     17  C   UNL     1      52.387   6.567  16.328  0.00  0.00    +0.000 A 
ENDBRANCH  10  12
ENDBRANCH   7   9
ENDBRANCH   1   7
BRANCH   4  18
ATOM     18  C   UNL     1      47.299   3.269  17.028  0.00  0.00    +0.000 C 
BRANCH  18  19
ATOM     19  N   UNL     1      46.949   4.311  16.100  0.00  0.00    +0.000 N 
ATOM     20  C   UNL     1      47.026   4.101  14.748  0.00  0.00    +0.000 C 
ATOM     21  O   UNL     1      47.343   3.012  14.275  0.00  0.00    +0.000 OA
ATOM     22  H   UNL     1      46.916   5.258  16.461  0.00  0.00    +0.000 HD
BRANCH  20  23
ATOM     23  C   UNL     1      46.652   5.230  13.889  0.00  0.00    +0.000 A 
ATOM     24  C   UNL     1      47.496   6.327  13.795  0.00  0.00    +0.000 A 
ATOM     25  S   UNL     1      46.942   7.526  12.717  0.00  0.00    +0.000 S 
ATOM     26  C   UNL     1      45.528   6.643  12.377  0.00  0.00    +0.000 A 
ATOM     27  N   UNL     1      44.588   7.130  11.523  0.00  0.00    +0.000 NA
ATOM     28  C   UNL     1      43.557   6.370  11.373  0.00  0.00    +0.000 A 
ATOM     29  N   UNL     1      43.379   5.161  11.999  0.00  0.00    +0.000 N 
ATOM     30  C   UNL     1      44.311   4.619  12.849  0.00  0.00    +0.000 A 
ATOM     31  O   UNL     1      44.142   3.518  13.357  0.00  0.00    +0.000 OA
ATOM     32  C   UNL     1      45.489   5.442  13.061  0.00  0.00    +0.000 A 
ATOM     33  H   UNL     1      42.551   4.610  11.833  0.00  0.00    +0.000 HD
ENDBRANCH  20  23
ENDBRANCH  18  19
ENDBRANCH   4  18
TORSDOF 6
ENDMDL
MODEL 7
REMARK VINA RESULT:    -6.776      5.864      9.109
REMARK INTER + INTRA:         -10.219
REMARK INTER:                  -9.025
REMARK INTRA:                  -1.193
REMARK UNBOUND:                -1.066
REMARK  Name = 
REMARK  7 active torsions:
REMARK  status: ('A' for Active; 'I' for Inactive)
REMARK    1  A    between atoms: C_1  and  N_2
REMARK    2  A    between atoms: N_2  and  C_3
REMARK    3  A    between atoms: C_3  and  C_4
REMARK    4  A    between atoms: C_7  and  C_8
REMARK    5  A    between atoms: C_8  and  N_9
REMARK    6  A    between atoms: C_10  and  C_12
REMARK    7  A    between atoms: C_24  and  C_26
REMARK                            x       y       z     vdW  Elec       q    Type
REMARK                         _______ _______ _______ _____ _____    ______ ____
ROOT
ATOM      1  C   UNL     1      50.208   9.097  11.492  0.00  0.00    +0.000 A 
ATOM      2  C   UNL     1      49.300  10.132  11.765  0.00  0.00    +0.000 A 
ATOM      3  C   UNL     1      48.024   9.847  12.252  0.00  0.00    +0.000 A 
ATOM      4  C   UNL     1      47.638   8.523  12.483  0.00  0.00    +0.000 A 
ATOM      5  C   UNL     1      48.528   7.486  12.165  0.00  0.00    +0.000 A 
ATOM      6  C   UNL     1      49.807   7.770  11.684  0.00  0.00    +0.000 A 
ENDROOT
BRANCH   1   7
ATOM      7  C   UNL     1      51.590   9.421  10.989  0.00  0.00    +0.000 C 
BRANCH   7   9
ATOM      8  C   UNL     1      53.086   8.782  12.944  0.00  0.00    +0.000 C 
ATOM      9  N   UNL     1      52.730   8.675  11.532  0.00  0.00    +0.000 N 
ATOM     10  C   UNL     1      53.573   7.849  10.764  0.00  0.00    +0.000 C 
ATOM     11  O   UNL     1      54.495   7.212  11.280  0.00  0.00    +0.000 OA
BRANCH  10  12
ATOM     12  C   UNL     1      53.368   7.648   9.306  0.00  0.00    +0.000 A 
ATOM     13  C   UNL     1      52.396   6.832   8.730  0.00  0.00    +0.000 A 
ATOM     14  C   UNL     1      52.336   6.686   7.344  0.00  0.00    +0.000 A 
ATOM     15  C   UNL     1      53.209   7.425   6.568  0.00  0.00    +0.000 A 
ATOM     16  N   UNL     1      54.114   8.284   7.079  0.00  0.00    +0.000 NA
ATOM     17  C   UNL     1      54.167   8.382   8.434  0.00  0.00    +0.000 A 
ENDBRANCH  10  12
ENDBRANCH   7   9
ENDBRANCH   1   7
BRANCH   4  18
ATOM     18  C   UNL     1      46.276   8.207  13.039  0.00  0.00    +0.000 C 
BRANCH  18  19
ATOM     19  N   UNL     1      45.879   6.863  12.713  0.00  0.00    +0.000 N 
ATOM     20  C   UNL     1      44.903   6.626  11.781  0.00  0.00    +0.000 C 
ATOM     21  O   UNL     1      44.366   7.536  11.154  0.00  0.00    +0.000 OA
ATOM     22  H   UNL     1      46.134   6.134  13.370  0.00  0.00    +0.000 HD
BRANCH  20  23
ATOM     23  C   UNL     1      44.570   5.220  11.526  0.00  0.00    +0.000 A 
ATOM     24  C   UNL     1      43.884   4.494  12.489  0.00  0.00    +0.000 A 
ATOM     25  S   UNL     1      43.531   2.894  12.017  0.00  0.00    +0.000 S 
ATOM     26  C   UNL     1      44.326   3.101  10.528  0.00  0.00    +0.000 A 
ATOM     27  N   UNL     1      44.412   2.080   9.633  0.00  0.00    +0.000 NA
ATOM     28  C   UNL     1      45.061   2.366   8.556  0.00  0.00    +0.000 A 
ATOM     29  N   UNL     1      45.633   3.585   8.288  0.00  0.00    +0.000 N 
ATOM     30  C   UNL     1      45.550   4.651   9.149  0.00  0.00    +0.000 A 
ATOM     31  O   UNL     1      46.034   5.738   8.861  0.00  0.00    +0.000 OA
ATOM     32  C   UNL     1      44.837   4.378  10.385  0.00  0.00    +0.000 A 
ATOM     33  H   UNL     1      46.123   3.747   7.421  0.00  0.00    +0.000 HD
ENDBRANCH  20  23
ENDBRANCH  18  19
ENDBRANCH   4  18
TORSDOF 6
ENDMDL
MODEL 8
REMARK VINA RESULT:    -6.681      2.828      3.544
REMARK INTER + INTRA:         -10.090
REMARK INTER:                 -10.177
REMARK INTRA:                   0.087
REMARK UNBOUND:                -1.066
REMARK  Name = 
REMARK  7 active torsions:
REMARK  status: ('A' for Active; 'I' for Inactive)
REMARK    1  A    between atoms: C_1  and  N_2
REMARK    2  A    between atoms: N_2  and  C_3
REMARK    3  A    between atoms: C_3  and  C_4
REMARK    4  A    between atoms: C_7  and  C_8
REMARK    5  A    between atoms: C_8  and  N_9
REMARK    6  A    between atoms: C_10  and  C_12
REMARK    7  A    between atoms: C_24  and  C_26
REMARK                            x       y       z     vdW  Elec       q    Type
REMARK                         _______ _______ _______ _____ _____    ______ ____
ROOT
ATOM      1  C   UNL     1      45.941   5.793  11.342  0.00  0.00    +0.000 A 
ATOM      2  C   UNL     1      45.970   5.160  12.594  0.00  0.00    +0.000 A 
ATOM      3  C   UNL     1      46.826   5.613  13.599  0.00  0.00    +0.000 A 
ATOM      4  C   UNL     1      47.658   6.714  13.371  0.00  0.00    +0.000 A 
ATOM      5  C   UNL     1      47.662   7.317  12.105  0.00  0.00    +0.000 A 
ATOM      6  C   UNL     1      46.803   6.868  11.101  0.00  0.00    +0.000 A 
ENDROOT
BRANCH   1   7
ATOM      7  C   UNL     1      44.996   5.307  10.275  0.00  0.00    +0.000 C 
BRANCH   7   9
ATOM      8  C   UNL     1      43.220   4.041  11.584  0.00  0.00    +0.000 C 
ATOM      9  N   UNL     1      44.222   4.085  10.523  0.00  0.00    +0.000 N 
ATOM     10  C   UNL     1      44.393   2.882   9.811  0.00  0.00    +0.000 C 
ATOM     11  O   UNL     1      43.687   1.896  10.034  0.00  0.00    +0.000 OA
BRANCH  10  12
ATOM     12  C   UNL     1      45.387   2.747   8.715  0.00  0.00    +0.000 A 
ATOM     13  C   UNL     1      46.102   1.590   8.408  0.00  0.00    +0.000 A 
ATOM     14  C   UNL     1      47.049   1.603   7.384  0.00  0.00    +0.000 A 
ATOM     15  C   UNL     1      47.199   2.761   6.644  0.00  0.00    +0.000 A 
ATOM     16  N   UNL     1      46.475   3.879   6.855  0.00  0.00    +0.000 NA
ATOM     17  C   UNL     1      45.581   3.844   7.879  0.00  0.00    +0.000 A 
ENDBRANCH  10  12
ENDBRANCH   7   9
ENDBRANCH   1   7
BRANCH   4  18
ATOM     18  C   UNL     1      48.560   7.231  14.459  0.00  0.00    +0.000 C 
BRANCH  18  19
ATOM     19  N   UNL     1      48.377   6.495  15.681  0.00  0.00    +0.000 N 
ATOM     20  C   UNL     1      49.453   6.021  16.383  0.00  0.00    +0.000 C 
ATOM     21  O   UNL     1      50.610   6.244  16.032  0.00  0.00    +0.000 OA
ATOM     22  H   UNL     1      47.454   6.109  15.854  0.00  0.00    +0.000 HD
BRANCH  20  23
ATOM     23  C   UNL     1      49.156   5.279  17.614  0.00  0.00    +0.000 A 
ATOM     24  C   UNL     1      48.753   3.953  17.533  0.00  0.00    +0.000 A 
ATOM     25  S   UNL     1      48.499   3.222  19.051  0.00  0.00    +0.000 S 
ATOM     26  C   UNL     1      48.870   4.666  19.869  0.00  0.00    +0.000 A 
ATOM     27  N   UNL     1      48.820   4.734  21.227  0.00  0.00    +0.000 NA
ATOM     28  C   UNL     1      49.102   5.893  21.715  0.00  0.00    +0.000 A 
ATOM     29  N   UNL     1      49.435   6.997  20.969  0.00  0.00    +0.000 N 
ATOM     30  C   UNL     1      49.522   6.969  19.599  0.00  0.00    +0.000 A 
ATOM     31  O   UNL     1      49.863   7.959  18.965  0.00  0.00    +0.000 OA
ATOM     32  C   UNL     1      49.202   5.686  18.997  0.00  0.00    +0.000 A 
ATOM     33  H   UNL     1      49.652   7.876  21.414  0.00  0.00    +0.000 HD
ENDBRANCH  20  23
ENDBRANCH  18  19
ENDBRANCH   4  18
TORSDOF 6
ENDMDL
MODEL 9
REMARK VINA RESULT:    -6.595      3.757      9.241
REMARK INTER + INTRA:          -9.974
REMARK INTER:                  -8.057
REMARK INTRA:                  -1.917
REMARK UNBOUND:                -1.066
REMARK  Name = 
REMARK  7 active torsions:
REMARK  status: ('A' for Active; 'I' for Inactive)
REMARK    1  A    between atoms: C_1  and  N_2
REMARK    2  A    between atoms: N_2  and  C_3
REMARK    3  A    between atoms: C_3  and  C_4
REMARK    4  A    between atoms: C_7  and  C_8
REMARK    5  A    between atoms: C_8  and  N_9
REMARK    6  A    between atoms: C_10  and  C_12
REMARK    7  A    between atoms: C_24  and  C_26
REMARK                            x       y       z     vdW  Elec       q    Type
REMARK                         _______ _______ _______ _____ _____    ______ ____
ROOT
ATOM      1  C   UNL     1      51.416   3.527  18.241  0.00  0.00    +0.000 A 
ATOM      2  C   UNL     1      50.523   4.562  18.565  0.00  0.00    +0.000 A 
ATOM      3  C   UNL     1      49.198   4.517  18.131  0.00  0.00    +0.000 A 
ATOM      4  C   UNL     1      48.741   3.433  17.374  0.00  0.00    +0.000 A 
ATOM      5  C   UNL     1      49.645   2.424  17.011  0.00  0.00    +0.000 A 
ATOM      6  C   UNL     1      50.969   2.464  17.450  0.00  0.00    +0.000 A 
ENDROOT
BRANCH   1   7
ATOM      7  C   UNL     1      52.837   3.578  18.737  0.00  0.00    +0.000 C 
BRANCH   7   9
ATOM      8  C   UNL     1      54.729   2.421  17.491  0.00  0.00    +0.000 C 
ATOM      9  N   UNL     1      53.925   3.612  17.754  0.00  0.00    +0.000 N 
ATOM     10  C   UNL     1      54.300   4.758  17.027  0.00  0.00    +0.000 C 
ATOM     11  O   UNL     1      55.198   4.720  16.183  0.00  0.00    +0.000 OA
BRANCH  10  12
ATOM     12  C   UNL     1      53.603   6.060  17.191  0.00  0.00    +0.000 A 
ATOM     13  C   UNL     1      52.613   6.561  16.346  0.00  0.00    +0.000 A 
ATOM     14  C   UNL     1      52.068   7.824  16.578  0.00  0.00    +0.000 A 
ATOM     15  C   UNL     1      52.479   8.521  17.699  0.00  0.00    +0.000 A 
ATOM     16  N   UNL     1      53.376   8.042  18.585  0.00  0.00    +0.000 NA
ATOM     17  C   UNL     1      53.910   6.821  18.316  0.00  0.00    +0.000 A 
ENDBRANCH  10  12
ENDBRANCH   7   9
ENDBRANCH   1   7
BRANCH   4  18
ATOM     18  C   UNL     1      47.305   3.360  16.929  0.00  0.00    +0.000 C 
BRANCH  18  19
ATOM     19  N   UNL     1      47.014   4.367  15.944  0.00  0.00    +0.000 N 
ATOM     20  C   UNL     1      47.070   4.077  14.606  0.00  0.00    +0.000 C 
ATOM     21  O   UNL     1      47.319   2.946  14.194  0.00  0.00    +0.000 OA
ATOM     22  H   UNL     1      47.039   5.334  16.250  0.00  0.00    +0.000 HD
BRANCH  20  23
ATOM     23  C   UNL     1      46.760   5.176  13.685  0.00  0.00    +0.000 A 
ATOM     24  C   UNL     1      45.640   5.090  12.870  0.00  0.00    +0.000 A 
ATOM     25  S   UNL     1      45.393   6.470  11.899  0.00  0.00    +0.000 S 
ATOM     26  C   UNL     1      46.802   7.210  12.499  0.00  0.00    +0.000 A 
ATOM     27  N   UNL     1      47.194   8.434  12.053  0.00  0.00    +0.000 NA
ATOM     28  C   UNL     1      48.291   8.867  12.573  0.00  0.00    +0.000 A 
ATOM     29  N   UNL     1      49.036   8.189  13.506  0.00  0.00    +0.000 N 
ATOM     30  C   UNL     1      48.667   6.963  14.003  0.00  0.00    +0.000 A 
ATOM     31  O   UNL     1      49.331   6.403  14.866  0.00  0.00    +0.000 OA
ATOM     32  C   UNL     1      47.441   6.424  13.440  0.00  0.00    +0.000 A 
ATOM     33  H   UNL     1      49.884   8.587  13.880  0.00  0.00    +0.000 HD
ENDBRANCH  20  23
ENDBRANCH  18  19
ENDBRANCH   4  18
TORSDOF 6
ENDMDL
