MODEL 1
REMARK VINA RESULT:    -7.403      0.000      0.000
REMARK INTER + INTRA:         -12.527
REMARK INTER:                 -11.298
REMARK INTRA:                  -1.229
REMARK UNBOUND:                -1.229
REMARK  Name = 
REMARK  10 active torsions:
REMARK  status: ('A' for Active; 'I' for Inactive)
REMARK    1  A    between atoms: C_1  and  C_2
REMARK    2  A    between atoms: C_2  and  C_3
REMARK    3  A    between atoms: C_3  and  N_4
REMARK    4  A    between atoms: C_3  and  C_21
REMARK    5  A    between atoms: N_4  and  C_5
REMARK    6  A    between atoms: C_5  and  C_6
REMARK    7  A    between atoms: C_9  and  C_10
REMARK    8  A    between atoms: C_10  and  O_11
REMARK    9  A    between atoms: O_11  and  C_12
REMARK   10  A    between atoms: C_12  and  C_13
REMARK                            x       y       z     vdW  Elec       q    Type
REMARK                         _______ _______ _______ _____ _____    ______ ____
ROOT
ATOM      1  N   UNL     1      48.074   5.736  15.259  0.00  0.00    +0.000 NA
ATOM      2  H   UNL     1      48.156   4.730  15.108  0.00  0.00    +0.000 HD
ENDROOT
BRANCH   1   3
ATOM      3  C   UNL     1      49.198   6.172  16.098  0.00  0.00    +0.000 C 
BRANCH   3   4
ATOM      4  C   UNL     1      48.676   6.643  17.442  0.00  0.00    +0.000 A 
ATOM      5  C   UNL     1      48.576   7.969  17.837  0.00  0.00    +0.000 A 
ATOM      6  S   UNL     1      48.655   8.133  19.542  0.00  0.00    +0.000 S 
ATOM      7  C   UNL     1      48.686   6.444  19.761  0.00  0.00    +0.000 A 
ATOM      8  N   UNL     1      48.936   5.871  20.969  0.00  0.00    +0.000 NA
ATOM      9  C   UNL     1      48.869   4.579  20.964  0.00  0.00    +0.000 A 
ATOM     10  N   UNL     1      48.515   3.812  19.881  0.00  0.00    +0.000 N 
ATOM     11  C   UNL     1      48.255   4.348  18.641  0.00  0.00    +0.000 A 
ATOM     12  O   UNL     1      47.870   3.657  17.703  0.00  0.00    +0.000 OA
ATOM     13  C   UNL     1      48.452   5.781  18.572  0.00  0.00    +0.000 A 
ATOM     14  H   UNL     1      48.384   2.816  19.973  0.00  0.00    +0.000 HD
ENDBRANCH   3   4
BRANCH   3  16
ATOM     15  C   UNL     1      51.514   7.266  15.699  0.00  0.00    +0.000 C 
ATOM     16  C   UNL     1      50.005   7.338  15.454  0.00  0.00    +0.000 C 
ENDBRANCH   3  16
ENDBRANCH   1   3
BRANCH   1  17
ATOM     17  C   UNL     1      48.081   6.386  13.940  0.00  0.00    +0.000 C 
BRANCH  17  18
ATOM     18  C   UNL     1      46.907   5.965  13.087  0.00  0.00    +0.000 A 
ATOM     19  C   UNL     1      46.758   6.472  11.790  0.00  0.00    +0.000 A 
ATOM     20  C   UNL     1      45.700   6.057  10.979  0.00  0.00    +0.000 A 
ATOM     21  C   UNL     1      44.769   5.120  11.446  0.00  0.00    +0.000 A 
ATOM     22  C   UNL     1      44.929   4.595  12.735  0.00  0.00    +0.000 A 
ATOM     23  C   UNL     1      45.990   5.010  13.546  0.00  0.00    +0.000 A 
BRANCH  21  24
ATOM     24  C   UNL     1      43.602   4.714  10.582  0.00  0.00    +0.000 C 
BRANCH  24  25
ATOM     25  O   UNL     1      44.081   4.242   9.327  0.00  0.00    +0.000 OA
BRANCH  25  26
ATOM     26  C   UNL     1      44.384   2.842   9.379  0.00  0.00    +0.000 C 
BRANCH  26  27
ATOM     27  C   UNL     1      45.564   2.504   8.498  0.00  0.00    +0.000 A 
ATOM     28  N   UNL     1      46.155   3.509   7.820  0.00  0.00    +0.000 NA
ATOM     29  C   UNL     1      47.176   3.172   7.010  0.00  0.00    +0.000 A 
ATOM     30  C   UNL     1      47.635   1.884   6.861  0.00  0.00    +0.000 A 
ATOM     31  C   UNL     1      46.980   0.928   7.594  0.00  0.00    +0.000 A 
ATOM     32  N   UNL     1      45.951   1.207   8.426  0.00  0.00    +0.000 NA
ENDBRANCH  26  27
ENDBRANCH  25  26
ENDBRANCH  24  25
ENDBRANCH  21  24
ENDBRANCH  17  18
ENDBRANCH   1  17
TORSDOF 9
ENDMDL
MODEL 2
REMARK VINA RESULT:    -7.104      1.933      3.030
REMARK INTER + INTRA:         -12.071
REMARK INTER:                 -11.027
REMARK INTRA:                  -1.044
REMARK UNBOUND:                -1.229
REMARK  Name = 
REMARK  10 active torsions:
REMARK  status: ('A' for Active; 'I' for Inactive)
REMARK    1  A    between atoms: C_1  and  C_2
REMARK    2  A    between atoms: C_2  and  C_3
REMARK    3  A    between atoms: C_3  and  N_4
REMARK    4  A    between atoms: C_3  and  C_21
REMARK    5  A    between atoms: N_4  and  C_5
REMARK    6  A    between atoms: C_5  and  C_6
REMARK    7  A    between atoms: C_9  and  C_10
REMARK    8  A    between atoms: C_10  and  O_11
REMARK    9  A    between atoms: O_11  and  C_12
REMARK   10  A    between atoms: C_12  and  C_13
REMARK                            x       y       z     vdW  Elec       q    Type
REMARK                         _______ _______ _______ _____ _____    ______ ____
ROOT
ATOM      1  N   UNL     1      48.270   7.137  16.663  0.00  0.00    +0.000 NA
ATOM      2  H   UNL     1      47.688   6.301  16.704  0.00  0.00    +0.000 HD
ENDROOT
BRANCH   1   3
ATOM      3  C   UNL     1      49.151   7.147  17.839  0.00  0.00    +0.000 C 
BRANCH   3   4
ATOM      4  C   UNL     1      49.717   5.758  18.060  0.00  0.00    +0.000 A 
ATOM      5  C   UNL     1      51.046   5.474  18.337  0.00  0.00    +0.000 A 
ATOM      6  S   UNL     1      51.480   3.894  17.830  0.00  0.00    +0.000 S 
ATOM      7  C   UNL     1      49.878   3.541  17.367  0.00  0.00    +0.000 A 
ATOM      8  N   UNL     1      49.552   2.418  16.674  0.00  0.00    +0.000 NA
ATOM      9  C   UNL     1      48.284   2.284  16.453  0.00  0.00    +0.000 A 
ATOM     10  N   UNL     1      47.309   3.134  16.915  0.00  0.00    +0.000 N 
ATOM     11  C   UNL     1      47.593   4.282  17.618  0.00  0.00    +0.000 A 
ATOM     12  O   UNL     1      46.709   4.993  18.084  0.00  0.00    +0.000 OA
ATOM     13  C   UNL     1      49.011   4.538  17.769  0.00  0.00    +0.000 A 
ATOM     14  H   UNL     1      46.332   2.917  16.792  0.00  0.00    +0.000 HD
ENDBRANCH   3   4
BRANCH   3  16
ATOM     15  C   UNL     1      47.303   8.615  18.910  0.00  0.00    +0.000 C 
ATOM     16  C   UNL     1      48.409   7.582  19.137  0.00  0.00    +0.000 C 
ENDBRANCH   3  16
ENDBRANCH   1   3
BRANCH   1  17
ATOM     17  C   UNL     1      49.029   7.090  15.403  0.00  0.00    +0.000 C 
BRANCH  17  18
ATOM     18  C   UNL     1      48.144   6.801  14.213  0.00  0.00    +0.000 A 
ATOM     19  C   UNL     1      47.420   5.603  14.146  0.00  0.00    +0.000 A 
ATOM     20  C   UNL     1      46.569   5.345  13.070  0.00  0.00    +0.000 A 
ATOM     21  C   UNL     1      46.417   6.281  12.039  0.00  0.00    +0.000 A 
ATOM     22  C   UNL     1      47.122   7.489  12.117  0.00  0.00    +0.000 A 
ATOM     23  C   UNL     1      47.974   7.748  13.195  0.00  0.00    +0.000 A 
BRANCH  21  24
ATOM     24  C   UNL     1      45.533   5.973  10.858  0.00  0.00    +0.000 C 
BRANCH  24  25
ATOM     25  O   UNL     1      45.029   4.646  10.974  0.00  0.00    +0.000 OA
BRANCH  25  26
ATOM     26  C   UNL     1      44.324   4.251   9.791  0.00  0.00    +0.000 C 
BRANCH  26  27
ATOM     27  C   UNL     1      45.230   3.508   8.835  0.00  0.00    +0.000 A 
ATOM     28  N   UNL     1      45.356   2.174   8.994  0.00  0.00    +0.000 NA
ATOM     29  C   UNL     1      46.203   1.546   8.157  0.00  0.00    +0.000 A 
ATOM     30  C   UNL     1      46.912   2.188   7.169  0.00  0.00    +0.000 A 
ATOM     31  C   UNL     1      46.717   3.541   7.076  0.00  0.00    +0.000 A 
ATOM     32  N   UNL     1      45.878   4.226   7.886  0.00  0.00    +0.000 NA
ENDBRANCH  26  27
ENDBRANCH  25  26
ENDBRANCH  24  25
ENDBRANCH  21  24
ENDBRANCH  17  18
ENDBRANCH   1  17
TORSDOF 9
ENDMDL
MODEL 3
REMARK VINA RESULT:    -7.046      1.814      2.316
REMARK INTER + INTRA:         -11.982
REMARK INTER:                 -11.100
REMARK INTRA:                  -0.882
REMARK UNBOUND:                -1.229
REMARK  Name = 
REMARK  10 active torsions:
REMARK  status: ('A' for Active; 'I' for Inactive)
REMARK    1  A    between atoms: C_1  and  C_2
REMARK    2  A    between atoms: C_2  and  C_3
REMARK    3  A    between atoms: C_3  and  N_4
REMARK    4  A    between atoms: C_3  and  C_21
REMARK    5  A    between atoms: N_4  and  C_5
REMARK    6  A    between atoms: C_5  and  C_6
REMARK    7  A    between atoms: C_9  and  C_10
REMARK    8  A    between atoms: C_10  and  O_11
REMARK    9  A    between atoms: O_11  and  C_12
REMARK   10  A    between atoms: C_12  and  C_13
REMARK                            x       y       z     vdW  Elec       q    Type
REMARK                         _______ _______ _______ _____ _____    ______ ____
ROOT
ATOM      1  N   UNL     1      48.374   6.172  15.008  0.00  0.00    +0.000 NA
ATOM      2  H   UNL     1      48.783   5.238  15.031  0.00  0.00    +0.000 HD
ENDROOT
BRANCH   1   3
ATOM      3  C   UNL     1      49.249   7.082  15.759  0.00  0.00    +0.000 C 
BRANCH   3   4
ATOM      4  C   UNL     1      50.127   6.278  16.700  0.00  0.00    +0.000 A 
ATOM      5  C   UNL     1      51.437   6.591  17.029  0.00  0.00    +0.000 A 
ATOM      6  S   UNL     1      52.331   5.200  17.481  0.00  0.00    +0.000 S 
ATOM      7  C   UNL     1      50.950   4.207  17.370  0.00  0.00    +0.000 A 
ATOM      8  N   UNL     1      51.021   2.851  17.447  0.00  0.00    +0.000 NA
ATOM      9  C   UNL     1      49.872   2.259  17.397  0.00  0.00    +0.000 A 
ATOM     10  N   UNL     1      48.658   2.899  17.341  0.00  0.00    +0.000 N 
ATOM     11  C   UNL     1      48.538   4.267  17.262  0.00  0.00    +0.000 A 
ATOM     12  O   UNL     1      47.447   4.826  17.285  0.00  0.00    +0.000 OA
ATOM     13  C   UNL     1      49.808   4.959  17.178  0.00  0.00    +0.000 A 
ATOM     14  H   UNL     1      47.796   2.379  17.407  0.00  0.00    +0.000 HD
ENDBRANCH   3   4
BRANCH   3  16
ATOM     15  C   UNL     1      48.444   9.531  16.022  0.00  0.00    +0.000 C 
ATOM     16  C   UNL     1      48.450   8.117  16.605  0.00  0.00    +0.000 C 
ENDBRANCH   3  16
ENDBRANCH   1   3
BRANCH   1  17
ATOM     17  C   UNL     1      48.247   6.566  13.596  0.00  0.00    +0.000 C 
BRANCH  17  18
ATOM     18  C   UNL     1      47.037   5.947  12.935  0.00  0.00    +0.000 A 
ATOM     19  C   UNL     1      46.606   6.402  11.682  0.00  0.00    +0.000 A 
ATOM     20  C   UNL     1      45.515   5.808  11.045  0.00  0.00    +0.000 A 
ATOM     21  C   UNL     1      44.833   4.741  11.644  0.00  0.00    +0.000 A 
ATOM     22  C   UNL     1      45.278   4.269  12.886  0.00  0.00    +0.000 A 
ATOM     23  C   UNL     1      46.371   4.863  13.524  0.00  0.00    +0.000 A 
BRANCH  21  24
ATOM     24  C   UNL     1      43.626   4.138  10.971  0.00  0.00    +0.000 C 
BRANCH  24  25
ATOM     25  O   UNL     1      43.962   3.764   9.639  0.00  0.00    +0.000 OA
BRANCH  25  26
ATOM     26  C   UNL     1      44.559   2.462   9.598  0.00  0.00    +0.000 C 
BRANCH  26  27
ATOM     27  C   UNL     1      45.623   2.381   8.527  0.00  0.00    +0.000 A 
ATOM     28  N   UNL     1      46.184   1.178   8.285  0.00  0.00    +0.000 NA
ATOM     29  C   UNL     1      47.159   1.145   7.357  0.00  0.00    +0.000 A 
ATOM     30  C   UNL     1      47.583   2.251   6.659  0.00  0.00    +0.000 A 
ATOM     31  C   UNL     1      46.952   3.429   6.965  0.00  0.00    +0.000 A 
ATOM     32  N   UNL     1      45.965   3.524   7.884  0.00  0.00    +0.000 NA
ENDBRANCH  26  27
ENDBRANCH  25  26
ENDBRANCH  24  25
ENDBRANCH  21  24
ENDBRANCH  17  18
ENDBRANCH   1  17
TORSDOF 9
ENDMDL
MODEL 4
REMARK VINA RESULT:    -6.928      3.550      5.412
REMARK INTER + INTRA:         -11.803
REMARK INTER:                 -10.287
REMARK INTRA:                  -1.516
REMARK UNBOUND:                -1.229
REMARK  Name = 
REMARK  10 active torsions:
REMARK  status: ('A' for Active; 'I' for Inactive)
REMARK    1  A    between atoms: C_1  and  C_2
REMARK    2  A    between atoms: C_2  and  C_3
REMARK    3  A    between atoms: C_3  and  N_4
REMARK    4  A    between atoms: C_3  and  C_21
REMARK    5  A    between atoms: N_4  and  C_5
REMARK    6  A    between atoms: C_5  and  C_6
REMARK    7  A    between atoms: C_9  and  C_10
REMARK    8  A    between atoms: C_10  and  O_11
REMARK    9  A    between atoms: O_11  and  C_12
REMARK   10  A    between atoms: C_12  and  C_13
REMARK                            x       y       z     vdW  Elec       q    Type
REMARK                         _______ _______ _______ _____ _____    ______ ____
ROOT
ATOM      1  N   UNL     1      47.649   7.300  14.422  0.00  0.00    +0.000 NA
ATOM      2  H   UNL     1      47.737   6.881  15.348  0.00  0.00    +0.000 HD
ENDROOT
BRANCH   1   3
ATOM      3  C   UNL     1      48.458   8.526  14.390  0.00  0.00    +0.000 C 
BRANCH   3   4
ATOM      4  C   UNL     1      48.463   9.093  12.983  0.00  0.00    +0.000 A 
ATOM      5  C   UNL     1      49.596   9.287  12.207  0.00  0.00    +0.000 A 
ATOM      6  S   UNL     1      49.374  10.537  11.054  0.00  0.00    +0.000 S 
ATOM      7  C   UNL     1      47.739  10.729  11.494  0.00  0.00    +0.000 A 
ATOM      8  N   UNL     1      46.979  11.760  11.037  0.00  0.00    +0.000 NA
ATOM      9  C   UNL     1      45.747  11.722  11.428  0.00  0.00    +0.000 A 
ATOM     10  N   UNL     1      45.190  10.717  12.181  0.00  0.00    +0.000 N 
ATOM     11  C   UNL     1      45.920   9.656  12.666  0.00  0.00    +0.000 A 
ATOM     12  O   UNL     1      45.394   8.731  13.276  0.00  0.00    +0.000 OA
ATOM     13  C   UNL     1      47.334   9.734  12.362  0.00  0.00    +0.000 A 
ATOM     14  H   UNL     1      44.199  10.697  12.367  0.00  0.00    +0.000 HD
ENDBRANCH   3   4
BRANCH   3  16
ATOM     15  C   UNL     1      50.337   8.993  16.112  0.00  0.00    +0.000 C 
ATOM     16  C   UNL     1      49.934   8.279  14.820  0.00  0.00    +0.000 C 
ENDBRANCH   3  16
ENDBRANCH   1   3
BRANCH   1  17
ATOM     17  C   UNL     1      48.108   6.308  13.438  0.00  0.00    +0.000 C 
BRANCH  17  18
ATOM     18  C   UNL     1      46.958   5.595  12.765  0.00  0.00    +0.000 A 
ATOM     19  C   UNL     1      46.417   4.434  13.332  0.00  0.00    +0.000 A 
ATOM     20  C   UNL     1      45.329   3.792  12.739  0.00  0.00    +0.000 A 
ATOM     21  C   UNL     1      44.752   4.300  11.568  0.00  0.00    +0.000 A 
ATOM     22  C   UNL     1      45.277   5.474  11.012  0.00  0.00    +0.000 A 
ATOM     23  C   UNL     1      46.367   6.118  11.607  0.00  0.00    +0.000 A 
BRANCH  21  24
ATOM     24  C   UNL     1      43.608   3.573  10.908  0.00  0.00    +0.000 C 
BRANCH  24  25
ATOM     25  O   UNL     1      43.951   3.271   9.559  0.00  0.00    +0.000 OA
BRANCH  25  26
ATOM     26  C   UNL     1      44.661   2.030   9.468  0.00  0.00    +0.000 C 
BRANCH  26  27
ATOM     27  C   UNL     1      45.748   2.097   8.419  0.00  0.00    +0.000 A 
ATOM     28  N   UNL     1      46.386   0.953   8.098  0.00  0.00    +0.000 NA
ATOM     29  C   UNL     1      47.378   1.050   7.193  0.00  0.00    +0.000 A 
ATOM     30  C   UNL     1      47.746   2.231   6.592  0.00  0.00    +0.000 A 
ATOM     31  C   UNL     1      47.038   3.341   6.972  0.00  0.00    +0.000 A 
ATOM     32  N   UNL     1      46.030   3.305   7.873  0.00  0.00    +0.000 NA
ENDBRANCH  26  27
ENDBRANCH  25  26
ENDBRANCH  24  25
ENDBRANCH  21  24
ENDBRANCH  17  18
ENDBRANCH   1  17
TORSDOF 9
ENDMDL
MODEL 5
REMARK VINA RESULT:    -6.628      1.915      2.346
REMARK INTER + INTRA:         -11.344
REMARK INTER:                 -10.202
REMARK INTRA:                  -1.143
REMARK UNBOUND:                -1.229
REMARK  Name = 
REMARK  10 active torsions:
REMARK  status: ('A' for Active; 'I' for Inactive)
REMARK    1  A    between atoms: C_1  and  C_2
REMARK    2  A    between atoms: C_2  and  C_3
REMARK    3  A    between atoms: C_3  and  N_4
REMARK    4  A    between atoms: C_3  and  C_21
REMARK    5  A    between atoms: N_4  and  C_5
REMARK    6  A    between atoms: C_5  and  C_6
REMARK    7  A    between atoms: C_9  and  C_10
REMARK    8  A    between atoms: C_10  and  O_11
REMARK    9  A    between atoms: O_11  and  C_12
REMARK   10  A    between atoms: C_12  and  C_13
REMARK                            x       y       z     vdW  Elec       q    Type
REMARK                         _______ _______ _______ _____ _____    ______ ____
ROOT
ATOM      1  N   UNL     1      48.127   7.288  14.761  0.00  0.00    +0.000 NA
ATOM      2  H   UNL     1      47.352   6.787  15.195  0.00  0.00    +0.000 HD
ENDROOT
BRANCH   1   3
ATOM      3  C   UNL     1      49.266   7.273  15.689  0.00  0.00    +0.000 C 
BRANCH   3   4
ATOM      4  C   UNL     1      49.268   5.971  16.468  0.00  0.00    +0.000 A 
ATOM      5  C   UNL     1      48.145   5.203  16.738  0.00  0.00    +0.000 A 
ATOM      6  S   UNL     1      48.340   4.266  18.161  0.00  0.00    +0.000 S 
ATOM      7  C   UNL     1      49.956   4.777  18.343  0.00  0.00    +0.000 A 
ATOM      8  N   UNL     1      50.682   4.507  19.461  0.00  0.00    +0.000 NA
ATOM      9  C   UNL     1      51.905   4.923  19.409  0.00  0.00    +0.000 A 
ATOM     10  N   UNL     1      52.487   5.526  18.321  0.00  0.00    +0.000 N 
ATOM     11  C   UNL     1      51.792   5.819  17.170  0.00  0.00    +0.000 A 
ATOM     12  O   UNL     1      52.342   6.292  16.181  0.00  0.00    +0.000 OA
ATOM     13  C   UNL     1      50.383   5.490  17.241  0.00  0.00    +0.000 A 
ATOM     14  H   UNL     1      53.474   5.735  18.310  0.00  0.00    +0.000 HD
ENDBRANCH   3   4
BRANCH   3  16
ATOM     15  C   UNL     1      50.438   9.376  16.649  0.00  0.00    +0.000 C 
ATOM     16  C   UNL     1      49.221   8.449  16.708  0.00  0.00    +0.000 C 
ENDBRANCH   3  16
ENDBRANCH   1   3
BRANCH   1  17
ATOM     17  C   UNL     1      48.438   6.612  13.491  0.00  0.00    +0.000 C 
BRANCH  17  18
ATOM     18  C   UNL     1      47.208   6.024  12.839  0.00  0.00    +0.000 A 
ATOM     19  C   UNL     1      46.515   4.974  13.456  0.00  0.00    +0.000 A 
ATOM     20  C   UNL     1      45.355   4.452  12.881  0.00  0.00    +0.000 A 
ATOM     21  C   UNL     1      44.857   4.972  11.680  0.00  0.00    +0.000 A 
ATOM     22  C   UNL     1      45.536   6.037  11.074  0.00  0.00    +0.000 A 
ATOM     23  C   UNL     1      46.698   6.561  11.650  0.00  0.00    +0.000 A 
BRANCH  21  24
ATOM     24  C   UNL     1      43.631   4.370  11.042  0.00  0.00    +0.000 C 
BRANCH  24  25
ATOM     25  O   UNL     1      43.917   4.030   9.690  0.00  0.00    +0.000 OA
BRANCH  25  26
ATOM     26  C   UNL     1      44.382   2.679   9.580  0.00  0.00    +0.000 C 
BRANCH  26  27
ATOM     27  C   UNL     1      45.487   2.561   8.556  0.00  0.00    +0.000 A 
ATOM     28  N   UNL     1      45.800   3.658   7.836  0.00  0.00    +0.000 NA
ATOM     29  C   UNL     1      46.758   3.512   6.901  0.00  0.00    +0.000 A 
ATOM     30  C   UNL     1      47.420   2.329   6.669  0.00  0.00    +0.000 A 
ATOM     31  C   UNL     1      47.042   1.269   7.452  0.00  0.00    +0.000 A 
ATOM     32  N   UNL     1      46.090   1.356   8.408  0.00  0.00    +0.000 NA
ENDBRANCH  26  27
ENDBRANCH  25  26
ENDBRANCH  24  25
ENDBRANCH  21  24
ENDBRANCH  17  18
ENDBRANCH   1  17
TORSDOF 9
ENDMDL
MODEL 6
REMARK VINA RESULT:    -6.626      2.947      8.714
REMARK INTER + INTRA:         -11.341
REMARK INTER:                  -9.790
REMARK INTRA:                  -1.551
REMARK UNBOUND:                -1.229
REMARK  Name = 
REMARK  10 active torsions:
REMARK  status: ('A' for Active; 'I' for Inactive)
REMARK    1  A    between atoms: C_1  and  C_2
REMARK    2  A    between atoms: C_2  and  C_3
REMARK    3  A    between atoms: C_3  and  N_4
REMARK    4  A    between atoms: C_3  and  C_21
REMARK    5  A    between atoms: N_4  and  C_5
REMARK    6  A    between atoms: C_5  and  C_6
REMARK    7  A    between atoms: C_9  and  C_10
REMARK    8  A    between atoms: C_10  and  O_11
REMARK    9  A    between atoms: O_11  and  C_12
REMARK   10  A    between atoms: C_12  and  C_13
REMARK                            x       y       z     vdW  Elec       q    Type
REMARK                         _______ _______ _______ _____ _____    ______ ____
ROOT
ATOM      1  N   UNL     1      45.241   7.001  12.374  0.00  0.00    +0.000 NA
ATOM      2  H   UNL     1      44.477   7.087  11.704  0.00  0.00    +0.000 HD
ENDROOT
BRANCH   1   3
ATOM      3  C   UNL     1      45.782   5.637  12.288  0.00  0.00    +0.000 C 
BRANCH   3   4
ATOM      4  C   UNL     1      44.759   4.727  11.635  0.00  0.00    +0.000 A 
ATOM      5  C   UNL     1      43.722   4.089  12.299  0.00  0.00    +0.000 A 
ATOM      6  S   UNL     1      43.235   2.655  11.494  0.00  0.00    +0.000 S 
ATOM      7  C   UNL     1      44.306   2.950  10.202  0.00  0.00    +0.000 A 
ATOM      8  N   UNL     1      44.550   2.026   9.234  0.00  0.00    +0.000 NA
ATOM      9  C   UNL     1      45.347   2.436   8.302  0.00  0.00    +0.000 A 
ATOM     10  N   UNL     1      45.871   3.702   8.213  0.00  0.00    +0.000 N 
ATOM     11  C   UNL     1      45.652   4.668   9.168  0.00  0.00    +0.000 A 
ATOM     12  O   UNL     1      46.068   5.815   9.039  0.00  0.00    +0.000 OA
ATOM     13  C   UNL     1      44.874   4.204  10.299  0.00  0.00    +0.000 A 
ATOM     14  H   UNL     1      46.405   3.987   7.406  0.00  0.00    +0.000 HD
ENDBRANCH   3   4
BRANCH   3  16
ATOM     15  C   UNL     1      46.963   3.760  13.627  0.00  0.00    +0.000 C 
ATOM     16  C   UNL     1      46.137   5.046  13.684  0.00  0.00    +0.000 C 
ENDBRANCH   3  16
ENDBRANCH   1   3
BRANCH   1  17
ATOM     17  C   UNL     1      46.248   8.018  12.034  0.00  0.00    +0.000 C 
BRANCH  17  18
ATOM     18  C   UNL     1      47.451   7.960  12.946  0.00  0.00    +0.000 A 
ATOM     19  C   UNL     1      47.361   8.421  14.265  0.00  0.00    +0.000 A 
ATOM     20  C   UNL     1      48.456   8.333  15.127  0.00  0.00    +0.000 A 
ATOM     21  C   UNL     1      49.665   7.777  14.691  0.00  0.00    +0.000 A 
ATOM     22  C   UNL     1      49.750   7.295  13.378  0.00  0.00    +0.000 A 
ATOM     23  C   UNL     1      48.653   7.381  12.515  0.00  0.00    +0.000 A 
BRANCH  21  24
ATOM     24  C   UNL     1      50.857   7.731  15.613  0.00  0.00    +0.000 C 
BRANCH  24  25
ATOM     25  O   UNL     1      51.156   6.377  15.936  0.00  0.00    +0.000 OA
BRANCH  25  26
ATOM     26  C   UNL     1      50.709   6.046  17.257  0.00  0.00    +0.000 C 
BRANCH  26  27
ATOM     27  C   UNL     1      49.603   5.016  17.219  0.00  0.00    +0.000 A 
ATOM     28  N   UNL     1      48.330   5.452  17.313  0.00  0.00    +0.000 NA
ATOM     29  C   UNL     1      47.370   4.509  17.321  0.00  0.00    +0.000 A 
ATOM     30  C   UNL     1      47.626   3.161  17.226  0.00  0.00    +0.000 A 
ATOM     31  C   UNL     1      48.947   2.810  17.126  0.00  0.00    +0.000 A 
ATOM     32  N   UNL     1      49.955   3.711  17.110  0.00  0.00    +0.000 NA
ENDBRANCH  26  27
ENDBRANCH  25  26
ENDBRANCH  24  25
ENDBRANCH  21  24
ENDBRANCH  17  18
ENDBRANCH   1  17
TORSDOF 9
ENDMDL
MODEL 7
REMARK VINA RESULT:    -6.480      1.402      2.199
REMARK INTER + INTRA:         -11.119
REMARK INTER:                 -10.204
REMARK INTRA:                  -0.915
REMARK UNBOUND:                -1.229
REMARK  Name = 
REMARK  10 active torsions:
REMARK  status: ('A' for Active; 'I' for Inactive)
REMARK    1  A    between atoms: C_1  and  C_2
REMARK    2  A    between atoms: C_2  and  C_3
REMARK    3  A    between atoms: C_3  and  N_4
REMARK    4  A    between atoms: C_3  and  C_21
REMARK    5  A    between atoms: N_4  and  C_5
REMARK    6  A    between atoms: C_5  and  C_6
REMARK    7  A    between atoms: C_9  and  C_10
REMARK    8  A    between atoms: C_10  and  O_11
REMARK    9  A    between atoms: O_11  and  C_12
REMARK   10  A    between atoms: C_12  and  C_13
REMARK                            x       y       z     vdW  Elec       q    Type
REMARK                         _______ _______ _______ _____ _____    ______ ____
ROOT
ATOM      1  N   UNL     1      49.278   5.822  15.577  0.00  0.00    +0.000 NA
ATOM      2  H   UNL     1      50.157   6.304  15.764  0.00  0.00    +0.000 HD
ENDROOT
BRANCH   1   3
ATOM      3  C   UNL     1      48.733   5.337  16.852  0.00  0.00    +0.000 C 
BRANCH   3   4
ATOM      4  C   UNL     1      49.122   6.292  17.965  0.00  0.00    +0.000 A 
ATOM      5  C   UNL     1      50.283   7.050  17.994  0.00  0.00    +0.000 A 
ATOM      6  S   UNL     1      50.760   7.426  19.598  0.00  0.00    +0.000 S 
ATOM      7  C   UNL     1      49.360   6.700  20.244  0.00  0.00    +0.000 A 
ATOM      8  N   UNL     1      49.198   6.493  21.578  0.00  0.00    +0.000 NA
ATOM      9  C   UNL     1      48.055   5.979  21.897  0.00  0.00    +0.000 A 
ATOM     10  N   UNL     1      47.036   5.713  21.015  0.00  0.00    +0.000 N 
ATOM     11  C   UNL     1      47.156   5.906  19.658  0.00  0.00    +0.000 A 
ATOM     12  O   UNL     1      46.214   5.732  18.892  0.00  0.00    +0.000 OA
ATOM     13  C   UNL     1      48.471   6.353  19.247  0.00  0.00    +0.000 A 
ATOM     14  H   UNL     1      46.133   5.407  21.344  0.00  0.00    +0.000 HD
ENDBRANCH   3   4
BRANCH   3  16
ATOM     15  C   UNL     1      48.254   2.793  16.964  0.00  0.00    +0.000 C 
ATOM     16  C   UNL     1      49.257   3.919  17.225  0.00  0.00    +0.000 C 
ENDBRANCH   3  16
ENDBRANCH   1   3
BRANCH   1  17
ATOM     17  C   UNL     1      48.376   6.780  14.918  0.00  0.00    +0.000 C 
BRANCH  17  18
ATOM     18  C   UNL     1      47.475   6.115  13.904  0.00  0.00    +0.000 A 
ATOM     19  C   UNL     1      46.838   4.906  14.211  0.00  0.00    +0.000 A 
ATOM     20  C   UNL     1      45.972   4.305  13.296  0.00  0.00    +0.000 A 
ATOM     21  C   UNL     1      45.717   4.903  12.055  0.00  0.00    +0.000 A 
ATOM     22  C   UNL     1      46.335   6.124  11.756  0.00  0.00    +0.000 A 
ATOM     23  C   UNL     1      47.203   6.727  12.673  0.00  0.00    +0.000 A 
BRANCH  21  24
ATOM     24  C   UNL     1      44.818   4.222  11.054  0.00  0.00    +0.000 C 
BRANCH  24  25
ATOM     25  O   UNL     1      44.896   4.902   9.806  0.00  0.00    +0.000 OA
BRANCH  25  26
ATOM     26  C   UNL     1      44.375   4.097   8.741  0.00  0.00    +0.000 C 
BRANCH  26  27
ATOM     27  C   UNL     1      45.458   3.246   8.118  0.00  0.00    +0.000 A 
ATOM     28  N   UNL     1      45.531   1.950   8.482  0.00  0.00    +0.000 NA
ATOM     29  C   UNL     1      46.532   1.228   7.943  0.00  0.00    +0.000 A 
ATOM     30  C   UNL     1      47.447   1.742   7.054  0.00  0.00    +0.000 A 
ATOM     31  C   UNL     1      47.292   3.066   6.736  0.00  0.00    +0.000 A 
ATOM     32  N   UNL     1      46.305   3.840   7.241  0.00  0.00    +0.000 NA
ENDBRANCH  26  27
ENDBRANCH  25  26
ENDBRANCH  24  25
ENDBRANCH  21  24
ENDBRANCH  17  18
ENDBRANCH   1  17
TORSDOF 9
ENDMDL
MODEL 8
REMARK VINA RESULT:    -6.414      2.752      3.666
REMARK INTER + INTRA:         -11.018
REMARK INTER:                  -9.972
REMARK INTRA:                  -1.045
REMARK UNBOUND:                -1.229
REMARK  Name = 
REMARK  10 active torsions:
REMARK  status: ('A' for Active; 'I' for Inactive)
REMARK    1  A    between atoms: C_1  and  C_2
REMARK    2  A    between atoms: C_2  and  C_3
REMARK    3  A    between atoms: C_3  and  N_4
REMARK    4  A    between atoms: C_3  and  C_21
REMARK    5  A    between atoms: N_4  and  C_5
REMARK    6  A    between atoms: C_5  and  C_6
REMARK    7  A    between atoms: C_9  and  C_10
REMARK    8  A    between atoms: C_10  and  O_11
REMARK    9  A    between atoms: O_11  and  C_12
REMARK   10  A    between atoms: C_12  and  C_13
REMARK                            x       y       z     vdW  Elec       q    Type
REMARK                         _______ _______ _______ _____ _____    ______ ____
ROOT
ATOM      1  N   UNL     1      48.080   5.533  17.107  0.00  0.00    +0.000 NA
ATOM      2  H   UNL     1      47.522   4.708  16.886  0.00  0.00    +0.000 HD
ENDROOT
BRANCH   1   3
ATOM      3  C   UNL     1      49.073   5.163  18.124  0.00  0.00    +0.000 C 
BRANCH   3   4
ATOM      4  C   UNL     1      49.998   4.099  17.566  0.00  0.00    +0.000 A 
ATOM      5  C   UNL     1      49.617   2.806  17.235  0.00  0.00    +0.000 A 
ATOM      6  S   UNL     1      50.931   1.709  17.334  0.00  0.00    +0.000 S 
ATOM      7  C   UNL     1      52.028   2.966  17.684  0.00  0.00    +0.000 A 
ATOM      8  N   UNL     1      53.309   2.726  18.072  0.00  0.00    +0.000 NA
ATOM      9  C   UNL     1      54.016   3.795  18.244  0.00  0.00    +0.000 A 
ATOM     10  N   UNL     1      53.582   5.075  18.004  0.00  0.00    +0.000 N 
ATOM     11  C   UNL     1      52.296   5.365  17.612  0.00  0.00    +0.000 A 
ATOM     12  O   UNL     1      51.943   6.506  17.332  0.00  0.00    +0.000 OA
ATOM     13  C   UNL     1      51.433   4.203  17.539  0.00  0.00    +0.000 A 
ATOM     14  H   UNL     1      54.217   5.857  18.062  0.00  0.00    +0.000 HD
ENDBRANCH   3   4
BRANCH   3  16
ATOM     15  C   UNL     1      49.267   4.797  20.682  0.00  0.00    +0.000 C 
ATOM     16  C   UNL     1      48.419   4.606  19.423  0.00  0.00    +0.000 C 
ENDBRANCH   3  16
ENDBRANCH   1   3
BRANCH   1  17
ATOM     17  C   UNL     1      48.709   5.991  15.858  0.00  0.00    +0.000 C 
BRANCH  17  18
ATOM     18  C   UNL     1      47.786   5.859  14.669  0.00  0.00    +0.000 A 
ATOM     19  C   UNL     1      47.832   6.798  13.631  0.00  0.00    +0.000 A 
ATOM     20  C   UNL     1      47.012   6.661  12.509  0.00  0.00    +0.000 A 
ATOM     21  C   UNL     1      46.130   5.579  12.398  0.00  0.00    +0.000 A 
ATOM     22  C   UNL     1      46.099   4.627  13.425  0.00  0.00    +0.000 A 
ATOM     23  C   UNL     1      46.922   4.763  14.548  0.00  0.00    +0.000 A 
BRANCH  21  24
ATOM     24  C   UNL     1      45.214   5.465  11.206  0.00  0.00    +0.000 C 
BRANCH  24  25
ATOM     25  O   UNL     1      44.722   4.133  11.109  0.00  0.00    +0.000 OA
BRANCH  25  26
ATOM     26  C   UNL     1      44.111   3.895   9.835  0.00  0.00    +0.000 C 
BRANCH  26  27
ATOM     27  C   UNL     1      45.110   3.342   8.844  0.00  0.00    +0.000 A 
ATOM     28  N   UNL     1      45.385   2.023   8.894  0.00  0.00    +0.000 NA
ATOM     29  C   UNL     1      46.310   1.567   8.028  0.00  0.00    +0.000 A 
ATOM     30  C   UNL     1      46.956   2.367   7.114  0.00  0.00    +0.000 A 
ATOM     31  C   UNL     1      46.608   3.693   7.130  0.00  0.00    +0.000 A 
ATOM     32  N   UNL     1      45.685   4.207   7.973  0.00  0.00    +0.000 NA
ENDBRANCH  26  27
ENDBRANCH  25  26
ENDBRANCH  24  25
ENDBRANCH  21  24
ENDBRANCH  17  18
ENDBRANCH   1  17
TORSDOF 9
ENDMDL
MODEL 9
REMARK VINA RESULT:    -6.286      3.285      8.505
REMARK INTER + INTRA:         -10.822
REMARK INTER:                  -9.427
REMARK INTRA:                  -1.395
REMARK UNBOUND:                -1.229
REMARK  Name = 
REMARK  10 active torsions:
REMARK  status: ('A' for Active; 'I' for Inactive)
REMARK    1  A    between atoms: C_1  and  C_2
REMARK    2  A    between atoms: C_2  and  C_3
REMARK    3  A    between atoms: C_3  and  N_4
REMARK    4  A    between atoms: C_3  and  C_21
REMARK    5  A    between atoms: N_4  and  C_5
REMARK    6  A    between atoms: C_5  and  C_6
REMARK    7  A    between atoms: C_9  and  C_10
REMARK    8  A    between atoms: C_10  and  O_11
REMARK    9  A    between atoms: O_11  and  C_12
REMARK   10  A    between atoms: C_12  and  C_13
REMARK                            x       y       z     vdW  Elec       q    Type
REMARK                         _______ _______ _______ _____ _____    ______ ____
ROOT
ATOM      1  N   UNL     1      47.614   6.991  11.552  0.00  0.00    +0.000 NA
ATOM      2  H   UNL     1      48.222   6.274  11.948  0.00  0.00    +0.000 HD
ENDROOT
BRANCH   1   3
ATOM      3  C   UNL     1      46.218   6.597  11.787  0.00  0.00    +0.000 C 
BRANCH   3   4
ATOM      4  C   UNL     1      45.863   5.429  10.887  0.00  0.00    +0.000 A 
ATOM      5  C   UNL     1      45.856   5.465   9.500  0.00  0.00    +0.000 A 
ATOM      6  S   UNL     1      44.774   4.312   8.837  0.00  0.00    +0.000 S 
ATOM      7  C   UNL     1      44.416   3.678  10.378  0.00  0.00    +0.000 A 
ATOM      8  N   UNL     1      43.416   2.779  10.579  0.00  0.00    +0.000 NA
ATOM      9  C   UNL     1      43.318   2.364  11.801  0.00  0.00    +0.000 A 
ATOM     10  N   UNL     1      44.166   2.715  12.823  0.00  0.00    +0.000 N 
ATOM     11  C   UNL     1      45.190   3.620  12.665  0.00  0.00    +0.000 A 
ATOM     12  O   UNL     1      45.981   3.869  13.568  0.00  0.00    +0.000 OA
ATOM     13  C   UNL     1      45.247   4.211  11.343  0.00  0.00    +0.000 A 
ATOM     14  H   UNL     1      44.095   2.277  13.728  0.00  0.00    +0.000 HD
ENDBRANCH   3   4
BRANCH   3  16
ATOM     15  C   UNL     1      43.750   7.313  11.453  0.00  0.00    +0.000 C 
ATOM     16  C   UNL     1      45.215   7.753  11.502  0.00  0.00    +0.000 C 
ENDBRANCH   3  16
ENDBRANCH   1   3
BRANCH   1  17
ATOM     17  C   UNL     1      47.946   8.267  12.204  0.00  0.00    +0.000 C 
BRANCH  17  18
ATOM     18  C   UNL     1      48.232   8.100  13.678  0.00  0.00    +0.000 A 
ATOM     19  C   UNL     1      48.909   6.964  14.142  0.00  0.00    +0.000 A 
ATOM     20  C   UNL     1      49.214   6.820  15.497  0.00  0.00    +0.000 A 
ATOM     21  C   UNL     1      48.854   7.812  16.418  0.00  0.00    +0.000 A 
ATOM     22  C   UNL     1      48.197   8.958  15.953  0.00  0.00    +0.000 A 
ATOM     23  C   UNL     1      47.893   9.103  14.595  0.00  0.00    +0.000 A 
BRANCH  21  24
ATOM     24  C   UNL     1      49.144   7.625  17.886  0.00  0.00    +0.000 C 
BRANCH  24  25
ATOM     25  O   UNL     1      47.934   7.327  18.575  0.00  0.00    +0.000 OA
BRANCH  25  26
ATOM     26  C   UNL     1      48.069   6.146  19.376  0.00  0.00    +0.000 C 
BRANCH  26  27
ATOM     27  C   UNL     1      48.130   4.905  18.515  0.00  0.00    +0.000 A 
ATOM     28  N   UNL     1      49.275   4.194  18.514  0.00  0.00    +0.000 NA
ATOM     29  C   UNL     1      49.316   3.118  17.705  0.00  0.00    +0.000 A 
ATOM     30  C   UNL     1      48.263   2.721  16.914  0.00  0.00    +0.000 A 
ATOM     31  C   UNL     1      47.137   3.500  16.984  0.00  0.00    +0.000 A 
ATOM     32  N   UNL     1      47.036   4.588  17.780  0.00  0.00    +0.000 NA
ENDBRANCH  26  27
ENDBRANCH  25  26
ENDBRANCH  24  25
ENDBRANCH  21  24
ENDBRANCH  17  18
ENDBRANCH   1  17
TORSDOF 9
ENDMDL
