MODEL 1
REMARK VINA RESULT:    -7.298      0.000      0.000
REMARK INTER + INTRA:         -11.180
REMARK INTER:                 -10.071
REMARK INTRA:                  -1.110
REMARK UNBOUND:                -1.110
REMARK  Name = 
REMARK  8 active torsions:
REMARK  status: ('A' for Active; 'I' for Inactive)
REMARK    1  A    between atoms: C_1  and  N_2
REMARK    2  A    between atoms: N_2  and  C_3
REMARK    3  A    between atoms: C_3  and  C_4
REMARK    4  A    between atoms: C_7  and  C_8
REMARK    5  A    between atoms: C_8  and  C_9
REMARK    6  A    between atoms: C_9  and  O_10
REMARK    7  A    between atoms: C_9  and  C_11
REMARK    8  A    between atoms: C_19  and  C_21
REMARK                            x       y       z     vdW  Elec       q    Type
REMARK                         _______ _______ _______ _____ _____    ______ ____
ROOT
ATOM      1  C   UNL     1      47.350   7.497  13.809  0.00  0.00    +0.000 C 
ENDROOT
BRANCH   1   2
ATOM      2  C   UNL     1      46.671   6.527  12.880  0.00  0.00    +0.000 A 
ATOM      3  C   UNL     1      46.172   5.305  13.322  0.00  0.00    +0.000 A 
ATOM      4  C   UNL     1      45.458   4.494  12.440  0.00  0.00    +0.000 A 
ATOM      5  C   UNL     1      45.260   4.930  11.132  0.00  0.00    +0.000 A 
ATOM      6  N   UNL     1      45.784   6.089  10.668  0.00  0.00    +0.000 NA
ATOM      7  C   UNL     1      46.471   6.854  11.543  0.00  0.00    +0.000 A 
BRANCH   5   8
ATOM      8  C   UNL     1      44.408   4.148  10.163  0.00  0.00    +0.000 C 
BRANCH   8   9
ATOM      9  C   UNL     1      44.910   2.706   9.971  0.00  0.00    +0.000 C 
BRANCH   9  10
ATOM     10  C   UNL     1      45.650   2.481   8.663  0.00  0.00    +0.000 A 
ATOM     11  C   UNL     1      45.772   3.534   7.771  0.00  0.00    +0.000 A 
ATOM     12  C   UNL     1      46.487   3.286   6.623  0.00  0.00    +0.000 A 
ATOM     13  N   UNL     1      47.046   2.098   6.339  0.00  0.00    +0.000 NA
ATOM     14  C   UNL     1      46.873   1.143   7.263  0.00  0.00    +0.000 A 
ATOM     15  N   UNL     1      46.199   1.270   8.419  0.00  0.00    +0.000 NA
ENDBRANCH   9  10
BRANCH   9  16
ATOM     16  O   UNL     1      43.825   1.767  10.020  0.00  0.00    +0.000 OA
ATOM     17  H   UNL     1      43.361   1.921  10.864  0.00  0.00    +0.000 HD
ENDBRANCH   9  16
ENDBRANCH   8   9
ENDBRANCH   5   8
ENDBRANCH   1   2
BRANCH   1  19
ATOM     18  C   UNL     1      49.612   7.945  12.822  0.00  0.00    +0.000 C 
ATOM     19  N   UNL     1      48.795   7.398  13.897  0.00  0.00    +0.000 N 
ATOM     20  C   UNL     1      49.494   7.127  15.087  0.00  0.00    +0.000 C 
ATOM     21  O   UNL     1      50.701   6.904  15.061  0.00  0.00    +0.000 OA
BRANCH  20  22
ATOM     22  C   UNL     1      48.831   7.273  16.395  0.00  0.00    +0.000 A 
ATOM     23  C   UNL     1      48.581   8.466  17.052  0.00  0.00    +0.000 A 
ATOM     24  S   UNL     1      48.224   8.267  18.714  0.00  0.00    +0.000 S 
ATOM     25  C   UNL     1      48.405   6.580  18.599  0.00  0.00    +0.000 A 
ATOM     26  N   UNL     1      48.389   5.784  19.701  0.00  0.00    +0.000 NA
ATOM     27  C   UNL     1      48.519   4.524  19.441  0.00  0.00    +0.000 A 
ATOM     28  N   UNL     1      48.602   3.986  18.180  0.00  0.00    +0.000 N 
ATOM     29  C   UNL     1      48.529   4.749  17.035  0.00  0.00    +0.000 A 
ATOM     30  O   UNL     1      48.348   4.243  15.934  0.00  0.00    +0.000 OA
ATOM     31  C   UNL     1      48.558   6.175  17.288  0.00  0.00    +0.000 A 
ATOM     32  H   UNL     1      48.568   2.987  18.046  0.00  0.00    +0.000 HD
ENDBRANCH  20  22
ENDBRANCH   1  19
TORSDOF 7
ENDMDL
MODEL 2
REMARK VINA RESULT:    -7.184      4.166      6.152
REMARK INTER + INTRA:         -11.024
REMARK INTER:                 -11.030
REMARK INTRA:                   0.006
REMARK UNBOUND:                -1.110
REMARK  Name = 
REMARK  8 active torsions:
REMARK  status: ('A' for Active; 'I' for Inactive)
REMARK    1  A    between atoms: C_1  and  N_2
REMARK    2  A    between atoms: N_2  and  C_3
REMARK    3  A    between atoms: C_3  and  C_4
REMARK    4  A    between atoms: C_7  and  C_8
REMARK    5  A    between atoms: C_8  and  C_9
REMARK    6  A    between atoms: C_9  and  O_10
REMARK    7  A    between atoms: C_9  and  C_11
REMARK    8  A    between atoms: C_19  and  C_21
REMARK                            x       y       z     vdW  Elec       q    Type
REMARK                         _______ _______ _______ _____ _____    ______ ____
ROOT
ATOM      1  C   UNL     1      43.928   4.614  10.399  0.00  0.00    +0.000 C 
ENDROOT
BRANCH   1   2
ATOM      2  C   UNL     1      44.692   3.758   9.427  0.00  0.00    +0.000 A 
ATOM      3  C   UNL     1      45.492   4.306   8.427  0.00  0.00    +0.000 A 
ATOM      4  C   UNL     1      46.262   3.465   7.624  0.00  0.00    +0.000 A 
ATOM      5  C   UNL     1      46.211   2.090   7.842  0.00  0.00    +0.000 A 
ATOM      6  N   UNL     1      45.398   1.534   8.771  0.00  0.00    +0.000 NA
ATOM      7  C   UNL     1      44.664   2.370   9.534  0.00  0.00    +0.000 A 
BRANCH   5   8
ATOM      8  C   UNL     1      47.097   1.139   7.076  0.00  0.00    +0.000 C 
BRANCH   8   9
ATOM      9  C   UNL     1      47.401   1.637   5.652  0.00  0.00    +0.000 C 
BRANCH   9  10
ATOM     10  C   UNL     1      46.910   0.703   4.557  0.00  0.00    +0.000 A 
ATOM     11  C   UNL     1      46.163   1.224   3.514  0.00  0.00    +0.000 A 
ATOM     12  C   UNL     1      45.780   0.343   2.531  0.00  0.00    +0.000 A 
ATOM     13  N   UNL     1      46.088  -0.965   2.548  0.00  0.00    +0.000 NA
ATOM     14  C   UNL     1      46.814  -1.375   3.597  0.00  0.00    +0.000 A 
ATOM     15  N   UNL     1      47.245  -0.606   4.612  0.00  0.00    +0.000 NA
ENDBRANCH   9  10
BRANCH   9  16
ATOM     16  O   UNL     1      48.810   1.827   5.457  0.00  0.00    +0.000 OA
ATOM     17  H   UNL     1      48.960   1.829   4.493  0.00  0.00    +0.000 HD
ENDBRANCH   9  16
ENDBRANCH   8   9
ENDBRANCH   5   8
ENDBRANCH   1   2
BRANCH   1  19
ATOM     18  C   UNL     1      43.613   2.887  12.192  0.00  0.00    +0.000 C 
ATOM     19  N   UNL     1      44.013   4.231  11.797  0.00  0.00    +0.000 N 
ATOM     20  C   UNL     1      44.769   4.926  12.758  0.00  0.00    +0.000 C 
ATOM     21  O   UNL     1      44.673   4.641  13.948  0.00  0.00    +0.000 OA
BRANCH  20  22
ATOM     22  C   UNL     1      45.809   5.885  12.344  0.00  0.00    +0.000 A 
ATOM     23  C   UNL     1      47.177   5.679  12.408  0.00  0.00    +0.000 A 
ATOM     24  S   UNL     1      48.089   7.122  12.288  0.00  0.00    +0.000 S 
ATOM     25  C   UNL     1      46.677   8.059  12.157  0.00  0.00    +0.000 A 
ATOM     26  N   UNL     1      46.718   9.418  12.178  0.00  0.00    +0.000 NA
ATOM     27  C   UNL     1      45.561   9.981  12.047  0.00  0.00    +0.000 A 
ATOM     28  N   UNL     1      44.380   9.311  11.839  0.00  0.00    +0.000 N 
ATOM     29  C   UNL     1      44.309   7.940  11.718  0.00  0.00    +0.000 A 
ATOM     30  O   UNL     1      43.308   7.383  11.282  0.00  0.00    +0.000 OA
ATOM     31  C   UNL     1      45.553   7.268  12.030  0.00  0.00    +0.000 A 
ATOM     32  H   UNL     1      43.537   9.817  11.613  0.00  0.00    +0.000 HD
ENDBRANCH  20  22
ENDBRANCH   1  19
TORSDOF 7
ENDMDL
MODEL 3
REMARK VINA RESULT:    -7.007      2.785      3.918
REMARK INTER + INTRA:         -10.779
REMARK INTER:                  -9.296
REMARK INTRA:                  -1.483
REMARK UNBOUND:                -1.110
REMARK  Name = 
REMARK  8 active torsions:
REMARK  status: ('A' for Active; 'I' for Inactive)
REMARK    1  A    between atoms: C_1  and  N_2
REMARK    2  A    between atoms: N_2  and  C_3
REMARK    3  A    between atoms: C_3  and  C_4
REMARK    4  A    between atoms: C_7  and  C_8
REMARK    5  A    between atoms: C_8  and  C_9
REMARK    6  A    between atoms: C_9  and  O_10
REMARK    7  A    between atoms: C_9  and  C_11
REMARK    8  A    between atoms: C_19  and  C_21
REMARK                            x       y       z     vdW  Elec       q    Type
REMARK                         _______ _______ _______ _____ _____    ______ ____
ROOT
ATOM      1  C   UNL     1      49.893   7.550  15.906  0.00  0.00    +0.000 C 
ENDROOT
BRANCH   1   2
ATOM      2  C   UNL     1      49.032   7.245  14.711  0.00  0.00    +0.000 A 
ATOM      3  C   UNL     1      48.208   6.124  14.659  0.00  0.00    +0.000 A 
ATOM      4  C   UNL     1      47.352   5.949  13.572  0.00  0.00    +0.000 A 
ATOM      5  C   UNL     1      47.342   6.906  12.560  0.00  0.00    +0.000 A 
ATOM      6  N   UNL     1      48.174   7.974  12.565  0.00  0.00    +0.000 NA
ATOM      7  C   UNL     1      48.993   8.118  13.628  0.00  0.00    +0.000 A 
BRANCH   5   8
ATOM      8  C   UNL     1      46.365   6.827  11.412  0.00  0.00    +0.000 C 
BRANCH   8   9
ATOM      9  C   UNL     1      44.936   6.501  11.879  0.00  0.00    +0.000 C 
BRANCH   9  10
ATOM     10  C   UNL     1      44.453   5.122  11.462  0.00  0.00    +0.000 A 
ATOM     11  C   UNL     1      44.828   4.625  10.224  0.00  0.00    +0.000 A 
ATOM     12  C   UNL     1      44.397   3.356   9.915  0.00  0.00    +0.000 A 
ATOM     13  N   UNL     1      43.644   2.608  10.738  0.00  0.00    +0.000 NA
ATOM     14  C   UNL     1      43.333   3.174  11.912  0.00  0.00    +0.000 A 
ATOM     15  N   UNL     1      43.699   4.401  12.322  0.00  0.00    +0.000 NA
ENDBRANCH   9  10
BRANCH   9  16
ATOM     16  O   UNL     1      43.992   7.459  11.376  0.00  0.00    +0.000 OA
ATOM     17  H   UNL     1      43.144   7.273  11.819  0.00  0.00    +0.000 HD
ENDBRANCH   9  16
ENDBRANCH   8   9
ENDBRANCH   5   8
ENDBRANCH   1   2
BRANCH   1  19
ATOM     18  C   UNL     1      48.080   8.810  17.098  0.00  0.00    +0.000 C 
ATOM     19  N   UNL     1      49.193   7.870  17.137  0.00  0.00    +0.000 N 
ATOM     20  C   UNL     1      49.270   7.098  18.310  0.00  0.00    +0.000 C 
ATOM     21  O   UNL     1      48.779   7.509  19.358  0.00  0.00    +0.000 OA
BRANCH  20  22
ATOM     22  C   UNL     1      49.785   5.717  18.266  0.00  0.00    +0.000 A 
ATOM     23  C   UNL     1      51.108   5.338  18.418  0.00  0.00    +0.000 A 
ATOM     24  S   UNL     1      51.428   3.748  17.868  0.00  0.00    +0.000 S 
ATOM     25  C   UNL     1      49.807   3.532  17.404  0.00  0.00    +0.000 A 
ATOM     26  N   UNL     1      49.404   2.436  16.708  0.00  0.00    +0.000 NA
ATOM     27  C   UNL     1      48.137   2.413  16.451  0.00  0.00    +0.000 A 
ATOM     28  N   UNL     1      47.231   3.354  16.876  0.00  0.00    +0.000 N 
ATOM     29  C   UNL     1      47.583   4.430  17.661  0.00  0.00    +0.000 A 
ATOM     30  O   UNL     1      46.743   5.109  18.240  0.00  0.00    +0.000 OA
ATOM     31  C   UNL     1      49.014   4.582  17.824  0.00  0.00    +0.000 A 
ATOM     32  H   UNL     1      46.241   3.205  16.753  0.00  0.00    +0.000 HD
ENDBRANCH  20  22
ENDBRANCH   1  19
TORSDOF 7
ENDMDL
MODEL 4
REMARK VINA RESULT:    -6.879      2.289      2.895
REMARK INTER + INTRA:         -10.603
REMARK INTER:                  -9.481
REMARK INTRA:                  -1.121
REMARK UNBOUND:                -1.110
REMARK  Name = 
REMARK  8 active torsions:
REMARK  status: ('A' for Active; 'I' for Inactive)
REMARK    1  A    between atoms: C_1  and  N_2
REMARK    2  A    between atoms: N_2  and  C_3
REMARK    3  A    between atoms: C_3  and  C_4
REMARK    4  A    between atoms: C_7  and  C_8
REMARK    5  A    between atoms: C_8  and  C_9
REMARK    6  A    between atoms: C_9  and  O_10
REMARK    7  A    between atoms: C_9  and  C_11
REMARK    8  A    between atoms: C_19  and  C_21
REMARK                            x       y       z     vdW  Elec       q    Type
REMARK                         _______ _______ _______ _____ _____    ______ ____
ROOT
ATOM      1  C   UNL     1      48.666   6.892  13.861  0.00  0.00    +0.000 C 
ENDROOT
BRANCH   1   2
ATOM      2  C   UNL     1      47.372   6.247  13.449  0.00  0.00    +0.000 A 
ATOM      3  C   UNL     1      47.137   4.884  13.615  0.00  0.00    +0.000 A 
ATOM      4  C   UNL     1      45.880   4.361  13.315  0.00  0.00    +0.000 A 
ATOM      5  C   UNL     1      44.884   5.219  12.854  0.00  0.00    +0.000 A 
ATOM      6  N   UNL     1      45.108   6.536  12.633  0.00  0.00    +0.000 NA
ATOM      7  C   UNL     1      46.333   7.016  12.932  0.00  0.00    +0.000 A 
BRANCH   5   8
ATOM      8  C   UNL     1      43.476   4.732  12.612  0.00  0.00    +0.000 C 
BRANCH   8   9
ATOM      9  C   UNL     1      43.052   4.871  11.139  0.00  0.00    +0.000 C 
BRANCH   9  10
ATOM     10  C   UNL     1      43.917   4.078  10.173  0.00  0.00    +0.000 A 
ATOM     11  C   UNL     1      44.714   4.761   9.269  0.00  0.00    +0.000 A 
ATOM     12  C   UNL     1      45.507   3.996   8.447  0.00  0.00    +0.000 A 
ATOM     13  N   UNL     1      45.530   2.653   8.482  0.00  0.00    +0.000 NA
ATOM     14  C   UNL     1      44.726   2.083   9.389  0.00  0.00    +0.000 A 
ATOM     15  N   UNL     1      43.913   2.728  10.244  0.00  0.00    +0.000 NA
ENDBRANCH   9  10
BRANCH   9  16
ATOM     16  O   UNL     1      43.079   6.243  10.716  0.00  0.00    +0.000 OA
ATOM     17  H   UNL     1      42.905   6.242   9.756  0.00  0.00    +0.000 HD
ENDBRANCH   9  16
ENDBRANCH   8   9
ENDBRANCH   5   8
ENDBRANCH   1   2
BRANCH   1  19
ATOM     18  C   UNL     1      47.765   8.985  14.912  0.00  0.00    +0.000 C 
ATOM     19  N   UNL     1      48.602   7.794  14.997  0.00  0.00    +0.000 N 
ATOM     20  C   UNL     1      49.004   7.450  16.299  0.00  0.00    +0.000 C 
ATOM     21  O   UNL     1      49.069   8.307  17.176  0.00  0.00    +0.000 OA
BRANCH  20  22
ATOM     22  C   UNL     1      49.191   6.038  16.678  0.00  0.00    +0.000 A 
ATOM     23  C   UNL     1      48.184   5.139  16.987  0.00  0.00    +0.000 A 
ATOM     24  S   UNL     1      48.743   3.747  17.810  0.00  0.00    +0.000 S 
ATOM     25  C   UNL     1      50.345   4.316  17.782  0.00  0.00    +0.000 A 
ATOM     26  N   UNL     1      51.339   3.681  18.458  0.00  0.00    +0.000 NA
ATOM     27  C   UNL     1      52.502   4.229  18.318  0.00  0.00    +0.000 A 
ATOM     28  N   UNL     1      52.769   5.313  17.518  0.00  0.00    +0.000 N 
ATOM     29  C   UNL     1      51.808   5.927  16.744  0.00  0.00    +0.000 A 
ATOM     30  O   UNL     1      52.104   6.715  15.854  0.00  0.00    +0.000 OA
ATOM     31  C   UNL     1      50.465   5.452  17.007  0.00  0.00    +0.000 A 
ATOM     32  H   UNL     1      53.720   5.605  17.352  0.00  0.00    +0.000 HD
ENDBRANCH  20  22
ENDBRANCH   1  19
TORSDOF 7
ENDMDL
MODEL 5
REMARK VINA RESULT:    -6.856      2.438      3.419
REMARK INTER + INTRA:         -10.571
REMARK INTER:                  -8.779
REMARK INTRA:                  -1.792
REMARK UNBOUND:                -1.110
REMARK  Name = 
REMARK  8 active torsions:
REMARK  status: ('A' for Active; 'I' for Inactive)
REMARK    1  A    between atoms: C_1  and  N_2
REMARK    2  A    between atoms: N_2  and  C_3
REMARK    3  A    between atoms: C_3  and  C_4
REMARK    4  A    between atoms: C_7  and  C_8
REMARK    5  A    between atoms: C_8  and  C_9
REMARK    6  A    between atoms: C_9  and  O_10
REMARK    7  A    between atoms: C_9  and  C_11
REMARK    8  A    between atoms: C_19  and  C_21
REMARK                            x       y       z     vdW  Elec       q    Type
REMARK                         _______ _______ _______ _____ _____    ______ ____
ROOT
ATOM      1  C   UNL     1      50.376   9.211  14.515  0.00  0.00    +0.000 C 
ENDROOT
BRANCH   1   2
ATOM      2  C   UNL     1      49.248   8.671  13.680  0.00  0.00    +0.000 A 
ATOM      3  C   UNL     1      49.472   7.952  12.508  0.00  0.00    +0.000 A 
ATOM      4  C   UNL     1      48.392   7.384  11.833  0.00  0.00    +0.000 A 
ATOM      5  C   UNL     1      47.109   7.550  12.351  0.00  0.00    +0.000 A 
ATOM      6  N   UNL     1      46.865   8.291  13.457  0.00  0.00    +0.000 NA
ATOM      7  C   UNL     1      47.927   8.830  14.090  0.00  0.00    +0.000 A 
BRANCH   5   8
ATOM      8  C   UNL     1      45.915   6.873  11.724  0.00  0.00    +0.000 C 
BRANCH   8   9
ATOM      9  C   UNL     1      45.245   5.865  12.675  0.00  0.00    +0.000 C 
BRANCH   9  10
ATOM     10  C   UNL     1      44.632   4.667  11.968  0.00  0.00    +0.000 A 
ATOM     11  C   UNL     1      44.811   4.530  10.602  0.00  0.00    +0.000 A 
ATOM     12  C   UNL     1      44.270   3.407  10.020  0.00  0.00    +0.000 A 
ATOM     13  N   UNL     1      43.590   2.473  10.706  0.00  0.00    +0.000 NA
ATOM     14  C   UNL     1      43.470   2.694  12.022  0.00  0.00    +0.000 A 
ATOM     15  N   UNL     1      43.957   3.749  12.697  0.00  0.00    +0.000 NA
ENDBRANCH   9  10
BRANCH   9  16
ATOM     16  O   UNL     1      44.207   6.488  13.447  0.00  0.00    +0.000 OA
ATOM     17  H   UNL     1      43.362   6.242  13.027  0.00  0.00    +0.000 HD
ENDBRANCH   9  16
ENDBRANCH   8   9
ENDBRANCH   5   8
ENDBRANCH   1   2
BRANCH   1  19
ATOM     18  C   UNL     1      52.749   8.397  14.551  0.00  0.00    +0.000 C 
ATOM     19  N   UNL     1      51.361   8.245  14.967  0.00  0.00    +0.000 N 
ATOM     20  C   UNL     1      51.164   7.367  16.048  0.00  0.00    +0.000 C 
ATOM     21  O   UNL     1      51.973   6.473  16.278  0.00  0.00    +0.000 OA
BRANCH  20  22
ATOM     22  C   UNL     1      50.083   7.608  17.021  0.00  0.00    +0.000 A 
ATOM     23  C   UNL     1      50.103   8.541  18.044  0.00  0.00    +0.000 A 
ATOM     24  S   UNL     1      48.917   8.257  19.247  0.00  0.00    +0.000 S 
ATOM     25  C   UNL     1      48.354   6.875  18.433  0.00  0.00    +0.000 A 
ATOM     26  N   UNL     1      47.435   6.044  18.991  0.00  0.00    +0.000 NA
ATOM     27  C   UNL     1      47.098   5.050  18.235  0.00  0.00    +0.000 A 
ATOM     28  N   UNL     1      47.550   4.848  16.954  0.00  0.00    +0.000 N 
ATOM     29  C   UNL     1      48.410   5.717  16.318  0.00  0.00    +0.000 A 
ATOM     30  O   UNL     1      48.600   5.666  15.109  0.00  0.00    +0.000 OA
ATOM     31  C   UNL     1      48.942   6.744  17.190  0.00  0.00    +0.000 A 
ATOM     32  H   UNL     1      47.145   4.128  16.375  0.00  0.00    +0.000 HD
ENDBRANCH  20  22
ENDBRANCH   1  19
TORSDOF 7
ENDMDL
MODEL 6
REMARK VINA RESULT:    -6.598      3.293      5.507
REMARK INTER + INTRA:         -10.215
REMARK INTER:                  -8.876
REMARK INTRA:                  -1.339
REMARK UNBOUND:                -1.110
REMARK  Name = 
REMARK  8 active torsions:
REMARK  status: ('A' for Active; 'I' for Inactive)
REMARK    1  A    between atoms: C_1  and  N_2
REMARK    2  A    between atoms: N_2  and  C_3
REMARK    3  A    between atoms: C_3  and  C_4
REMARK    4  A    between atoms: C_7  and  C_8
REMARK    5  A    between atoms: C_8  and  C_9
REMARK    6  A    between atoms: C_9  and  O_10
REMARK    7  A    between atoms: C_9  and  C_11
REMARK    8  A    between atoms: C_19  and  C_21
REMARK                            x       y       z     vdW  Elec       q    Type
REMARK                         _______ _______ _______ _____ _____    ______ ____
ROOT
ATOM      1  C   UNL     1      48.757   6.894  13.957  0.00  0.00    +0.000 C 
ENDROOT
BRANCH   1   2
ATOM      2  C   UNL     1      47.435   6.308  13.544  0.00  0.00    +0.000 A 
ATOM      3  C   UNL     1      47.163   4.946  13.651  0.00  0.00    +0.000 A 
ATOM      4  C   UNL     1      45.885   4.475  13.354  0.00  0.00    +0.000 A 
ATOM      5  C   UNL     1      44.905   5.383  12.957  0.00  0.00    +0.000 A 
ATOM      6  N   UNL     1      45.165   6.701  12.794  0.00  0.00    +0.000 NA
ATOM      7  C   UNL     1      46.410   7.130  13.087  0.00  0.00    +0.000 A 
BRANCH   5   8
ATOM      8  C   UNL     1      43.479   4.949  12.724  0.00  0.00    +0.000 C 
BRANCH   8   9
ATOM      9  C   UNL     1      43.058   5.081  11.249  0.00  0.00    +0.000 C 
BRANCH   9  10
ATOM     10  C   UNL     1      43.883   4.231  10.297  0.00  0.00    +0.000 A 
ATOM     11  C   UNL     1      44.704   4.859   9.375  0.00  0.00    +0.000 A 
ATOM     12  C   UNL     1      45.458   4.042   8.566  0.00  0.00    +0.000 A 
ATOM     13  N   UNL     1      45.423   2.701   8.629  0.00  0.00    +0.000 NA
ATOM     14  C   UNL     1      44.598   2.186   9.552  0.00  0.00    +0.000 A 
ATOM     15  N   UNL     1      43.819   2.884  10.396  0.00  0.00    +0.000 NA
ENDBRANCH   9  10
BRANCH   9  16
ATOM     16  O   UNL     1      43.150   6.442  10.802  0.00  0.00    +0.000 OA
ATOM     17  H   UNL     1      44.032   6.764  11.067  0.00  0.00    +0.000 HD
ENDBRANCH   9  16
ENDBRANCH   8   9
ENDBRANCH   5   8
ENDBRANCH   1   2
BRANCH   1  19
ATOM     18  C   UNL     1      48.833   8.050  16.183  0.00  0.00    +0.000 C 
ATOM     19  N   UNL     1      48.702   8.120  14.733  0.00  0.00    +0.000 N 
ATOM     20  C   UNL     1      48.876   9.404  14.188  0.00  0.00    +0.000 C 
ATOM     21  O   UNL     1      48.663  10.403  14.871  0.00  0.00    +0.000 OA
BRANCH  20  22
ATOM     22  C   UNL     1      49.476   9.577  12.853  0.00  0.00    +0.000 A 
ATOM     23  C   UNL     1      50.779   9.268  12.501  0.00  0.00    +0.000 A 
ATOM     24  S   UNL     1      51.280   9.999  11.036  0.00  0.00    +0.000 S 
ATOM     25  C   UNL     1      49.770  10.755  10.842  0.00  0.00    +0.000 A 
ATOM     26  N   UNL     1      49.552  11.670   9.861  0.00  0.00    +0.000 NA
ATOM     27  C   UNL     1      48.345  12.136   9.836  0.00  0.00    +0.000 A 
ATOM     28  N   UNL     1      47.327  11.725  10.661  0.00  0.00    +0.000 N 
ATOM     29  C   UNL     1      47.483  10.734  11.606  0.00  0.00    +0.000 A 
ATOM     30  O   UNL     1      46.520  10.205  12.149  0.00  0.00    +0.000 OA
ATOM     31  C   UNL     1      48.857  10.313  11.780  0.00  0.00    +0.000 A 
ATOM     32  H   UNL     1      46.380  12.034  10.500  0.00  0.00    +0.000 HD
ENDBRANCH  20  22
ENDBRANCH   1  19
TORSDOF 7
ENDMDL
MODEL 7
REMARK VINA RESULT:    -6.505      3.763      7.615
REMARK INTER + INTRA:         -10.086
REMARK INTER:                  -9.134
REMARK INTRA:                  -0.952
REMARK UNBOUND:                -1.110
REMARK  Name = 
REMARK  8 active torsions:
REMARK  status: ('A' for Active; 'I' for Inactive)
REMARK    1  A    between atoms: C_1  and  N_2
REMARK    2  A    between atoms: N_2  and  C_3
REMARK    3  A    between atoms: C_3  and  C_4
REMARK    4  A    between atoms: C_7  and  C_8
REMARK    5  A    between atoms: C_8  and  C_9
REMARK    6  A    between atoms: C_9  and  O_10
REMARK    7  A    between atoms: C_9  and  C_11
REMARK    8  A    between atoms: C_19  and  C_21
REMARK                            x       y       z     vdW  Elec       q    Type
REMARK                         _______ _______ _______ _____ _____    ______ ____
ROOT
ATOM      1  C   UNL     1      48.002   8.927  14.327  0.00  0.00    +0.000 C 
ENDROOT
BRANCH   1   2
ATOM      2  C   UNL     1      48.502   8.275  15.588  0.00  0.00    +0.000 A 
ATOM      3  C   UNL     1      48.152   8.743  16.852  0.00  0.00    +0.000 A 
ATOM      4  C   UNL     1      48.556   8.035  17.983  0.00  0.00    +0.000 A 
ATOM      5  C   UNL     1      49.303   6.870  17.820  0.00  0.00    +0.000 A 
ATOM      6  N   UNL     1      49.699   6.429  16.603  0.00  0.00    +0.000 NA
ATOM      7  C   UNL     1      49.295   7.133  15.525  0.00  0.00    +0.000 A 
BRANCH   5   8
ATOM      8  C   UNL     1      49.680   6.006  18.998  0.00  0.00    +0.000 C 
BRANCH   8   9
ATOM      9  C   UNL     1      48.755   4.785  19.151  0.00  0.00    +0.000 C 
BRANCH   9  10
ATOM     10  C   UNL     1      48.978   3.711  18.098  0.00  0.00    +0.000 A 
ATOM     11  C   UNL     1      47.935   3.373  17.252  0.00  0.00    +0.000 A 
ATOM     12  C   UNL     1      48.203   2.426  16.293  0.00  0.00    +0.000 A 
ATOM     13  N   UNL     1      49.399   1.829  16.156  0.00  0.00    +0.000 NA
ATOM     14  C   UNL     1      50.344   2.222  17.020  0.00  0.00    +0.000 A 
ATOM     15  N   UNL     1      50.198   3.137  17.993  0.00  0.00    +0.000 NA
ENDBRANCH   9  10
BRANCH   9  16
ATOM     16  O   UNL     1      47.373   5.168  19.090  0.00  0.00    +0.000 OA
ATOM     17  H   UNL     1      47.300   6.021  19.558  0.00  0.00    +0.000 HD
ENDBRANCH   9  16
ENDBRANCH   8   9
ENDBRANCH   5   8
ENDBRANCH   1   2
BRANCH   1  19
ATOM     18  C   UNL     1      50.046   8.830  12.875  0.00  0.00    +0.000 C 
ATOM     19  N   UNL     1      48.641   8.511  13.092  0.00  0.00    +0.000 N 
ATOM     20  C   UNL     1      48.122   7.528  12.230  0.00  0.00    +0.000 C 
ATOM     21  O   UNL     1      48.631   7.337  11.129  0.00  0.00    +0.000 OA
BRANCH  20  22
ATOM     22  C   UNL     1      47.075   6.601  12.694  0.00  0.00    +0.000 A 
ATOM     23  C   UNL     1      47.285   5.393  13.337  0.00  0.00    +0.000 A 
ATOM     24  S   UNL     1      45.913   4.370  13.330  0.00  0.00    +0.000 S 
ATOM     25  C   UNL     1      45.006   5.514  12.458  0.00  0.00    +0.000 A 
ATOM     26  N   UNL     1      43.770   5.223  11.970  0.00  0.00    +0.000 NA
ATOM     27  C   UNL     1      43.207   6.207  11.349  0.00  0.00    +0.000 A 
ATOM     28  N   UNL     1      43.739   7.467  11.224  0.00  0.00    +0.000 N 
ATOM     29  C   UNL     1      44.945   7.828  11.783  0.00  0.00    +0.000 A 
ATOM     30  O   UNL     1      45.283   9.002  11.885  0.00  0.00    +0.000 OA
ATOM     31  C   UNL     1      45.683   6.711  12.336  0.00  0.00    +0.000 A 
ATOM     32  H   UNL     1      43.188   8.221  10.843  0.00  0.00    +0.000 HD
ENDBRANCH  20  22
ENDBRANCH   1  19
TORSDOF 7
ENDMDL
MODEL 8
REMARK VINA RESULT:    -6.213      2.909      4.319
REMARK INTER + INTRA:          -9.684
REMARK INTER:                  -8.648
REMARK INTRA:                  -1.036
REMARK UNBOUND:                -1.110
REMARK  Name = 
REMARK  8 active torsions:
REMARK  status: ('A' for Active; 'I' for Inactive)
REMARK    1  A    between atoms: C_1  and  N_2
REMARK    2  A    between atoms: N_2  and  C_3
REMARK    3  A    between atoms: C_3  and  C_4
REMARK    4  A    between atoms: C_7  and  C_8
REMARK    5  A    between atoms: C_8  and  C_9
REMARK    6  A    between atoms: C_9  and  O_10
REMARK    7  A    between atoms: C_9  and  C_11
REMARK    8  A    between atoms: C_19  and  C_21
REMARK                            x       y       z     vdW  Elec       q    Type
REMARK                         _______ _______ _______ _____ _____    ______ ____
ROOT
ATOM      1  C   UNL     1      50.018   7.064  15.737  0.00  0.00    +0.000 C 
ENDROOT
BRANCH   1   2
ATOM      2  C   UNL     1      49.065   6.909  14.583  0.00  0.00    +0.000 A 
ATOM      3  C   UNL     1      48.061   5.944  14.576  0.00  0.00    +0.000 A 
ATOM      4  C   UNL     1      47.141   5.918  13.529  0.00  0.00    +0.000 A 
ATOM      5  C   UNL     1      47.248   6.862  12.510  0.00  0.00    +0.000 A 
ATOM      6  N   UNL     1      48.249   7.773  12.471  0.00  0.00    +0.000 NA
ATOM      7  C   UNL     1      49.127   7.776  13.496  0.00  0.00    +0.000 A 
BRANCH   5   8
ATOM      8  C   UNL     1      46.223   6.950  11.408  0.00  0.00    +0.000 C 
BRANCH   8   9
ATOM      9  C   UNL     1      44.809   6.579  11.889  0.00  0.00    +0.000 C 
BRANCH   9  10
ATOM     10  C   UNL     1      44.367   5.184  11.479  0.00  0.00    +0.000 A 
ATOM     11  C   UNL     1      44.695   4.719  10.217  0.00  0.00    +0.000 A 
ATOM     12  C   UNL     1      44.305   3.436   9.913  0.00  0.00    +0.000 A 
ATOM     13  N   UNL     1      43.633   2.645  10.766  0.00  0.00    +0.000 NA
ATOM     14  C   UNL     1      43.362   3.183  11.963  0.00  0.00    +0.000 A 
ATOM     15  N   UNL     1      43.694   4.420  12.370  0.00  0.00    +0.000 NA
ENDBRANCH   9  10
BRANCH   9  16
ATOM     16  O   UNL     1      43.830   7.505  11.393  0.00  0.00    +0.000 OA
ATOM     17  H   UNL     1      44.320   8.295  11.096  0.00  0.00    +0.000 HD
ENDBRANCH   9  16
ENDBRANCH   8   9
ENDBRANCH   5   8
ENDBRANCH   1   2
BRANCH   1  19
ATOM     18  C   UNL     1      48.497   8.165  17.401  0.00  0.00    +0.000 C 
ATOM     19  N   UNL     1      49.424   7.093  17.061  0.00  0.00    +0.000 N 
ATOM     20  C   UNL     1      49.395   5.992  17.935  0.00  0.00    +0.000 C 
ATOM     21  O   UNL     1      49.017   6.130  19.095  0.00  0.00    +0.000 OA
BRANCH  20  22
ATOM     22  C   UNL     1      49.652   4.630  17.434  0.00  0.00    +0.000 A 
ATOM     23  C   UNL     1      48.693   3.718  17.029  0.00  0.00    +0.000 A 
ATOM     24  S   UNL     1      49.275   2.111  16.942  0.00  0.00    +0.000 S 
ATOM     25  C   UNL     1      50.823   2.594  17.453  0.00  0.00    +0.000 A 
ATOM     26  N   UNL     1      51.792   1.687  17.747  0.00  0.00    +0.000 NA
ATOM     27  C   UNL     1      52.917   2.217  18.102  0.00  0.00    +0.000 A 
ATOM     28  N   UNL     1      53.177   3.566  18.130  0.00  0.00    +0.000 N 
ATOM     29  C   UNL     1      52.251   4.513  17.750  0.00  0.00    +0.000 A 
ATOM     30  O   UNL     1      52.571   5.677  17.536  0.00  0.00    +0.000 OA
ATOM     31  C   UNL     1      50.930   3.969  17.514  0.00  0.00    +0.000 A 
ATOM     32  H   UNL     1      54.114   3.904  18.287  0.00  0.00    +0.000 HD
ENDBRANCH  20  22
ENDBRANCH   1  19
TORSDOF 7
ENDMDL
MODEL 9
REMARK VINA RESULT:    -6.111      2.742      4.002
REMARK INTER + INTRA:          -9.543
REMARK INTER:                  -8.136
REMARK INTRA:                  -1.408
REMARK UNBOUND:                -1.110
REMARK  Name = 
REMARK  8 active torsions:
REMARK  status: ('A' for Active; 'I' for Inactive)
REMARK    1  A    between atoms: C_1  and  N_2
REMARK    2  A    between atoms: N_2  and  C_3
REMARK    3  A    between atoms: C_3  and  C_4
REMARK    4  A    between atoms: C_7  and  C_8
REMARK    5  A    between atoms: C_8  and  C_9
REMARK    6  A    between atoms: C_9  and  O_10
REMARK    7  A    between atoms: C_9  and  C_11
REMARK    8  A    between atoms: C_19  and  C_21
REMARK                            x       y       z     vdW  Elec       q    Type
REMARK                         _______ _______ _______ _____ _____    ______ ____
ROOT
ATOM      1  C   UNL     1      51.482   8.263  15.474  0.00  0.00    +0.000 C 
ENDROOT
BRANCH   1   2
ATOM      2  C   UNL     1      50.280   7.911  14.640  0.00  0.00    +0.000 A 
ATOM      3  C   UNL     1      50.355   7.769  13.257  0.00  0.00    +0.000 A 
ATOM      4  C   UNL     1      49.235   7.336  12.549  0.00  0.00    +0.000 A 
ATOM      5  C   UNL     1      48.062   7.055  13.246  0.00  0.00    +0.000 A 
ATOM      6  N   UNL     1      47.952   7.239  14.583  0.00  0.00    +0.000 NA
ATOM      7  C   UNL     1      49.052   7.659  15.243  0.00  0.00    +0.000 A 
BRANCH   5   8
ATOM      8  C   UNL     1      46.851   6.485  12.550  0.00  0.00    +0.000 C 
BRANCH   8   9
ATOM      9  C   UNL     1      46.526   5.053  13.013  0.00  0.00    +0.000 C 
BRANCH   9  10
ATOM     10  C   UNL     1      45.329   4.436  12.309  0.00  0.00    +0.000 A 
ATOM     11  C   UNL     1      45.018   4.851  11.024  0.00  0.00    +0.000 A 
ATOM     12  C   UNL     1      43.950   4.231  10.419  0.00  0.00    +0.000 A 
ATOM     13  N   UNL     1      43.217   3.274  11.011  0.00  0.00    +0.000 NA
ATOM     14  C   UNL     1      43.595   2.940  12.253  0.00  0.00    +0.000 A 
ATOM     15  N   UNL     1      44.619   3.474  12.941  0.00  0.00    +0.000 NA
ENDBRANCH   9  10
BRANCH   9  16
ATOM     16  O   UNL     1      46.266   5.009  14.424  0.00  0.00    +0.000 OA
ATOM     17  H   UNL     1      45.390   4.594  14.533  0.00  0.00    +0.000 HD
ENDBRANCH   9  16
ENDBRANCH   8   9
ENDBRANCH   5   8
ENDBRANCH   1   2
BRANCH   1  19
ATOM     18  C   UNL     1      53.716   7.172  15.135  0.00  0.00    +0.000 C 
ATOM     19  N   UNL     1      52.402   7.178  15.765  0.00  0.00    +0.000 N 
ATOM     20  C   UNL     1      52.273   6.311  16.865  0.00  0.00    +0.000 C 
ATOM     21  O   UNL     1      52.995   5.323  16.964  0.00  0.00    +0.000 OA
BRANCH  20  22
ATOM     22  C   UNL     1      51.395   6.660  17.996  0.00  0.00    +0.000 A 
ATOM     23  C   UNL     1      51.572   7.724  18.865  0.00  0.00    +0.000 A 
ATOM     24  S   UNL     1      50.662   7.583  20.308  0.00  0.00    +0.000 S 
ATOM     25  C   UNL     1      50.016   6.091  19.811  0.00  0.00    +0.000 A 
ATOM     26  N   UNL     1      49.265   5.325  20.646  0.00  0.00    +0.000 NA
ATOM     27  C   UNL     1      48.833   4.231  20.109  0.00  0.00    +0.000 A 
ATOM     28  N   UNL     1      49.033   3.865  18.800  0.00  0.00    +0.000 N 
ATOM     29  C   UNL     1      49.708   4.657  17.897  0.00  0.00    +0.000 A 
ATOM     30  O   UNL     1      49.658   4.445  16.691  0.00  0.00    +0.000 OA
ATOM     31  C   UNL     1      50.353   5.804  18.503  0.00  0.00    +0.000 A 
ATOM     32  H   UNL     1      48.556   3.065  18.413  0.00  0.00    +0.000 HD
ENDBRANCH  20  22
ENDBRANCH   1  19
TORSDOF 7
ENDMDL
