MODEL 1
REMARK VINA RESULT:    -8.333      0.000      0.000
REMARK INTER + INTRA:         -11.416
REMARK INTER:                 -10.769
REMARK INTRA:                  -0.648
REMARK UNBOUND:                -0.648
REMARK  Name = 
REMARK  6 active torsions:
REMARK  status: ('A' for Active; 'I' for Inactive)
REMARK    1  A    between atoms: C_1  and  C_2
REMARK    2  A    between atoms: C_2  and  N_3
REMARK    3  A    between atoms: C_2  and  C_17
REMARK    4  A    between atoms: C_7  and  C_8
REMARK    5  A    between atoms: C_8  and  C_9
REMARK    6  A    between atoms: C_17  and  C_19
REMARK                            x       y       z     vdW  Elec       q    Type
REMARK                         _______ _______ _______ _____ _____    ______ ____
ROOT
ATOM      1  C   UNL     1      48.840   5.976  15.687  0.00  0.00    +0.000 C 
ATOM      2  C   UNL     1      47.825   4.898  15.319  0.00  0.00    +0.000 C 
ENDROOT
BRANCH   2   3
ATOM      3  N   UNL     1      46.591   5.439  14.756  0.00  0.00    +0.000 N 
ATOM      4  C   UNL     1      46.021   4.920  13.626  0.00  0.00    +0.000 A 
ATOM      5  N   UNL     1      46.245   3.647  13.278  0.00  0.00    +0.000 NA
ATOM      6  C   UNL     1      45.625   3.201  12.163  0.00  0.00    +0.000 A 
ATOM      7  C   UNL     1      44.811   3.977  11.367  0.00  0.00    +0.000 A 
ATOM      8  C   UNL     1      44.650   5.267  11.818  0.00  0.00    +0.000 A 
ATOM      9  N   UNL     1      45.238   5.755  12.930  0.00  0.00    +0.000 NA
ATOM     10  H   UNL     1      46.475   6.446  14.805  0.00  0.00    +0.000 HD
BRANCH   7  11
ATOM     11  C   UNL     1      44.125   3.448  10.144  0.00  0.00    +0.000 C 
BRANCH  11  12
ATOM     12  C   UNL     1      45.081   3.137   9.014  0.00  0.00    +0.000 A 
ATOM     13  C   UNL     1      45.517   1.831   8.796  0.00  0.00    +0.000 A 
ATOM     14  C   UNL     1      46.490   1.600   7.827  0.00  0.00    +0.000 A 
ATOM     15  C   UNL     1      46.987   2.669   7.092  0.00  0.00    +0.000 A 
ATOM     16  C   UNL     1      46.471   3.929   7.343  0.00  0.00    +0.000 A 
ATOM     17  N   UNL     1      45.536   4.187   8.286  0.00  0.00    +0.000 NA
ENDBRANCH  11  12
ENDBRANCH   7  11
ENDBRANCH   2   3
BRANCH   2  18
ATOM     18  C   UNL     1      47.464   4.191  16.637  0.00  0.00    +0.000 C 
ATOM     19  O   UNL     1      46.417   3.538  16.714  0.00  0.00    +0.000 OA
BRANCH  18  20
ATOM     20  C   UNL     1      48.367   4.229  17.784  0.00  0.00    +0.000 A 
ATOM     21  C   UNL     1      48.176   4.977  18.933  0.00  0.00    +0.000 A 
ATOM     22  S   UNL     1      49.640   5.189  19.807  0.00  0.00    +0.000 S 
ATOM     23  C   UNL     1      50.487   4.155  18.748  0.00  0.00    +0.000 A 
ATOM     24  N   UNL     1      51.829   3.969  18.835  0.00  0.00    +0.000 NA
ATOM     25  C   UNL     1      52.293   3.098  17.999  0.00  0.00    +0.000 A 
ATOM     26  N   UNL     1      51.533   2.357  17.124  0.00  0.00    +0.000 N 
ATOM     27  C   UNL     1      50.160   2.475  17.028  0.00  0.00    +0.000 A 
ATOM     28  O   UNL     1      49.477   1.673  16.409  0.00  0.00    +0.000 OA
ATOM     29  C   UNL     1      49.630   3.566  17.840  0.00  0.00    +0.000 A 
ATOM     30  H   UNL     1      51.944   1.600  16.601  0.00  0.00    +0.000 HD
ENDBRANCH  18  20
ENDBRANCH   2  18
TORSDOF 5
ENDMDL
MODEL 2
REMARK VINA RESULT:    -7.742      1.832      2.359
REMARK INTER + INTRA:         -10.653
REMARK INTER:                  -9.647
REMARK INTRA:                  -1.005
REMARK UNBOUND:                -0.648
REMARK  Name = 
REMARK  6 active torsions:
REMARK  status: ('A' for Active; 'I' for Inactive)
REMARK    1  A    between atoms: C_1  and  C_2
REMARK    2  A    between atoms: C_2  and  N_3
REMARK    3  A    between atoms: C_2  and  C_17
REMARK    4  A    between atoms: C_7  and  C_8
REMARK    5  A    between atoms: C_8  and  C_9
REMARK    6  A    between atoms: C_17  and  C_19
REMARK                            x       y       z     vdW  Elec       q    Type
REMARK                         _______ _______ _______ _____ _____    ______ ____
ROOT
ATOM      1  C   UNL     1      49.802   7.661  13.788  0.00  0.00    +0.000 C 
ATOM      2  C   UNL     1      48.680   6.910  14.499  0.00  0.00    +0.000 C 
ENDROOT
BRANCH   2   3
ATOM      3  N   UNL     1      47.349   7.377  14.123  0.00  0.00    +0.000 N 
ATOM      4  C   UNL     1      46.564   6.693  13.235  0.00  0.00    +0.000 A 
ATOM      5  N   UNL     1      46.730   5.376  13.060  0.00  0.00    +0.000 NA
ATOM      6  C   UNL     1      45.899   4.768  12.184  0.00  0.00    +0.000 A 
ATOM      7  C   UNL     1      44.926   5.421  11.460  0.00  0.00    +0.000 A 
ATOM      8  C   UNL     1      44.843   6.770  11.719  0.00  0.00    +0.000 A 
ATOM      9  N   UNL     1      45.642   7.419  12.591  0.00  0.00    +0.000 NA
ATOM     10  H   UNL     1      47.231   8.381  14.032  0.00  0.00    +0.000 HD
BRANCH   7  11
ATOM     11  C   UNL     1      44.008   4.715  10.508  0.00  0.00    +0.000 C 
BRANCH  11  12
ATOM     12  C   UNL     1      44.744   3.916   9.456  0.00  0.00    +0.000 A 
ATOM     13  C   UNL     1      44.718   2.523   9.478  0.00  0.00    +0.000 A 
ATOM     14  C   UNL     1      45.506   1.820   8.570  0.00  0.00    +0.000 A 
ATOM     15  C   UNL     1      46.280   2.522   7.655  0.00  0.00    +0.000 A 
ATOM     16  C   UNL     1      46.219   3.904   7.673  0.00  0.00    +0.000 A 
ATOM     17  N   UNL     1      45.474   4.615   8.551  0.00  0.00    +0.000 NA
ENDBRANCH  11  12
ENDBRANCH   7  11
ENDBRANCH   2   3
BRANCH   2  18
ATOM     18  C   UNL     1      48.867   7.194  15.999  0.00  0.00    +0.000 C 
ATOM     19  O   UNL     1      48.337   8.191  16.503  0.00  0.00    +0.000 OA
BRANCH  18  20
ATOM     20  C   UNL     1      49.614   6.274  16.853  0.00  0.00    +0.000 A 
ATOM     21  C   UNL     1      50.763   6.585  17.558  0.00  0.00    +0.000 A 
ATOM     22  S   UNL     1      51.637   5.176  18.008  0.00  0.00    +0.000 S 
ATOM     23  C   UNL     1      50.409   4.156  17.409  0.00  0.00    +0.000 A 
ATOM     24  N   UNL     1      50.545   2.806  17.364  0.00  0.00    +0.000 NA
ATOM     25  C   UNL     1      49.489   2.186  16.948  0.00  0.00    +0.000 A 
ATOM     26  N   UNL     1      48.293   2.786  16.626  0.00  0.00    +0.000 N 
ATOM     27  C   UNL     1      48.088   4.150  16.700  0.00  0.00    +0.000 A 
ATOM     28  O   UNL     1      46.975   4.648  16.620  0.00  0.00    +0.000 OA
ATOM     29  C   UNL     1      49.310   4.888  17.006  0.00  0.00    +0.000 A 
ATOM     30  H   UNL     1      47.473   2.230  16.443  0.00  0.00    +0.000 HD
ENDBRANCH  18  20
ENDBRANCH   2  18
TORSDOF 5
ENDMDL
MODEL 3
REMARK VINA RESULT:    -7.604      2.417      3.390
REMARK INTER + INTRA:         -10.474
REMARK INTER:                 -10.032
REMARK INTRA:                  -0.441
REMARK UNBOUND:                -0.648
REMARK  Name = 
REMARK  6 active torsions:
REMARK  status: ('A' for Active; 'I' for Inactive)
REMARK    1  A    between atoms: C_1  and  C_2
REMARK    2  A    between atoms: C_2  and  N_3
REMARK    3  A    between atoms: C_2  and  C_17
REMARK    4  A    between atoms: C_7  and  C_8
REMARK    5  A    between atoms: C_8  and  C_9
REMARK    6  A    between atoms: C_17  and  C_19
REMARK                            x       y       z     vdW  Elec       q    Type
REMARK                         _______ _______ _______ _____ _____    ______ ____
ROOT
ATOM      1  C   UNL     1      47.720   3.126  15.374  0.00  0.00    +0.000 C 
ATOM      2  C   UNL     1      47.330   4.499  15.912  0.00  0.00    +0.000 C 
ENDROOT
BRANCH   2   3
ATOM      3  N   UNL     1      47.143   5.496  14.862  0.00  0.00    +0.000 N 
ATOM      4  C   UNL     1      46.438   5.223  13.722  0.00  0.00    +0.000 A 
ATOM      5  N   UNL     1      45.498   4.272  13.718  0.00  0.00    +0.000 NA
ATOM      6  C   UNL     1      44.828   4.080  12.560  0.00  0.00    +0.000 A 
ATOM      7  C   UNL     1      45.072   4.782  11.400  0.00  0.00    +0.000 A 
ATOM      8  C   UNL     1      46.057   5.735  11.517  0.00  0.00    +0.000 A 
ATOM      9  N   UNL     1      46.746   5.971  12.653  0.00  0.00    +0.000 NA
ATOM     10  H   UNL     1      47.928   6.113  14.679  0.00  0.00    +0.000 HD
BRANCH   7  11
ATOM     11  C   UNL     1      44.300   4.557  10.134  0.00  0.00    +0.000 C 
BRANCH  11  12
ATOM     12  C   UNL     1      45.059   3.742   9.112  0.00  0.00    +0.000 A 
ATOM     13  C   UNL     1      45.152   2.357   9.238  0.00  0.00    +0.000 A 
ATOM     14  C   UNL     1      45.960   1.653   8.349  0.00  0.00    +0.000 A 
ATOM     15  C   UNL     1      46.636   2.343   7.351  0.00  0.00    +0.000 A 
ATOM     16  C   UNL     1      46.460   3.713   7.270  0.00  0.00    +0.000 A 
ATOM     17  N   UNL     1      45.692   4.426   8.126  0.00  0.00    +0.000 NA
ENDBRANCH  11  12
ENDBRANCH   7  11
ENDBRANCH   2   3
BRANCH   2  18
ATOM     18  C   UNL     1      48.509   4.960  16.786  0.00  0.00    +0.000 C 
ATOM     19  O   UNL     1      49.517   4.249  16.879  0.00  0.00    +0.000 OA
BRANCH  18  20
ATOM     20  C   UNL     1      48.485   6.254  17.463  0.00  0.00    +0.000 A 
ATOM     21  C   UNL     1      47.964   6.492  18.723  0.00  0.00    +0.000 A 
ATOM     22  S   UNL     1      47.631   8.159  18.970  0.00  0.00    +0.000 S 
ATOM     23  C   UNL     1      48.328   8.579  17.471  0.00  0.00    +0.000 A 
ATOM     24  N   UNL     1      48.286   9.843  16.981  0.00  0.00    +0.000 NA
ATOM     25  C   UNL     1      48.926   9.995  15.867  0.00  0.00    +0.000 A 
ATOM     26  N   UNL     1      49.650   9.014  15.229  0.00  0.00    +0.000 N 
ATOM     27  C   UNL     1      49.763   7.724  15.711  0.00  0.00    +0.000 A 
ATOM     28  O   UNL     1      50.571   6.927  15.259  0.00  0.00    +0.000 OA
ATOM     29  C   UNL     1      48.916   7.481  16.875  0.00  0.00    +0.000 A 
ATOM     30  H   UNL     1      50.236   9.238  14.441  0.00  0.00    +0.000 HD
ENDBRANCH  18  20
ENDBRANCH   2  18
TORSDOF 5
ENDMDL
MODEL 4
REMARK VINA RESULT:    -7.535      2.369      3.188
REMARK INTER + INTRA:         -10.385
REMARK INTER:                 -10.104
REMARK INTRA:                  -0.281
REMARK UNBOUND:                -0.648
REMARK  Name = 
REMARK  6 active torsions:
REMARK  status: ('A' for Active; 'I' for Inactive)
REMARK    1  A    between atoms: C_1  and  C_2
REMARK    2  A    between atoms: C_2  and  N_3
REMARK    3  A    between atoms: C_2  and  C_17
REMARK    4  A    between atoms: C_7  and  C_8
REMARK    5  A    between atoms: C_8  and  C_9
REMARK    6  A    between atoms: C_17  and  C_19
REMARK                            x       y       z     vdW  Elec       q    Type
REMARK                         _______ _______ _______ _____ _____    ______ ____
ROOT
ATOM      1  C   UNL     1      47.720   3.230  15.330  0.00  0.00    +0.000 C 
ATOM      2  C   UNL     1      47.395   4.624  15.858  0.00  0.00    +0.000 C 
ENDROOT
BRANCH   2   3
ATOM      3  N   UNL     1      47.180   5.604  14.797  0.00  0.00    +0.000 N 
ATOM      4  C   UNL     1      46.459   5.308  13.673  0.00  0.00    +0.000 A 
ATOM      5  N   UNL     1      45.528   4.347  13.698  0.00  0.00    +0.000 NA
ATOM      6  C   UNL     1      44.842   4.133  12.554  0.00  0.00    +0.000 A 
ATOM      7  C   UNL     1      45.059   4.821  11.380  0.00  0.00    +0.000 A 
ATOM      8  C   UNL     1      46.036   5.786  11.468  0.00  0.00    +0.000 A 
ATOM      9  N   UNL     1      46.741   6.044  12.589  0.00  0.00    +0.000 NA
ATOM     10  H   UNL     1      47.955   6.227  14.593  0.00  0.00    +0.000 HD
BRANCH   7  11
ATOM     11  C   UNL     1      44.268   4.570  10.131  0.00  0.00    +0.000 C 
BRANCH  11  12
ATOM     12  C   UNL     1      45.013   3.736   9.114  0.00  0.00    +0.000 A 
ATOM     13  C   UNL     1      45.120   2.355   9.273  0.00  0.00    +0.000 A 
ATOM     14  C   UNL     1      45.915   1.635   8.385  0.00  0.00    +0.000 A 
ATOM     15  C   UNL     1      46.565   2.305   7.356  0.00  0.00    +0.000 A 
ATOM     16  C   UNL     1      46.375   3.671   7.245  0.00  0.00    +0.000 A 
ATOM     17  N   UNL     1      45.620   4.400   8.098  0.00  0.00    +0.000 NA
ENDBRANCH  11  12
ENDBRANCH   7  11
ENDBRANCH   2   3
BRANCH   2  18
ATOM     18  C   UNL     1      48.630   5.070  16.660  0.00  0.00    +0.000 C 
ATOM     19  O   UNL     1      49.583   4.295  16.796  0.00  0.00    +0.000 OA
BRANCH  18  20
ATOM     20  C   UNL     1      48.721   6.418  17.215  0.00  0.00    +0.000 A 
ATOM     21  C   UNL     1      49.396   7.480  16.639  0.00  0.00    +0.000 A 
ATOM     22  S   UNL     1      49.733   8.717  17.783  0.00  0.00    +0.000 S 
ATOM     23  C   UNL     1      48.844   7.914  18.997  0.00  0.00    +0.000 A 
ATOM     24  N   UNL     1      48.804   8.357  20.279  0.00  0.00    +0.000 NA
ATOM     25  C   UNL     1      48.025   7.668  21.048  0.00  0.00    +0.000 A 
ATOM     26  N   UNL     1      47.240   6.614  20.640  0.00  0.00    +0.000 N 
ATOM     27  C   UNL     1      47.209   6.154  19.337  0.00  0.00    +0.000 A 
ATOM     28  O   UNL     1      46.361   5.367  18.943  0.00  0.00    +0.000 OA
ATOM     29  C   UNL     1      48.200   6.804  18.486  0.00  0.00    +0.000 A 
ATOM     30  H   UNL     1      46.555   6.214  21.261  0.00  0.00    +0.000 HD
ENDBRANCH  18  20
ENDBRANCH   2  18
TORSDOF 5
ENDMDL
MODEL 5
REMARK VINA RESULT:    -7.476      2.057      2.596
REMARK INTER + INTRA:         -10.309
REMARK INTER:                  -9.512
REMARK INTRA:                  -0.797
REMARK UNBOUND:                -0.648
REMARK  Name = 
REMARK  6 active torsions:
REMARK  status: ('A' for Active; 'I' for Inactive)
REMARK    1  A    between atoms: C_1  and  C_2
REMARK    2  A    between atoms: C_2  and  N_3
REMARK    3  A    between atoms: C_2  and  C_17
REMARK    4  A    between atoms: C_7  and  C_8
REMARK    5  A    between atoms: C_8  and  C_9
REMARK    6  A    between atoms: C_17  and  C_19
REMARK                            x       y       z     vdW  Elec       q    Type
REMARK                         _______ _______ _______ _____ _____    ______ ____
ROOT
ATOM      1  C   UNL     1      47.726   8.547  14.842  0.00  0.00    +0.000 C 
ATOM      2  C   UNL     1      48.505   7.250  14.647  0.00  0.00    +0.000 C 
ENDROOT
BRANCH   2   3
ATOM      3  N   UNL     1      47.647   6.070  14.579  0.00  0.00    +0.000 N 
ATOM      4  C   UNL     1      46.853   5.813  13.495  0.00  0.00    +0.000 A 
ATOM      5  N   UNL     1      47.172   6.303  12.291  0.00  0.00    +0.000 NA
ATOM      6  C   UNL     1      46.351   5.983  11.266  0.00  0.00    +0.000 A 
ATOM      7  C   UNL     1      45.216   5.214  11.395  0.00  0.00    +0.000 A 
ATOM      8  C   UNL     1      44.985   4.762  12.674  0.00  0.00    +0.000 A 
ATOM      9  N   UNL     1      45.780   5.046  13.726  0.00  0.00    +0.000 NA
ATOM     10  H   UNL     1      47.203   5.783  15.445  0.00  0.00    +0.000 HD
BRANCH   7  11
ATOM     11  C   UNL     1      44.334   4.863  10.233  0.00  0.00    +0.000 C 
BRANCH  11  12
ATOM     12  C   UNL     1      45.004   3.947   9.235  0.00  0.00    +0.000 A 
ATOM     13  C   UNL     1      45.030   2.569   9.445  0.00  0.00    +0.000 A 
ATOM     14  C   UNL     1      45.760   1.768   8.570  0.00  0.00    +0.000 A 
ATOM     15  C   UNL     1      46.428   2.357   7.504  0.00  0.00    +0.000 A 
ATOM     16  C   UNL     1      46.320   3.728   7.344  0.00  0.00    +0.000 A 
ATOM     17  N   UNL     1      45.629   4.533   8.183  0.00  0.00    +0.000 NA
ENDBRANCH  11  12
ENDBRANCH   7  11
ENDBRANCH   2   3
BRANCH   2  18
ATOM     18  C   UNL     1      49.398   7.104  15.891  0.00  0.00    +0.000 C 
ATOM     19  O   UNL     1      50.626   7.047  15.759  0.00  0.00    +0.000 OA
BRANCH  18  20
ATOM     20  C   UNL     1      48.824   7.091  17.234  0.00  0.00    +0.000 A 
ATOM     21  C   UNL     1      48.426   8.207  17.949  0.00  0.00    +0.000 A 
ATOM     22  S   UNL     1      48.304   7.877  19.631  0.00  0.00    +0.000 S 
ATOM     23  C   UNL     1      48.620   6.219  19.385  0.00  0.00    +0.000 A 
ATOM     24  N   UNL     1      48.778   5.351  20.416  0.00  0.00    +0.000 NA
ATOM     25  C   UNL     1      48.940   4.122  20.047  0.00  0.00    +0.000 A 
ATOM     26  N   UNL     1      48.902   3.675  18.746  0.00  0.00    +0.000 N 
ATOM     27  C   UNL     1      48.698   4.510  17.665  0.00  0.00    +0.000 A 
ATOM     28  O   UNL     1      48.455   4.082  16.546  0.00  0.00    +0.000 OA
ATOM     29  C   UNL     1      48.678   5.921  18.038  0.00  0.00    +0.000 A 
ATOM     30  H   UNL     1      48.897   2.688  18.542  0.00  0.00    +0.000 HD
ENDBRANCH  18  20
ENDBRANCH   2  18
TORSDOF 5
ENDMDL
MODEL 6
REMARK VINA RESULT:    -7.267      2.257      2.698
REMARK INTER + INTRA:         -10.038
REMARK INTER:                  -9.293
REMARK INTRA:                  -0.745
REMARK UNBOUND:                -0.648
REMARK  Name = 
REMARK  6 active torsions:
REMARK  status: ('A' for Active; 'I' for Inactive)
REMARK    1  A    between atoms: C_1  and  C_2
REMARK    2  A    between atoms: C_2  and  N_3
REMARK    3  A    between atoms: C_2  and  C_17
REMARK    4  A    between atoms: C_7  and  C_8
REMARK    5  A    between atoms: C_8  and  C_9
REMARK    6  A    between atoms: C_17  and  C_19
REMARK                            x       y       z     vdW  Elec       q    Type
REMARK                         _______ _______ _______ _____ _____    ______ ____
ROOT
ATOM      1  C   UNL     1      49.732   8.136  13.896  0.00  0.00    +0.000 C 
ATOM      2  C   UNL     1      48.624   7.147  14.246  0.00  0.00    +0.000 C 
ENDROOT
BRANCH   2   3
ATOM      3  N   UNL     1      47.302   7.586  13.806  0.00  0.00    +0.000 N 
ATOM      4  C   UNL     1      46.540   6.842  12.948  0.00  0.00    +0.000 A 
ATOM      5  N   UNL     1      46.708   5.516  12.870  0.00  0.00    +0.000 NA
ATOM      6  C   UNL     1      45.898   4.849  12.018  0.00  0.00    +0.000 A 
ATOM      7  C   UNL     1      44.945   5.449  11.225  0.00  0.00    +0.000 A 
ATOM      8  C   UNL     1      44.857   6.813  11.388  0.00  0.00    +0.000 A 
ATOM      9  N   UNL     1      45.634   7.522  12.232  0.00  0.00    +0.000 NA
ATOM     10  H   UNL     1      47.188   8.581  13.642  0.00  0.00    +0.000 HD
BRANCH   7  11
ATOM     11  C   UNL     1      44.050   4.678  10.302  0.00  0.00    +0.000 C 
BRANCH  11  12
ATOM     12  C   UNL     1      44.812   3.840   9.300  0.00  0.00    +0.000 A 
ATOM     13  C   UNL     1      44.846   2.451   9.419  0.00  0.00    +0.000 A 
ATOM     14  C   UNL     1      45.656   1.721   8.553  0.00  0.00    +0.000 A 
ATOM     15  C   UNL     1      46.393   2.390   7.584  0.00  0.00    +0.000 A 
ATOM     16  C   UNL     1      46.272   3.767   7.507  0.00  0.00    +0.000 A 
ATOM     17  N   UNL     1      45.504   4.504   8.341  0.00  0.00    +0.000 NA
ENDBRANCH  11  12
ENDBRANCH   7  11
ENDBRANCH   2   3
BRANCH   2  18
ATOM     18  C   UNL     1      48.600   7.068  15.782  0.00  0.00    +0.000 C 
ATOM     19  O   UNL     1      48.598   8.110  16.448  0.00  0.00    +0.000 OA
BRANCH  18  20
ATOM     20  C   UNL     1      48.519   5.781  16.469  0.00  0.00    +0.000 A 
ATOM     21  C   UNL     1      47.693   4.730  16.112  0.00  0.00    +0.000 A 
ATOM     22  S   UNL     1      47.476   3.622  17.407  0.00  0.00    +0.000 S 
ATOM     23  C   UNL     1      48.605   4.451  18.380  0.00  0.00    +0.000 A 
ATOM     24  N   UNL     1      48.832   4.113  19.675  0.00  0.00    +0.000 NA
ATOM     25  C   UNL     1      49.770   4.801  20.239  0.00  0.00    +0.000 A 
ATOM     26  N   UNL     1      50.539   5.755  19.612  0.00  0.00    +0.000 N 
ATOM     27  C   UNL     1      50.380   6.102  18.285  0.00  0.00    +0.000 A 
ATOM     28  O   UNL     1      51.196   6.787  17.686  0.00  0.00    +0.000 OA
ATOM     29  C   UNL     1      49.221   5.462  17.670  0.00  0.00    +0.000 A 
ATOM     30  H   UNL     1      51.343   6.151  20.074  0.00  0.00    +0.000 HD
ENDBRANCH  18  20
ENDBRANCH   2  18
TORSDOF 5
ENDMDL
MODEL 7
REMARK VINA RESULT:    -7.243      2.798      4.255
REMARK INTER + INTRA:         -10.007
REMARK INTER:                  -8.609
REMARK INTRA:                  -1.398
REMARK UNBOUND:                -0.648
REMARK  Name = 
REMARK  6 active torsions:
REMARK  status: ('A' for Active; 'I' for Inactive)
REMARK    1  A    between atoms: C_1  and  C_2
REMARK    2  A    between atoms: C_2  and  N_3
REMARK    3  A    between atoms: C_2  and  C_17
REMARK    4  A    between atoms: C_7  and  C_8
REMARK    5  A    between atoms: C_8  and  C_9
REMARK    6  A    between atoms: C_17  and  C_19
REMARK                            x       y       z     vdW  Elec       q    Type
REMARK                         _______ _______ _______ _____ _____    ______ ____
ROOT
ATOM      1  C   UNL     1      51.848   8.271  15.216  0.00  0.00    +0.000 C 
ATOM      2  C   UNL     1      50.756   7.244  15.499  0.00  0.00    +0.000 C 
ENDROOT
BRANCH   2   3
ATOM      3  N   UNL     1      49.409   7.804  15.436  0.00  0.00    +0.000 N 
ATOM      4  C   UNL     1      48.543   7.495  14.423  0.00  0.00    +0.000 A 
ATOM      5  N   UNL     1      48.666   6.342  13.755  0.00  0.00    +0.000 NA
ATOM      6  C   UNL     1      47.756   6.099  12.786  0.00  0.00    +0.000 A 
ATOM      7  C   UNL     1      46.743   6.966  12.440  0.00  0.00    +0.000 A 
ATOM      8  C   UNL     1      46.709   8.118  13.191  0.00  0.00    +0.000 A 
ATOM      9  N   UNL     1      47.588   8.401  14.175  0.00  0.00    +0.000 NA
ATOM     10  H   UNL     1      49.306   8.768  15.736  0.00  0.00    +0.000 HD
BRANCH   7  11
ATOM     11  C   UNL     1      45.738   6.659  11.370  0.00  0.00    +0.000 C 
BRANCH  11  12
ATOM     12  C   UNL     1      44.919   5.422  11.662  0.00  0.00    +0.000 A 
ATOM     13  C   UNL     1      44.146   5.342  12.819  0.00  0.00    +0.000 A 
ATOM     14  C   UNL     1      43.502   4.144  13.117  0.00  0.00    +0.000 A 
ATOM     15  C   UNL     1      43.631   3.067  12.248  0.00  0.00    +0.000 A 
ATOM     16  C   UNL     1      44.386   3.242  11.101  0.00  0.00    +0.000 A 
ATOM     17  N   UNL     1      45.032   4.389  10.790  0.00  0.00    +0.000 NA
ENDBRANCH  11  12
ENDBRANCH   7  11
ENDBRANCH   2   3
BRANCH   2  18
ATOM     18  C   UNL     1      50.993   6.764  16.942  0.00  0.00    +0.000 C 
ATOM     19  O   UNL     1      51.403   7.563  17.792  0.00  0.00    +0.000 OA
BRANCH  18  20
ATOM     20  C   UNL     1      50.685   5.393  17.340  0.00  0.00    +0.000 A 
ATOM     21  C   UNL     1      51.608   4.374  17.493  0.00  0.00    +0.000 A 
ATOM     22  S   UNL     1      50.863   2.826  17.447  0.00  0.00    +0.000 S 
ATOM     23  C   UNL     1      49.305   3.516  17.388  0.00  0.00    +0.000 A 
ATOM     24  N   UNL     1      48.186   2.767  17.220  0.00  0.00    +0.000 NA
ATOM     25  C   UNL     1      47.087   3.446  17.271  0.00  0.00    +0.000 A 
ATOM     26  N   UNL     1      47.001   4.795  17.530  0.00  0.00    +0.000 N 
ATOM     27  C   UNL     1      48.106   5.594  17.755  0.00  0.00    +0.000 A 
ATOM     28  O   UNL     1      48.012   6.731  18.190  0.00  0.00    +0.000 OA
ATOM     29  C   UNL     1      49.365   4.887  17.539  0.00  0.00    +0.000 A 
ATOM     30  H   UNL     1      46.107   5.231  17.692  0.00  0.00    +0.000 HD
ENDBRANCH  18  20
ENDBRANCH   2  18
TORSDOF 5
ENDMDL
MODEL 8
REMARK VINA RESULT:    -7.075      3.213      8.597
REMARK INTER + INTRA:          -9.791
REMARK INTER:                  -9.058
REMARK INTRA:                  -0.733
REMARK UNBOUND:                -0.648
REMARK  Name = 
REMARK  6 active torsions:
REMARK  status: ('A' for Active; 'I' for Inactive)
REMARK    1  A    between atoms: C_1  and  C_2
REMARK    2  A    between atoms: C_2  and  N_3
REMARK    3  A    between atoms: C_2  and  C_17
REMARK    4  A    between atoms: C_7  and  C_8
REMARK    5  A    between atoms: C_8  and  C_9
REMARK    6  A    between atoms: C_17  and  C_19
REMARK                            x       y       z     vdW  Elec       q    Type
REMARK                         _______ _______ _______ _____ _____    ______ ____
ROOT
ATOM      1  C   UNL     1      48.093   6.584  12.142  0.00  0.00    +0.000 C 
ATOM      2  C   UNL     1      46.777   6.376  12.885  0.00  0.00    +0.000 C 
ENDROOT
BRANCH   2   3
ATOM      3  N   UNL     1      46.607   5.013  13.381  0.00  0.00    +0.000 N 
ATOM      4  C   UNL     1      47.214   4.579  14.528  0.00  0.00    +0.000 A 
ATOM      5  N   UNL     1      47.555   5.449  15.485  0.00  0.00    +0.000 NA
ATOM      6  C   UNL     1      48.127   4.938  16.598  0.00  0.00    +0.000 A 
ATOM      7  C   UNL     1      48.393   3.600  16.787  0.00  0.00    +0.000 A 
ATOM      8  C   UNL     1      48.000   2.796  15.742  0.00  0.00    +0.000 A 
ATOM      9  N   UNL     1      47.416   3.257  14.616  0.00  0.00    +0.000 NA
ATOM     10  H   UNL     1      46.559   4.280  12.681  0.00  0.00    +0.000 HD
BRANCH   7  11
ATOM     11  C   UNL     1      49.013   3.062  18.042  0.00  0.00    +0.000 C 
BRANCH  11  12
ATOM     12  C   UNL     1      50.485   2.751  17.890  0.00  0.00    +0.000 A 
ATOM     13  C   UNL     1      50.902   1.480  17.498  0.00  0.00    +0.000 A 
ATOM     14  C   UNL     1      52.265   1.192  17.487  0.00  0.00    +0.000 A 
ATOM     15  C   UNL     1      53.172   2.181  17.849  0.00  0.00    +0.000 A 
ATOM     16  C   UNL     1      52.677   3.428  18.188  0.00  0.00    +0.000 A 
ATOM     17  N   UNL     1      51.360   3.734  18.220  0.00  0.00    +0.000 NA
ENDBRANCH  11  12
ENDBRANCH   7  11
ENDBRANCH   2   3
BRANCH   2  18
ATOM     18  C   UNL     1      45.665   6.638  11.855  0.00  0.00    +0.000 C 
ATOM     19  O   UNL     1      45.644   7.709  11.237  0.00  0.00    +0.000 OA
BRANCH  18  20
ATOM     20  C   UNL     1      44.665   5.618  11.550  0.00  0.00    +0.000 A 
ATOM     21  C   UNL     1      43.528   5.359  12.296  0.00  0.00    +0.000 A 
ATOM     22  S   UNL     1      42.887   3.801  11.960  0.00  0.00    +0.000 S 
ATOM     23  C   UNL     1      44.020   3.542  10.713  0.00  0.00    +0.000 A 
ATOM     24  N   UNL     1      44.123   2.356  10.061  0.00  0.00    +0.000 NA
ATOM     25  C   UNL     1      44.985   2.359   9.097  0.00  0.00    +0.000 A 
ATOM     26  N   UNL     1      45.712   3.454   8.690  0.00  0.00    +0.000 N 
ATOM     27  C   UNL     1      45.610   4.695   9.288  0.00  0.00    +0.000 A 
ATOM     28  O   UNL     1      46.093   5.702   8.791  0.00  0.00    +0.000 OA
ATOM     29  C   UNL     1      44.770   4.678  10.482  0.00  0.00    +0.000 A 
ATOM     30  H   UNL     1      46.261   3.421   7.845  0.00  0.00    +0.000 HD
ENDBRANCH  18  20
ENDBRANCH   2  18
TORSDOF 5
ENDMDL
MODEL 9
REMARK VINA RESULT:    -6.692      2.618      3.525
REMARK INTER + INTRA:          -9.296
REMARK INTER:                  -8.509
REMARK INTRA:                  -0.787
REMARK UNBOUND:                -0.648
REMARK  Name = 
REMARK  6 active torsions:
REMARK  status: ('A' for Active; 'I' for Inactive)
REMARK    1  A    between atoms: C_1  and  C_2
REMARK    2  A    between atoms: C_2  and  N_3
REMARK    3  A    between atoms: C_2  and  C_17
REMARK    4  A    between atoms: C_7  and  C_8
REMARK    5  A    between atoms: C_8  and  C_9
REMARK    6  A    between atoms: C_17  and  C_19
REMARK                            x       y       z     vdW  Elec       q    Type
REMARK                         _______ _______ _______ _____ _____    ______ ____
ROOT
ATOM      1  C   UNL     1      49.913   7.730  14.667  0.00  0.00    +0.000 C 
ATOM      2  C   UNL     1      48.811   6.678  14.605  0.00  0.00    +0.000 C 
ENDROOT
BRANCH   2   3
ATOM      3  N   UNL     1      47.512   7.229  14.227  0.00  0.00    +0.000 N 
ATOM      4  C   UNL     1      46.709   6.623  13.300  0.00  0.00    +0.000 A 
ATOM      5  N   UNL     1      46.809   5.307  13.075  0.00  0.00    +0.000 NA
ATOM      6  C   UNL     1      45.963   4.779  12.163  0.00  0.00    +0.000 A 
ATOM      7  C   UNL     1      45.039   5.510  11.450  0.00  0.00    +0.000 A 
ATOM      8  C   UNL     1      45.022   6.850  11.761  0.00  0.00    +0.000 A 
ATOM      9  N   UNL     1      45.837   7.422  12.671  0.00  0.00    +0.000 NA
ATOM     10  H   UNL     1      47.448   8.241  14.174  0.00  0.00    +0.000 HD
BRANCH   7  11
ATOM     11  C   UNL     1      44.103   4.891  10.455  0.00  0.00    +0.000 C 
BRANCH  11  12
ATOM     12  C   UNL     1      44.805   4.004   9.451  0.00  0.00    +0.000 A 
ATOM     13  C   UNL     1      44.750   2.617   9.572  0.00  0.00    +0.000 A 
ATOM     14  C   UNL     1      45.507   1.835   8.704  0.00  0.00    +0.000 A 
ATOM     15  C   UNL     1      46.281   2.454   7.730  0.00  0.00    +0.000 A 
ATOM     16  C   UNL     1      46.249   3.835   7.652  0.00  0.00    +0.000 A 
ATOM     17  N   UNL     1      45.534   4.622   8.489  0.00  0.00    +0.000 NA
ENDBRANCH  11  12
ENDBRANCH   7  11
ENDBRANCH   2   3
BRANCH   2  18
ATOM     18  C   UNL     1      48.682   6.119  16.032  0.00  0.00    +0.000 C 
ATOM     19  O   UNL     1      47.868   5.218  16.264  0.00  0.00    +0.000 OA
BRANCH  18  20
ATOM     20  C   UNL     1      49.548   6.592  17.108  0.00  0.00    +0.000 A 
ATOM     21  C   UNL     1      50.760   6.030  17.471  0.00  0.00    +0.000 A 
ATOM     22  S   UNL     1      51.227   6.493  19.058  0.00  0.00    +0.000 S 
ATOM     23  C   UNL     1      49.906   7.563  19.196  0.00  0.00    +0.000 A 
ATOM     24  N   UNL     1      49.621   8.219  20.349  0.00  0.00    +0.000 NA
ATOM     25  C   UNL     1      48.629   9.042  20.253  0.00  0.00    +0.000 A 
ATOM     26  N   UNL     1      47.933   9.312  19.097  0.00  0.00    +0.000 N 
ATOM     27  C   UNL     1      48.214   8.708  17.887  0.00  0.00    +0.000 A 
ATOM     28  O   UNL     1      47.739   9.105  16.833  0.00  0.00    +0.000 OA
ATOM     29  C   UNL     1      49.217   7.654  18.003  0.00  0.00    +0.000 A 
ATOM     30  H   UNL     1      47.265  10.066  19.064  0.00  0.00    +0.000 HD
ENDBRANCH  18  20
ENDBRANCH   2  18
TORSDOF 5
ENDMDL
