MODEL 1
REMARK VINA RESULT:    -6.423      0.000      0.000
REMARK INTER + INTRA:          -8.006
REMARK INTER:                  -7.738
REMARK INTRA:                  -0.269
REMARK UNBOUND:                -0.269
REMARK  Name = 
REMARK  4 active torsions:
REMARK  status: ('A' for Active; 'I' for Inactive)
REMARK    1  A    between atoms: C_2  and  O_3
REMARK    2  A    between atoms: C_2  and  C_4
REMARK    3  A    between atoms: C_7  and  C_8
REMARK    4  A    between atoms: C_9  and  C_10
REMARK                            x       y       z     vdW  Elec       q    Type
REMARK                         _______ _______ _______ _____ _____    ______ ____
ROOT
ATOM      1  C   UNL     1      46.609   4.665  14.352  0.00  0.00    +0.000 C 
ATOM      2  C   UNL     1      47.054   4.591  15.465  0.00  0.00    +0.000 C 
ENDROOT
BRANCH   2   3
ATOM      3  C   UNL     1      47.579   4.374  16.781  0.00  0.00    +0.000 A 
ATOM      4  C   UNL     1      48.055   3.134  17.151  0.00  0.00    +0.000 A 
ATOM      5  N   UNL     1      48.643   2.927  18.340  0.00  0.00    +0.000 NA
ATOM      6  N   UNL     1      48.799   3.986  19.199  0.00  0.00    +0.000 NA
ATOM      7  C   UNL     1      48.345   5.226  18.900  0.00  0.00    +0.000 A 
ATOM      8  N   UNL     1      48.565   6.246  19.792  0.00  0.00    +0.000 N 
ATOM      9  C   UNL     1      49.796   6.244  20.592  0.00  0.00    +0.000 C 
ATOM     10  C   UNL     1      49.464   6.497  22.067  0.00  0.00    +0.000 C 
ATOM     11  O   UNL     1      48.692   7.702  22.227  0.00  0.00    +0.000 OA
ATOM     12  C   UNL     1      47.451   7.592  21.511  0.00  0.00    +0.000 C 
ATOM     13  C   UNL     1      47.674   7.384  19.999  0.00  0.00    +0.000 C 
ATOM     14  C   UNL     1      47.705   5.429  17.684  0.00  0.00    +0.000 A 
ENDBRANCH   2   3
BRANCH   1  18
ATOM     15  C   UNL     1      45.264   4.517  10.338  0.00  0.00    +0.000 A 
ATOM     16  C   UNL     1      45.831   5.688  10.854  0.00  0.00    +0.000 A 
ATOM     17  C   UNL     1      46.239   5.743  12.190  0.00  0.00    +0.000 A 
ATOM     18  C   UNL     1      46.091   4.626  13.016  0.00  0.00    +0.000 A 
ATOM     19  C   UNL     1      45.510   3.459  12.509  0.00  0.00    +0.000 A 
ATOM     20  C   UNL     1      45.101   3.400  11.169  0.00  0.00    +0.000 A 
BRANCH  15  22
ATOM     21  O   UNL     1      45.793   4.513   8.022  0.00  0.00    +0.000 OA
ATOM     22  C   UNL     1      44.939   4.486   8.890  0.00  0.00    +0.000 C 
BRANCH  22  23
ATOM     23  O   UNL     1      43.617   4.456   8.623  0.00  0.00    +0.000 OA
ATOM     24  H   UNL     1      43.044   4.802   9.330  0.00  0.00    +0.000 HD
ENDBRANCH  22  23
ENDBRANCH  15  22
ENDBRANCH   1  18
TORSDOF 4
ENDMDL
MODEL 2
REMARK VINA RESULT:    -6.305      5.513      7.221
REMARK INTER + INTRA:          -7.864
REMARK INTER:                  -7.571
REMARK INTRA:                  -0.293
REMARK UNBOUND:                -0.269
REMARK  Name = 
REMARK  4 active torsions:
REMARK  status: ('A' for Active; 'I' for Inactive)
REMARK    1  A    between atoms: C_2  and  O_3
REMARK    2  A    between atoms: C_2  and  C_4
REMARK    3  A    between atoms: C_7  and  C_8
REMARK    4  A    between atoms: C_9  and  C_10
REMARK                            x       y       z     vdW  Elec       q    Type
REMARK                         _______ _______ _______ _____ _____    ______ ____
ROOT
ATOM      1  C   UNL     1      45.996   3.932   8.391  0.00  0.00    +0.000 C 
ATOM      2  C   UNL     1      45.757   4.675   9.305  0.00  0.00    +0.000 C 
ENDROOT
BRANCH   2   3
ATOM      3  C   UNL     1      45.592   5.537  10.437  0.00  0.00    +0.000 A 
ATOM      4  C   UNL     1      44.411   5.540  11.150  0.00  0.00    +0.000 A 
ATOM      5  N   UNL     1      44.263   6.263  12.272  0.00  0.00    +0.000 NA
ATOM      6  N   UNL     1      45.326   6.996  12.737  0.00  0.00    +0.000 NA
ATOM      7  C   UNL     1      46.508   7.044  12.079  0.00  0.00    +0.000 A 
ATOM      8  N   UNL     1      47.541   7.771  12.619  0.00  0.00    +0.000 N 
ATOM      9  C   UNL     1      47.673   7.850  14.078  0.00  0.00    +0.000 C 
ATOM     10  C   UNL     1      47.875   9.307  14.509  0.00  0.00    +0.000 C 
ATOM     11  O   UNL     1      48.981   9.907  13.812  0.00  0.00    +0.000 OA
ATOM     12  C   UNL     1      48.736   9.899  12.395  0.00  0.00    +0.000 C 
ATOM     13  C   UNL     1      48.567   8.467  11.848  0.00  0.00    +0.000 C 
ATOM     14  C   UNL     1      46.647   6.323  10.898  0.00  0.00    +0.000 A 
ENDBRANCH   2   3
BRANCH   1  18
ATOM     15  C   UNL     1      47.004   1.227   5.292  0.00  0.00    +0.000 A 
ATOM     16  C   UNL     1      46.942   0.793   6.621  0.00  0.00    +0.000 A 
ATOM     17  C   UNL     1      46.644   1.698   7.644  0.00  0.00    +0.000 A 
ATOM     18  C   UNL     1      46.401   3.040   7.345  0.00  0.00    +0.000 A 
ATOM     19  C   UNL     1      46.479   3.482   6.020  0.00  0.00    +0.000 A 
ATOM     20  C   UNL     1      46.775   2.577   4.991  0.00  0.00    +0.000 A 
BRANCH  15  22
ATOM     21  O   UNL     1      47.622   0.485   3.121  0.00  0.00    +0.000 OA
ATOM     22  C   UNL     1      47.228   0.204   4.239  0.00  0.00    +0.000 C 
BRANCH  22  23
ATOM     23  O   UNL     1      46.928  -1.054   4.622  0.00  0.00    +0.000 OA
ATOM     24  H   UNL     1      47.568  -1.734   4.349  0.00  0.00    +0.000 HD
ENDBRANCH  22  23
ENDBRANCH  15  22
ENDBRANCH   1  18
TORSDOF 4
ENDMDL
MODEL 3
REMARK VINA RESULT:    -5.947      7.760     10.758
REMARK INTER + INTRA:          -7.433
REMARK INTER:                  -7.149
REMARK INTRA:                  -0.283
REMARK UNBOUND:                -0.269
REMARK  Name = 
REMARK  4 active torsions:
REMARK  status: ('A' for Active; 'I' for Inactive)
REMARK    1  A    between atoms: C_2  and  O_3
REMARK    2  A    between atoms: C_2  and  C_4
REMARK    3  A    between atoms: C_7  and  C_8
REMARK    4  A    between atoms: C_9  and  C_10
REMARK                            x       y       z     vdW  Elec       q    Type
REMARK                         _______ _______ _______ _____ _____    ______ ____
ROOT
ATOM      1  C   UNL     1      44.385   8.195  11.402  0.00  0.00    +0.000 C 
ATOM      2  C   UNL     1      43.737   9.065  10.887  0.00  0.00    +0.000 C 
ENDROOT
BRANCH   2   3
ATOM      3  C   UNL     1      42.877  10.087  10.367  0.00  0.00    +0.000 A 
ATOM      4  C   UNL     1      43.311  10.926   9.363  0.00  0.00    +0.000 A 
ATOM      5  N   UNL     1      42.497  11.825   8.789  0.00  0.00    +0.000 NA
ATOM      6  N   UNL     1      41.187  11.891   9.194  0.00  0.00    +0.000 NA
ATOM      7  C   UNL     1      40.700  11.103  10.182  0.00  0.00    +0.000 A 
ATOM      8  N   UNL     1      39.371  11.199  10.514  0.00  0.00    +0.000 N 
ATOM      9  C   UNL     1      38.392  11.504   9.464  0.00  0.00    +0.000 C 
ATOM     10  C   UNL     1      37.459  12.628   9.927  0.00  0.00    +0.000 C 
ATOM     11  O   UNL     1      36.848  12.310  11.190  0.00  0.00    +0.000 OA
ATOM     12  C   UNL     1      37.857  12.135  12.199  0.00  0.00    +0.000 C 
ATOM     13  C   UNL     1      38.826  10.986  11.851  0.00  0.00    +0.000 C 
ATOM     14  C   UNL     1      41.555  10.198  10.799  0.00  0.00    +0.000 A 
ENDBRANCH   2   3
BRANCH   1  18
ATOM     15  C   UNL     1      46.384   5.228  13.670  0.00  0.00    +0.000 A 
ATOM     16  C   UNL     1      47.037   6.416  13.323  0.00  0.00    +0.000 A 
ATOM     17  C   UNL     1      46.385   7.376  12.543  0.00  0.00    +0.000 A 
ATOM     18  C   UNL     1      45.074   7.158  12.111  0.00  0.00    +0.000 A 
ATOM     19  C   UNL     1      44.424   5.965  12.442  0.00  0.00    +0.000 A 
ATOM     20  C   UNL     1      45.074   5.000  13.225  0.00  0.00    +0.000 A 
BRANCH  15  22
ATOM     21  O   UNL     1      47.390   3.156  14.251  0.00  0.00    +0.000 OA
ATOM     22  C   UNL     1      47.090   4.290  14.579  0.00  0.00    +0.000 C 
BRANCH  22  23
ATOM     23  O   UNL     1      47.340   4.795  15.805  0.00  0.00    +0.000 OA
ATOM     24  H   UNL     1      47.757   5.674  15.814  0.00  0.00    +0.000 HD
ENDBRANCH  22  23
ENDBRANCH  15  22
ENDBRANCH   1  18
TORSDOF 4
ENDMDL
MODEL 4
REMARK VINA RESULT:    -5.917      2.289      2.797
REMARK INTER + INTRA:          -7.397
REMARK INTER:                  -7.118
REMARK INTRA:                  -0.279
REMARK UNBOUND:                -0.269
REMARK  Name = 
REMARK  4 active torsions:
REMARK  status: ('A' for Active; 'I' for Inactive)
REMARK    1  A    between atoms: C_2  and  O_3
REMARK    2  A    between atoms: C_2  and  C_4
REMARK    3  A    between atoms: C_7  and  C_8
REMARK    4  A    between atoms: C_9  and  C_10
REMARK                            x       y       z     vdW  Elec       q    Type
REMARK                         _______ _______ _______ _____ _____    ______ ____
ROOT
ATOM      1  C   UNL     1      46.888   4.610  14.552  0.00  0.00    +0.000 C 
ATOM      2  C   UNL     1      47.406   4.684  15.634  0.00  0.00    +0.000 C 
ENDROOT
BRANCH   2   3
ATOM      3  C   UNL     1      48.064   4.891  16.889  0.00  0.00    +0.000 A 
ATOM      4  C   UNL     1      47.347   4.888  18.067  0.00  0.00    +0.000 A 
ATOM      5  N   UNL     1      47.949   4.980  19.264  0.00  0.00    +0.000 NA
ATOM      6  N   UNL     1      49.318   5.050  19.316  0.00  0.00    +0.000 NA
ATOM      7  C   UNL     1      50.080   5.067  18.197  0.00  0.00    +0.000 A 
ATOM      8  N   UNL     1      51.447   5.105  18.325  0.00  0.00    +0.000 N 
ATOM      9  C   UNL     1      52.078   4.420  19.459  0.00  0.00    +0.000 C 
ATOM     10  C   UNL     1      53.088   5.352  20.138  0.00  0.00    +0.000 C 
ATOM     11  O   UNL     1      54.041   5.866  19.191  0.00  0.00    +0.000 OA
ATOM     12  C   UNL     1      53.367   6.621  18.170  0.00  0.00    +0.000 C 
ATOM     13  C   UNL     1      52.357   5.756  17.387  0.00  0.00    +0.000 C 
ATOM     14  C   UNL     1      49.452   5.009  16.959  0.00  0.00    +0.000 A 
ENDBRANCH   2   3
BRANCH   1  18
ATOM     15  C   UNL     1      45.348   4.671  10.607  0.00  0.00    +0.000 A 
ATOM     16  C   UNL     1      45.954   5.810  11.150  0.00  0.00    +0.000 A 
ATOM     17  C   UNL     1      46.428   5.795  12.465  0.00  0.00    +0.000 A 
ATOM     18  C   UNL     1      46.306   4.642  13.243  0.00  0.00    +0.000 A 
ATOM     19  C   UNL     1      45.685   3.507  12.710  0.00  0.00    +0.000 A 
ATOM     20  C   UNL     1      45.210   3.517  11.391  0.00  0.00    +0.000 A 
BRANCH  15  22
ATOM     21  O   UNL     1      45.758   4.852   8.274  0.00  0.00    +0.000 OA
ATOM     22  C   UNL     1      44.952   4.714   9.177  0.00  0.00    +0.000 C 
BRANCH  22  23
ATOM     23  O   UNL     1      43.622   4.618   8.971  0.00  0.00    +0.000 OA
ATOM     24  H   UNL     1      43.272   3.711   8.943  0.00  0.00    +0.000 HD
ENDBRANCH  22  23
ENDBRANCH  15  22
ENDBRANCH   1  18
TORSDOF 4
ENDMDL
MODEL 5
REMARK VINA RESULT:    -5.783      1.938      2.440
REMARK INTER + INTRA:          -7.235
REMARK INTER:                  -6.944
REMARK INTRA:                  -0.291
REMARK UNBOUND:                -0.269
REMARK  Name = 
REMARK  4 active torsions:
REMARK  status: ('A' for Active; 'I' for Inactive)
REMARK    1  A    between atoms: C_2  and  O_3
REMARK    2  A    between atoms: C_2  and  C_4
REMARK    3  A    between atoms: C_7  and  C_8
REMARK    4  A    between atoms: C_9  and  C_10
REMARK                            x       y       z     vdW  Elec       q    Type
REMARK                         _______ _______ _______ _____ _____    ______ ____
ROOT
ATOM      1  C   UNL     1      47.518   5.982  13.908  0.00  0.00    +0.000 C 
ATOM      2  C   UNL     1      48.282   6.342  14.762  0.00  0.00    +0.000 C 
ENDROOT
BRANCH   2   3
ATOM      3  C   UNL     1      49.164   6.663  15.845  0.00  0.00    +0.000 A 
ATOM      4  C   UNL     1      50.345   7.336  15.611  0.00  0.00    +0.000 A 
ATOM      5  N   UNL     1      51.143   7.737  16.614  0.00  0.00    +0.000 NA
ATOM      6  N   UNL     1      50.756   7.495  17.909  0.00  0.00    +0.000 NA
ATOM      7  C   UNL     1      49.614   6.832  18.206  0.00  0.00    +0.000 A 
ATOM      8  N   UNL     1      49.272   6.655  19.524  0.00  0.00    +0.000 N 
ATOM      9  C   UNL     1      49.623   7.693  20.499  0.00  0.00    +0.000 C 
ATOM     10  C   UNL     1      50.288   7.059  21.726  0.00  0.00    +0.000 C 
ATOM     11  O   UNL     1      49.466   6.018  22.284  0.00  0.00    +0.000 OA
ATOM     12  C   UNL     1      49.255   4.980  21.313  0.00  0.00    +0.000 C 
ATOM     13  C   UNL     1      48.541   5.506  20.051  0.00  0.00    +0.000 C 
ATOM     14  C   UNL     1      48.809   6.386  17.164  0.00  0.00    +0.000 A 
ENDBRANCH   2   3
BRANCH   1  18
ATOM     15  C   UNL     1      44.947   4.334  10.972  0.00  0.00    +0.000 A 
ATOM     16  C   UNL     1      45.473   5.622  10.814  0.00  0.00    +0.000 A 
ATOM     17  C   UNL     1      46.291   6.175  11.803  0.00  0.00    +0.000 A 
ATOM     18  C   UNL     1      46.595   5.443  12.954  0.00  0.00    +0.000 A 
ATOM     19  C   UNL     1      46.058   4.162  13.123  0.00  0.00    +0.000 A 
ATOM     20  C   UNL     1      45.238   3.604  12.133  0.00  0.00    +0.000 A 
BRANCH  15  22
ATOM     21  O   UNL     1      44.009   2.565   9.695  0.00  0.00    +0.000 OA
ATOM     22  C   UNL     1      44.165   3.763   9.847  0.00  0.00    +0.000 C 
BRANCH  22  23
ATOM     23  O   UNL     1      43.672   4.685   8.995  0.00  0.00    +0.000 OA
ATOM     24  H   UNL     1      43.692   4.434   8.056  0.00  0.00    +0.000 HD
ENDBRANCH  22  23
ENDBRANCH  15  22
ENDBRANCH   1  18
TORSDOF 4
ENDMDL
MODEL 6
REMARK VINA RESULT:    -5.700      2.610      3.593
REMARK INTER + INTRA:          -7.135
REMARK INTER:                  -6.845
REMARK INTRA:                  -0.289
REMARK UNBOUND:                -0.269
REMARK  Name = 
REMARK  4 active torsions:
REMARK  status: ('A' for Active; 'I' for Inactive)
REMARK    1  A    between atoms: C_2  and  O_3
REMARK    2  A    between atoms: C_2  and  C_4
REMARK    3  A    between atoms: C_7  and  C_8
REMARK    4  A    between atoms: C_9  and  C_10
REMARK                            x       y       z     vdW  Elec       q    Type
REMARK                         _______ _______ _______ _____ _____    ______ ____
ROOT
ATOM      1  C   UNL     1      47.780   5.906  14.330  0.00  0.00    +0.000 C 
ATOM      2  C   UNL     1      48.487   6.231  15.244  0.00  0.00    +0.000 C 
ENDROOT
BRANCH   2   3
ATOM      3  C   UNL     1      49.252   6.552  16.412  0.00  0.00    +0.000 A 
ATOM      4  C   UNL     1      49.226   7.826  16.940  0.00  0.00    +0.000 A 
ATOM      5  N   UNL     1      49.852   8.131  18.088  0.00  0.00    +0.000 NA
ATOM      6  N   UNL     1      50.513   7.140  18.769  0.00  0.00    +0.000 NA
ATOM      7  C   UNL     1      50.585   5.871  18.300  0.00  0.00    +0.000 A 
ATOM      8  N   UNL     1      51.234   4.922  19.051  0.00  0.00    +0.000 N 
ATOM      9  C   UNL     1      51.182   5.009  20.515  0.00  0.00    +0.000 C 
ATOM     10  C   UNL     1      52.590   4.853  21.100  0.00  0.00    +0.000 C 
ATOM     11  O   UNL     1      53.218   3.646  20.632  0.00  0.00    +0.000 OA
ATOM     12  C   UNL     1      53.339   3.676  19.199  0.00  0.00    +0.000 C 
ATOM     13  C   UNL     1      51.965   3.782  18.506  0.00  0.00    +0.000 C 
ATOM     14  C   UNL     1      49.966   5.567  17.094  0.00  0.00    +0.000 A 
ENDBRANCH   2   3
BRANCH   1  18
ATOM     15  C   UNL     1      44.945   4.580  11.475  0.00  0.00    +0.000 A 
ATOM     16  C   UNL     1      45.375   3.727  12.498  0.00  0.00    +0.000 A 
ATOM     17  C   UNL     1      46.338   4.157  13.416  0.00  0.00    +0.000 A 
ATOM     18  C   UNL     1      46.872   5.445  13.322  0.00  0.00    +0.000 A 
ATOM     19  C   UNL     1      46.457   6.295  12.291  0.00  0.00    +0.000 A 
ATOM     20  C   UNL     1      45.491   5.867  11.369  0.00  0.00    +0.000 A 
BRANCH  15  22
ATOM     21  O   UNL     1      43.225   3.083  10.809  0.00  0.00    +0.000 OA
ATOM     22  C   UNL     1      43.852   4.104  10.591  0.00  0.00    +0.000 C 
BRANCH  22  23
ATOM     23  O   UNL     1      43.638   4.884   9.511  0.00  0.00    +0.000 OA
ATOM     24  H   UNL     1      42.781   5.344   9.496  0.00  0.00    +0.000 HD
ENDBRANCH  22  23
ENDBRANCH  15  22
ENDBRANCH   1  18
TORSDOF 4
ENDMDL
MODEL 7
REMARK VINA RESULT:    -5.510      5.879      8.789
REMARK INTER + INTRA:          -6.906
REMARK INTER:                  -6.622
REMARK INTRA:                  -0.284
REMARK UNBOUND:                -0.269
REMARK  Name = 
REMARK  4 active torsions:
REMARK  status: ('A' for Active; 'I' for Inactive)
REMARK    1  A    between atoms: C_2  and  O_3
REMARK    2  A    between atoms: C_2  and  C_4
REMARK    3  A    between atoms: C_7  and  C_8
REMARK    4  A    between atoms: C_9  and  C_10
REMARK                            x       y       z     vdW  Elec       q    Type
REMARK                         _______ _______ _______ _____ _____    ______ ____
ROOT
ATOM      1  C   UNL     1      49.412   8.752  11.925  0.00  0.00    +0.000 C 
ATOM      2  C   UNL     1      48.788   7.863  12.439  0.00  0.00    +0.000 C 
ENDROOT
BRANCH   2   3
ATOM      3  C   UNL     1      48.041   6.746  12.936  0.00  0.00    +0.000 A 
ATOM      4  C   UNL     1      48.288   6.241  14.195  0.00  0.00    +0.000 A 
ATOM      5  N   UNL     1      47.538   5.261  14.725  0.00  0.00    +0.000 NA
ATOM      6  N   UNL     1      46.479   4.769  14.004  0.00  0.00    +0.000 NA
ATOM      7  C   UNL     1      46.190   5.214  12.758  0.00  0.00    +0.000 A 
ATOM      8  N   UNL     1      45.095   4.701  12.108  0.00  0.00    +0.000 N 
ATOM      9  C   UNL     1      43.913   4.319  12.888  0.00  0.00    +0.000 C 
ATOM     10  C   UNL     1      43.442   2.919  12.477  0.00  0.00    +0.000 C 
ATOM     11  O   UNL     1      43.227   2.839  11.057  0.00  0.00    +0.000 OA
ATOM     12  C   UNL     1      44.451   3.114  10.355  0.00  0.00    +0.000 C 
ATOM     13  C   UNL     1      44.987   4.527  10.662  0.00  0.00    +0.000 C 
ATOM     14  C   UNL     1      46.989   6.203  12.198  0.00  0.00    +0.000 A 
ENDBRANCH   2   3
BRANCH   1  18
ATOM     15  C   UNL     1      51.580  11.576   9.631  0.00  0.00    +0.000 A 
ATOM     16  C   UNL     1      52.183  10.382  10.041  0.00  0.00    +0.000 A 
ATOM     17  C   UNL     1      51.474   9.470  10.828  0.00  0.00    +0.000 A 
ATOM     18  C   UNL     1      50.157   9.742  11.206  0.00  0.00    +0.000 A 
ATOM     19  C   UNL     1      49.557  10.943  10.813  0.00  0.00    +0.000 A 
ATOM     20  C   UNL     1      50.263  11.859  10.022  0.00  0.00    +0.000 A 
BRANCH  15  22
ATOM     21  O   UNL     1      51.877  12.904   7.684  0.00  0.00    +0.000 OA
ATOM     22  C   UNL     1      52.346  12.460   8.717  0.00  0.00    +0.000 C 
BRANCH  22  23
ATOM     23  O   UNL     1      53.612  12.700   9.116  0.00  0.00    +0.000 OA
ATOM     24  H   UNL     1      53.775  13.597   9.457  0.00  0.00    +0.000 HD
ENDBRANCH  22  23
ENDBRANCH  15  22
ENDBRANCH   1  18
TORSDOF 4
ENDMDL
MODEL 8
REMARK VINA RESULT:    -5.195      3.726      9.741
REMARK INTER + INTRA:          -6.527
REMARK INTER:                  -6.246
REMARK INTRA:                  -0.280
REMARK UNBOUND:                -0.269
REMARK  Name = 
REMARK  4 active torsions:
REMARK  status: ('A' for Active; 'I' for Inactive)
REMARK    1  A    between atoms: C_2  and  O_3
REMARK    2  A    between atoms: C_2  and  C_4
REMARK    3  A    between atoms: C_7  and  C_8
REMARK    4  A    between atoms: C_9  and  C_10
REMARK                            x       y       z     vdW  Elec       q    Type
REMARK                         _______ _______ _______ _____ _____    ______ ____
ROOT
ATOM      1  C   UNL     1      49.060   6.406  15.897  0.00  0.00    +0.000 C 
ATOM      2  C   UNL     1      48.361   6.584  14.937  0.00  0.00    +0.000 C 
ENDROOT
BRANCH   2   3
ATOM      3  C   UNL     1      47.434   6.731  13.854  0.00  0.00    +0.000 A 
ATOM      4  C   UNL     1      47.201   7.969  13.293  0.00  0.00    +0.000 A 
ATOM      5  N   UNL     1      46.415   8.122  12.215  0.00  0.00    +0.000 NA
ATOM      6  N   UNL     1      45.851   7.011  11.639  0.00  0.00    +0.000 NA
ATOM      7  C   UNL     1      46.032   5.769  12.147  0.00  0.00    +0.000 A 
ATOM      8  N   UNL     1      45.466   4.698  11.499  0.00  0.00    +0.000 N 
ATOM      9  C   UNL     1      45.347   4.728  10.037  0.00  0.00    +0.000 C 
ATOM     10  C   UNL     1      43.927   4.330   9.618  0.00  0.00    +0.000 C 
ATOM     11  O   UNL     1      43.553   3.062  10.187  0.00  0.00    +0.000 OA
ATOM     12  C   UNL     1      43.582   3.135  11.622  0.00  0.00    +0.000 C 
ATOM     13  C   UNL     1      44.988   3.483  12.153  0.00  0.00    +0.000 C 
ATOM     14  C   UNL     1      46.817   5.618  13.284  0.00  0.00    +0.000 A 
ENDBRANCH   2   3
BRANCH   1  18
ATOM     15  C   UNL     1      51.208   5.436  19.416  0.00  0.00    +0.000 A 
ATOM     16  C   UNL     1      49.810   5.392  19.404  0.00  0.00    +0.000 A 
ATOM     17  C   UNL     1      49.104   5.749  18.251  0.00  0.00    +0.000 A 
ATOM     18  C   UNL     1      49.792   6.145  17.101  0.00  0.00    +0.000 A 
ATOM     19  C   UNL     1      51.189   6.206  17.115  0.00  0.00    +0.000 A 
ATOM     20  C   UNL     1      51.900   5.848  18.269  0.00  0.00    +0.000 A 
BRANCH  15  22
ATOM     21  O   UNL     1      51.828   5.528  21.708  0.00  0.00    +0.000 OA
ATOM     22  C   UNL     1      51.905   4.955  20.636  0.00  0.00    +0.000 C 
BRANCH  22  23
ATOM     23  O   UNL     1      52.652   3.849  20.443  0.00  0.00    +0.000 OA
ATOM     24  H   UNL     1      53.447   3.976  19.896  0.00  0.00    +0.000 HD
ENDBRANCH  22  23
ENDBRANCH  15  22
ENDBRANCH   1  18
TORSDOF 4
ENDMDL
MODEL 9
REMARK VINA RESULT:    -5.175      6.726      9.001
REMARK INTER + INTRA:          -6.503
REMARK INTER:                  -6.216
REMARK INTRA:                  -0.287
REMARK UNBOUND:                -0.269
REMARK  Name = 
REMARK  4 active torsions:
REMARK  status: ('A' for Active; 'I' for Inactive)
REMARK    1  A    between atoms: C_2  and  O_3
REMARK    2  A    between atoms: C_2  and  C_4
REMARK    3  A    between atoms: C_7  and  C_8
REMARK    4  A    between atoms: C_9  and  C_10
REMARK                            x       y       z     vdW  Elec       q    Type
REMARK                         _______ _______ _______ _____ _____    ______ ____
ROOT
ATOM      1  C   UNL     1      42.615  10.331  10.735  0.00  0.00    +0.000 C 
ATOM      2  C   UNL     1      43.601   9.740  11.086  0.00  0.00    +0.000 C 
ENDROOT
BRANCH   2   3
ATOM      3  C   UNL     1      44.697   8.941  11.547  0.00  0.00    +0.000 A 
ATOM      4  C   UNL     1      45.926   9.514  11.797  0.00  0.00    +0.000 A 
ATOM      5  N   UNL     1      46.942   8.811  12.322  0.00  0.00    +0.000 NA
ATOM      6  N   UNL     1      46.742   7.492  12.645  0.00  0.00    +0.000 NA
ATOM      7  C   UNL     1      45.562   6.868  12.416  0.00  0.00    +0.000 A 
ATOM      8  N   UNL     1      45.421   5.555  12.796  0.00  0.00    +0.000 N 
ATOM      9  C   UNL     1      46.119   5.079  13.995  0.00  0.00    +0.000 C 
ATOM     10  C   UNL     1      46.851   3.767  13.690  0.00  0.00    +0.000 C 
ATOM     11  O   UNL     1      45.955   2.788  13.135  0.00  0.00    +0.000 OA
ATOM     12  C   UNL     1      45.393   3.273  11.904  0.00  0.00    +0.000 C 
ATOM     13  C   UNL     1      44.588   4.572  12.110  0.00  0.00    +0.000 C 
ATOM     14  C   UNL     1      44.524   7.589  11.839  0.00  0.00    +0.000 A 
ENDBRANCH   2   3
BRANCH   1  18
ATOM     15  C   UNL     1      38.961  12.016   9.412  0.00  0.00    +0.000 A 
ATOM     16  C   UNL     1      40.183  12.592   9.044  0.00  0.00    +0.000 A 
ATOM     17  C   UNL     1      41.384  12.053   9.513  0.00  0.00    +0.000 A 
ATOM     18  C   UNL     1      41.374  10.932  10.347  0.00  0.00    +0.000 A 
ATOM     19  C   UNL     1      40.155  10.364  10.730  0.00  0.00    +0.000 A 
ATOM     20  C   UNL     1      38.947  10.900  10.261  0.00  0.00    +0.000 A 
BRANCH  15  22
ATOM     21  O   UNL     1      36.733  12.837   9.461  0.00  0.00    +0.000 OA
ATOM     22  C   UNL     1      37.725  12.571   8.806  0.00  0.00    +0.000 C 
BRANCH  22  23
ATOM     23  O   UNL     1      37.788  12.722   7.467  0.00  0.00    +0.000 OA
ATOM     24  H   UNL     1      37.453  11.970   6.949  0.00  0.00    +0.000 HD
ENDBRANCH  22  23
ENDBRANCH  15  22
ENDBRANCH   1  18
TORSDOF 4
ENDMDL
