MODEL 1
REMARK VINA RESULT:    -7.350      0.000      0.000
REMARK INTER + INTRA:         -10.733
REMARK INTER:                 -10.143
REMARK INTRA:                  -0.590
REMARK UNBOUND:                -0.590
REMARK  Name = 
REMARK  8 active torsions:
REMARK  status: ('A' for Active; 'I' for Inactive)
REMARK    1  A    between atoms: C_1  and  C_2
REMARK    2  A    between atoms: C_2  and  C_3
REMARK    3  A    between atoms: C_6  and  C_7
REMARK    4  A    between atoms: C_7  and  C_8
REMARK    5  A    between atoms: C_8  and  C_9
REMARK    6  A    between atoms: C_13  and  C_14
REMARK    7  A    between atoms: C_14  and  N_15
REMARK    8  A    between atoms: C_18  and  C_19
REMARK                            x       y       z     vdW  Elec       q    Type
REMARK                         _______ _______ _______ _____ _____    ______ ____
ROOT
ATOM      1  C   UNL     1      46.972   6.108  12.961  0.00  0.00    +0.000 A 
ATOM      2  C   UNL     1      46.510   6.666  11.773  0.00  0.00    +0.000 A 
ATOM      3  N   UNL     1      45.567   6.116  10.975  0.00  0.00    +0.000 NA
ATOM      4  C   UNL     1      45.052   4.922  11.340  0.00  0.00    +0.000 A 
ATOM      5  C   UNL     1      45.518   4.245  12.462  0.00  0.00    +0.000 A 
ATOM      6  C   UNL     1      46.466   4.847  13.298  0.00  0.00    +0.000 A 
ENDROOT
BRANCH   6   7
ATOM      7  C   UNL     1      46.920   4.100  14.504  0.00  0.00    +0.000 C 
ATOM      8  N   UNL     1      46.575   4.591  15.732  0.00  0.00    +0.000 N 
ATOM      9  O   UNL     1      47.581   3.071  14.422  0.00  0.00    +0.000 OA
ATOM     10  H   UNL     1      46.177   5.507  15.885  0.00  0.00    +0.000 HD
ATOM     11  H   UNL     1      46.942   4.095  16.534  0.00  0.00    +0.000 HD
ENDBRANCH   6   7
BRANCH   1  13
ATOM     12  C   UNL     1      48.921   7.707  12.960  0.00  0.00    +0.000 C 
ATOM     13  C   UNL     1      47.952   6.887  13.798  0.00  0.00    +0.000 C 
ENDBRANCH   1  13
BRANCH   4  14
ATOM     14  C   UNL     1      43.946   4.372  10.464  0.00  0.00    +0.000 C 
BRANCH  14  15
ATOM     15  C   UNL     1      44.290   4.417   8.970  0.00  0.00    +0.000 C 
BRANCH  15  16
ATOM     16  C   UNL     1      45.206   3.353   8.420  0.00  0.00    +0.000 A 
ATOM     17  C   UNL     1      45.187   2.084   9.018  0.00  0.00    +0.000 A 
ATOM     18  C   UNL     1      45.898   1.024   8.464  0.00  0.00    +0.000 A 
ATOM     19  C   UNL     1      46.627   1.215   7.291  0.00  0.00    +0.000 A 
ATOM     20  C   UNL     1      46.675   2.475   6.677  0.00  0.00    +0.000 A 
ATOM     21  C   UNL     1      45.961   3.539   7.256  0.00  0.00    +0.000 A 
BRANCH  20  22
ATOM     22  C   UNL     1      47.350   2.696   5.344  0.00  0.00    +0.000 C 
BRANCH  22  23
ATOM     23  N   UNL     1      48.394   1.722   5.042  0.00  0.00    +0.000 NA
ATOM     24  H   UNL     1      47.953   0.821   4.865  0.00  0.00    +0.000 HD
ATOM     25  H   UNL     1      48.974   1.600   5.868  0.00  0.00    +0.000 HD
ENDBRANCH  22  23
ENDBRANCH  20  22
ENDBRANCH  15  16
ENDBRANCH  14  15
ENDBRANCH   4  14
TORSDOF 7
ENDMDL
MODEL 2
REMARK VINA RESULT:    -7.024      1.778      2.343
REMARK INTER + INTRA:         -10.283
REMARK INTER:                  -9.604
REMARK INTRA:                  -0.679
REMARK UNBOUND:                -0.590
REMARK  Name = 
REMARK  8 active torsions:
REMARK  status: ('A' for Active; 'I' for Inactive)
REMARK    1  A    between atoms: C_1  and  C_2
REMARK    2  A    between atoms: C_2  and  C_3
REMARK    3  A    between atoms: C_6  and  C_7
REMARK    4  A    between atoms: C_7  and  C_8
REMARK    5  A    between atoms: C_8  and  C_9
REMARK    6  A    between atoms: C_13  and  C_14
REMARK    7  A    between atoms: C_14  and  N_15
REMARK    8  A    between atoms: C_18  and  C_19
REMARK                            x       y       z     vdW  Elec       q    Type
REMARK                         _______ _______ _______ _____ _____    ______ ____
ROOT
ATOM      1  C   UNL     1      45.864   7.094  12.773  0.00  0.00    +0.000 A 
ATOM      2  C   UNL     1      44.781   6.803  11.949  0.00  0.00    +0.000 A 
ATOM      3  N   UNL     1      44.400   5.558  11.583  0.00  0.00    +0.000 NA
ATOM      4  C   UNL     1      45.138   4.518  12.026  0.00  0.00    +0.000 A 
ATOM      5  C   UNL     1      46.291   4.717  12.778  0.00  0.00    +0.000 A 
ATOM      6  C   UNL     1      46.649   6.008  13.180  0.00  0.00    +0.000 A 
ENDROOT
BRANCH   6   7
ATOM      7  C   UNL     1      47.877   6.176  14.007  0.00  0.00    +0.000 C 
ATOM      8  N   UNL     1      47.801   5.876  15.339  0.00  0.00    +0.000 N 
ATOM      9  O   UNL     1      48.936   6.565  13.529  0.00  0.00    +0.000 OA
ATOM     10  H   UNL     1      46.937   5.707  15.833  0.00  0.00    +0.000 HD
ATOM     11  H   UNL     1      48.634   6.051  15.887  0.00  0.00    +0.000 HD
ENDBRANCH   6   7
BRANCH   1  13
ATOM     12  C   UNL     1      45.395   9.520  12.276  0.00  0.00    +0.000 C 
ATOM     13  C   UNL     1      46.107   8.523  13.178  0.00  0.00    +0.000 C 
ENDBRANCH   1  13
BRANCH   4  14
ATOM     14  C   UNL     1      44.638   3.136  11.659  0.00  0.00    +0.000 C 
BRANCH  14  15
ATOM     15  C   UNL     1      44.035   3.074  10.250  0.00  0.00    +0.000 C 
BRANCH  15  16
ATOM     16  C   UNL     1      44.979   3.023   9.076  0.00  0.00    +0.000 A 
ATOM     17  C   UNL     1      45.347   4.231   8.464  0.00  0.00    +0.000 A 
ATOM     18  C   UNL     1      46.327   4.261   7.476  0.00  0.00    +0.000 A 
ATOM     19  C   UNL     1      46.965   3.081   7.096  0.00  0.00    +0.000 A 
ATOM     20  C   UNL     1      46.610   1.856   7.680  0.00  0.00    +0.000 A 
ATOM     21  C   UNL     1      45.611   1.842   8.669  0.00  0.00    +0.000 A 
BRANCH  20  22
ATOM     22  C   UNL     1      47.358   0.578   7.387  0.00  0.00    +0.000 C 
BRANCH  22  23
ATOM     23  N   UNL     1      46.620  -0.632   7.733  0.00  0.00    +0.000 NA
ATOM     24  H   UNL     1      46.935  -1.387   7.125  0.00  0.00    +0.000 HD
ATOM     25  H   UNL     1      45.636  -0.485   7.522  0.00  0.00    +0.000 HD
ENDBRANCH  22  23
ENDBRANCH  20  22
ENDBRANCH  15  16
ENDBRANCH  14  15
ENDBRANCH   4  14
TORSDOF 7
ENDMDL
MODEL 3
REMARK VINA RESULT:    -6.977      1.946      2.748
REMARK INTER + INTRA:         -10.218
REMARK INTER:                  -9.572
REMARK INTRA:                  -0.646
REMARK UNBOUND:                -0.590
REMARK  Name = 
REMARK  8 active torsions:
REMARK  status: ('A' for Active; 'I' for Inactive)
REMARK    1  A    between atoms: C_1  and  C_2
REMARK    2  A    between atoms: C_2  and  C_3
REMARK    3  A    between atoms: C_6  and  C_7
REMARK    4  A    between atoms: C_7  and  C_8
REMARK    5  A    between atoms: C_8  and  C_9
REMARK    6  A    between atoms: C_13  and  C_14
REMARK    7  A    between atoms: C_14  and  N_15
REMARK    8  A    between atoms: C_18  and  C_19
REMARK                            x       y       z     vdW  Elec       q    Type
REMARK                         _______ _______ _______ _____ _____    ______ ____
ROOT
ATOM      1  C   UNL     1      46.880   5.614  13.671  0.00  0.00    +0.000 A 
ATOM      2  C   UNL     1      46.425   4.300  13.730  0.00  0.00    +0.000 A 
ATOM      3  N   UNL     1      45.442   3.786  12.955  0.00  0.00    +0.000 NA
ATOM      4  C   UNL     1      44.835   4.613  12.077  0.00  0.00    +0.000 A 
ATOM      5  C   UNL     1      45.159   5.964  12.012  0.00  0.00    +0.000 A 
ATOM      6  C   UNL     1      46.205   6.470  12.792  0.00  0.00    +0.000 A 
ENDROOT
BRANCH   6   7
ATOM      7  C   UNL     1      46.538   7.918  12.674  0.00  0.00    +0.000 C 
ATOM      8  N   UNL     1      45.853   8.801  13.461  0.00  0.00    +0.000 N 
ATOM      9  O   UNL     1      47.399   8.328  11.905  0.00  0.00    +0.000 OA
ATOM     10  H   UNL     1      45.028   8.563  13.994  0.00  0.00    +0.000 HD
ATOM     11  H   UNL     1      46.060   9.781  13.322  0.00  0.00    +0.000 HD
ENDBRANCH   6   7
BRANCH   1  13
ATOM     12  C   UNL     1      48.061   5.325  15.878  0.00  0.00    +0.000 C 
ATOM     13  C   UNL     1      48.052   6.017  14.524  0.00  0.00    +0.000 C 
ENDBRANCH   1  13
BRANCH   4  14
ATOM     14  C   UNL     1      43.792   3.986  11.175  0.00  0.00    +0.000 C 
BRANCH  14  15
ATOM     15  C   UNL     1      44.313   2.748  10.432  0.00  0.00    +0.000 C 
BRANCH  15  16
ATOM     16  C   UNL     1      45.127   2.961   9.182  0.00  0.00    +0.000 A 
ATOM     17  C   UNL     1      45.365   4.279   8.758  0.00  0.00    +0.000 A 
ATOM     18  C   UNL     1      46.230   4.542   7.700  0.00  0.00    +0.000 A 
ATOM     19  C   UNL     1      46.883   3.490   7.060  0.00  0.00    +0.000 A 
ATOM     20  C   UNL     1      46.656   2.162   7.452  0.00  0.00    +0.000 A 
ATOM     21  C   UNL     1      45.771   1.913   8.515  0.00  0.00    +0.000 A 
BRANCH  20  22
ATOM     22  C   UNL     1      47.433   1.006   6.868  0.00  0.00    +0.000 C 
BRANCH  22  23
ATOM     23  N   UNL     1      48.221   1.358   5.692  0.00  0.00    +0.000 NA
ATOM     24  H   UNL     1      49.167   1.586   5.993  0.00  0.00    +0.000 HD
ATOM     25  H   UNL     1      47.837   2.207   5.284  0.00  0.00    +0.000 HD
ENDBRANCH  22  23
ENDBRANCH  20  22
ENDBRANCH  15  16
ENDBRANCH  14  15
ENDBRANCH   4  14
TORSDOF 7
ENDMDL
MODEL 4
REMARK VINA RESULT:    -6.524      2.251      3.191
REMARK INTER + INTRA:          -9.594
REMARK INTER:                  -9.483
REMARK INTRA:                  -0.110
REMARK UNBOUND:                -0.590
REMARK  Name = 
REMARK  8 active torsions:
REMARK  status: ('A' for Active; 'I' for Inactive)
REMARK    1  A    between atoms: C_1  and  C_2
REMARK    2  A    between atoms: C_2  and  C_3
REMARK    3  A    between atoms: C_6  and  C_7
REMARK    4  A    between atoms: C_7  and  C_8
REMARK    5  A    between atoms: C_8  and  C_9
REMARK    6  A    between atoms: C_13  and  C_14
REMARK    7  A    between atoms: C_14  and  N_15
REMARK    8  A    between atoms: C_18  and  C_19
REMARK                            x       y       z     vdW  Elec       q    Type
REMARK                         _______ _______ _______ _____ _____    ______ ____
ROOT
ATOM      1  C   UNL     1      46.557   7.000  12.679  0.00  0.00    +0.000 A 
ATOM      2  C   UNL     1      47.076   5.778  13.099  0.00  0.00    +0.000 A 
ATOM      3  N   UNL     1      46.525   4.572  12.834  0.00  0.00    +0.000 NA
ATOM      4  C   UNL     1      45.371   4.547  12.134  0.00  0.00    +0.000 A 
ATOM      5  C   UNL     1      44.730   5.720  11.751  0.00  0.00    +0.000 A 
ATOM      6  C   UNL     1      45.334   6.958  11.999  0.00  0.00    +0.000 A 
ENDROOT
BRANCH   6   7
ATOM      7  C   UNL     1      44.627   8.192  11.551  0.00  0.00    +0.000 C 
ATOM      8  N   UNL     1      43.404   8.051  10.957  0.00  0.00    +0.000 N 
ATOM      9  O   UNL     1      45.107   9.309  11.704  0.00  0.00    +0.000 OA
ATOM     10  H   UNL     1      43.020   7.168  10.653  0.00  0.00    +0.000 HD
ATOM     11  H   UNL     1      42.971   8.899  10.613  0.00  0.00    +0.000 HD
ENDBRANCH   6   7
BRANCH   1  13
ATOM     12  C   UNL     1      48.575   8.390  12.089  0.00  0.00    +0.000 C 
ATOM     13  C   UNL     1      47.336   8.256  12.961  0.00  0.00    +0.000 C 
ENDBRANCH   1  13
BRANCH   4  14
ATOM     14  C   UNL     1      44.823   3.176  11.791  0.00  0.00    +0.000 C 
BRANCH  14  15
ATOM     15  C   UNL     1      44.150   3.131  10.413  0.00  0.00    +0.000 C 
BRANCH  15  16
ATOM     16  C   UNL     1      45.034   3.135   9.192  0.00  0.00    +0.000 A 
ATOM     17  C   UNL     1      45.434   4.373   8.663  0.00  0.00    +0.000 A 
ATOM     18  C   UNL     1      46.366   4.439   7.632  0.00  0.00    +0.000 A 
ATOM     19  C   UNL     1      46.924   3.267   7.124  0.00  0.00    +0.000 A 
ATOM     20  C   UNL     1      46.535   2.015   7.623  0.00  0.00    +0.000 A 
ATOM     21  C   UNL     1      45.584   1.964   8.657  0.00  0.00    +0.000 A 
BRANCH  20  22
ATOM     22  C   UNL     1      47.201   0.732   7.188  0.00  0.00    +0.000 C 
BRANCH  22  23
ATOM     23  N   UNL     1      46.683  -0.459   7.852  0.00  0.00    +0.000 NA
ATOM     24  H   UNL     1      46.276  -1.071   7.146  0.00  0.00    +0.000 HD
ATOM     25  H   UNL     1      45.921  -0.183   8.466  0.00  0.00    +0.000 HD
ENDBRANCH  22  23
ENDBRANCH  20  22
ENDBRANCH  15  16
ENDBRANCH  14  15
ENDBRANCH   4  14
TORSDOF 7
ENDMDL
MODEL 5
REMARK VINA RESULT:    -6.167      2.171      2.931
REMARK INTER + INTRA:          -9.100
REMARK INTER:                  -8.334
REMARK INTRA:                  -0.766
REMARK UNBOUND:                -0.590
REMARK  Name = 
REMARK  8 active torsions:
REMARK  status: ('A' for Active; 'I' for Inactive)
REMARK    1  A    between atoms: C_1  and  C_2
REMARK    2  A    between atoms: C_2  and  C_3
REMARK    3  A    between atoms: C_6  and  C_7
REMARK    4  A    between atoms: C_7  and  C_8
REMARK    5  A    between atoms: C_8  and  C_9
REMARK    6  A    between atoms: C_13  and  C_14
REMARK    7  A    between atoms: C_14  and  N_15
REMARK    8  A    between atoms: C_18  and  C_19
REMARK                            x       y       z     vdW  Elec       q    Type
REMARK                         _______ _______ _______ _____ _____    ______ ____
ROOT
ATOM      1  C   UNL     1      47.488   6.494  13.428  0.00  0.00    +0.000 A 
ATOM      2  C   UNL     1      46.906   5.268  13.734  0.00  0.00    +0.000 A 
ATOM      3  N   UNL     1      45.668   4.881  13.347  0.00  0.00    +0.000 NA
ATOM      4  C   UNL     1      44.929   5.757  12.635  0.00  0.00    +0.000 A 
ATOM      5  C   UNL     1      45.392   7.040  12.360  0.00  0.00    +0.000 A 
ATOM      6  C   UNL     1      46.689   7.410  12.733  0.00  0.00    +0.000 A 
ENDROOT
BRANCH   6   7
ATOM      7  C   UNL     1      47.156   8.785  12.397  0.00  0.00    +0.000 C 
ATOM      8  N   UNL     1      46.487   9.842  12.947  0.00  0.00    +0.000 N 
ATOM      9  O   UNL     1      48.112   8.985  11.657  0.00  0.00    +0.000 OA
ATOM     10  H   UNL     1      45.603   9.765  13.430  0.00  0.00    +0.000 HD
ATOM     11  H   UNL     1      46.790  10.764  12.660  0.00  0.00    +0.000 HD
ENDBRANCH   6   7
BRANCH   1  13
ATOM     12  C   UNL     1      49.040   7.188  15.289  0.00  0.00    +0.000 C 
ATOM     13  C   UNL     1      48.914   6.745  13.839  0.00  0.00    +0.000 C 
ENDBRANCH   1  13
BRANCH   4  14
ATOM     14  C   UNL     1      43.580   5.263  12.155  0.00  0.00    +0.000 C 
BRANCH  14  15
ATOM     15  C   UNL     1      43.483   5.184  10.626  0.00  0.00    +0.000 C 
BRANCH  15  16
ATOM     16  C   UNL     1      44.325   4.156   9.914  0.00  0.00    +0.000 A 
ATOM     17  C   UNL     1      44.079   2.799  10.172  0.00  0.00    +0.000 A 
ATOM     18  C   UNL     1      44.720   1.806   9.437  0.00  0.00    +0.000 A 
ATOM     19  C   UNL     1      45.606   2.158   8.421  0.00  0.00    +0.000 A 
ATOM     20  C   UNL     1      45.883   3.506   8.148  0.00  0.00    +0.000 A 
ATOM     21  C   UNL     1      45.236   4.496   8.906  0.00  0.00    +0.000 A 
BRANCH  20  22
ATOM     22  C   UNL     1      46.740   3.931   6.980  0.00  0.00    +0.000 C 
BRANCH  22  23
ATOM     23  N   UNL     1      47.880   3.055   6.733  0.00  0.00    +0.000 NA
ATOM     24  H   UNL     1      48.474   3.489   6.029  0.00  0.00    +0.000 HD
ATOM     25  H   UNL     1      47.541   2.186   6.326  0.00  0.00    +0.000 HD
ENDBRANCH  22  23
ENDBRANCH  20  22
ENDBRANCH  15  16
ENDBRANCH  14  15
ENDBRANCH   4  14
TORSDOF 7
ENDMDL
MODEL 6
REMARK VINA RESULT:    -6.118      1.859      2.997
REMARK INTER + INTRA:          -9.033
REMARK INTER:                  -8.499
REMARK INTRA:                  -0.534
REMARK UNBOUND:                -0.590
REMARK  Name = 
REMARK  8 active torsions:
REMARK  status: ('A' for Active; 'I' for Inactive)
REMARK    1  A    between atoms: C_1  and  C_2
REMARK    2  A    between atoms: C_2  and  C_3
REMARK    3  A    between atoms: C_6  and  C_7
REMARK    4  A    between atoms: C_7  and  C_8
REMARK    5  A    between atoms: C_8  and  C_9
REMARK    6  A    between atoms: C_13  and  C_14
REMARK    7  A    between atoms: C_14  and  N_15
REMARK    8  A    between atoms: C_18  and  C_19
REMARK                            x       y       z     vdW  Elec       q    Type
REMARK                         _______ _______ _______ _____ _____    ______ ____
ROOT
ATOM      1  C   UNL     1      48.430   6.390  15.352  0.00  0.00    +0.000 A 
ATOM      2  C   UNL     1      48.680   7.488  14.534  0.00  0.00    +0.000 A 
ATOM      3  N   UNL     1      48.197   7.645  13.280  0.00  0.00    +0.000 NA
ATOM      4  C   UNL     1      47.439   6.653  12.769  0.00  0.00    +0.000 A 
ATOM      5  C   UNL     1      47.211   5.477  13.477  0.00  0.00    +0.000 A 
ATOM      6  C   UNL     1      47.685   5.347  14.787  0.00  0.00    +0.000 A 
ENDROOT
BRANCH   6   7
ATOM      7  C   UNL     1      47.398   4.082  15.521  0.00  0.00    +0.000 C 
ATOM      8  N   UNL     1      46.636   4.154  16.653  0.00  0.00    +0.000 N 
ATOM      9  O   UNL     1      47.819   2.997  15.136  0.00  0.00    +0.000 OA
ATOM     10  H   UNL     1      46.391   5.018  17.117  0.00  0.00    +0.000 HD
ATOM     11  H   UNL     1      46.502   3.290  17.160  0.00  0.00    +0.000 HD
ENDBRANCH   6   7
BRANCH   1  13
ATOM     12  C   UNL     1      50.338   5.788  16.884  0.00  0.00    +0.000 C 
ATOM     13  C   UNL     1      48.951   6.401  16.763  0.00  0.00    +0.000 C 
ENDBRANCH   1  13
BRANCH   4  14
ATOM     14  C   UNL     1      46.853   6.895  11.393  0.00  0.00    +0.000 C 
BRANCH  14  15
ATOM     15  C   UNL     1      45.408   6.396  11.264  0.00  0.00    +0.000 C 
BRANCH  15  16
ATOM     16  C   UNL     1      45.174   5.061  10.604  0.00  0.00    +0.000 A 
ATOM     17  C   UNL     1      44.331   4.140  11.244  0.00  0.00    +0.000 A 
ATOM     18  C   UNL     1      43.960   2.956  10.615  0.00  0.00    +0.000 A 
ATOM     19  C   UNL     1      44.417   2.682   9.327  0.00  0.00    +0.000 A 
ATOM     20  C   UNL     1      45.271   3.578   8.666  0.00  0.00    +0.000 A 
ATOM     21  C   UNL     1      45.645   4.764   9.320  0.00  0.00    +0.000 A 
BRANCH  20  22
ATOM     22  C   UNL     1      45.689   3.379   7.229  0.00  0.00    +0.000 C 
BRANCH  22  23
ATOM     23  N   UNL     1      46.764   4.266   6.797  0.00  0.00    +0.000 NA
ATOM     24  H   UNL     1      47.558   4.138   7.422  0.00  0.00    +0.000 HD
ATOM     25  H   UNL     1      46.458   5.229   6.915  0.00  0.00    +0.000 HD
ENDBRANCH  22  23
ENDBRANCH  20  22
ENDBRANCH  15  16
ENDBRANCH  14  15
ENDBRANCH   4  14
TORSDOF 7
ENDMDL
MODEL 7
REMARK VINA RESULT:    -6.068      1.756      2.191
REMARK INTER + INTRA:          -8.963
REMARK INTER:                  -8.176
REMARK INTRA:                  -0.787
REMARK UNBOUND:                -0.590
REMARK  Name = 
REMARK  8 active torsions:
REMARK  status: ('A' for Active; 'I' for Inactive)
REMARK    1  A    between atoms: C_1  and  C_2
REMARK    2  A    between atoms: C_2  and  C_3
REMARK    3  A    between atoms: C_6  and  C_7
REMARK    4  A    between atoms: C_7  and  C_8
REMARK    5  A    between atoms: C_8  and  C_9
REMARK    6  A    between atoms: C_13  and  C_14
REMARK    7  A    between atoms: C_14  and  N_15
REMARK    8  A    between atoms: C_18  and  C_19
REMARK                            x       y       z     vdW  Elec       q    Type
REMARK                         _______ _______ _______ _____ _____    ______ ____
ROOT
ATOM      1  C   UNL     1      46.720   8.389  12.591  0.00  0.00    +0.000 A 
ATOM      2  C   UNL     1      45.563   8.514  11.828  0.00  0.00    +0.000 A 
ATOM      3  N   UNL     1      44.678   7.517  11.595  0.00  0.00    +0.000 NA
ATOM      4  C   UNL     1      44.947   6.302  12.117  0.00  0.00    +0.000 A 
ATOM      5  C   UNL     1      46.125   6.059  12.816  0.00  0.00    +0.000 A 
ATOM      6  C   UNL     1      47.010   7.110  13.081  0.00  0.00    +0.000 A 
ENDROOT
BRANCH   6   7
ATOM      7  C   UNL     1      48.249   6.813  13.855  0.00  0.00    +0.000 C 
ATOM      8  N   UNL     1      48.139   6.660  15.209  0.00  0.00    +0.000 N 
ATOM      9  O   UNL     1      49.343   6.701  13.315  0.00  0.00    +0.000 OA
ATOM     10  H   UNL     1      47.312   6.894  15.741  0.00  0.00    +0.000 HD
ATOM     11  H   UNL     1      49.002   6.513  15.716  0.00  0.00    +0.000 HD
ENDBRANCH   6   7
BRANCH   1  13
ATOM     12  C   UNL     1      48.468   9.959  11.681  0.00  0.00    +0.000 C 
ATOM     13  C   UNL     1      47.557   9.613  12.848  0.00  0.00    +0.000 C 
ENDBRANCH   1  13
BRANCH   4  14
ATOM     14  C   UNL     1      43.899   5.230  11.900  0.00  0.00    +0.000 C 
BRANCH  14  15
ATOM     15  C   UNL     1      43.601   4.979  10.416  0.00  0.00    +0.000 C 
BRANCH  15  16
ATOM     16  C   UNL     1      44.485   4.013   9.669  0.00  0.00    +0.000 A 
ATOM     17  C   UNL     1      44.298   2.638   9.881  0.00  0.00    +0.000 A 
ATOM     18  C   UNL     1      44.979   1.699   9.113  0.00  0.00    +0.000 A 
ATOM     19  C   UNL     1      45.847   2.122   8.108  0.00  0.00    +0.000 A 
ATOM     20  C   UNL     1      46.064   3.490   7.880  0.00  0.00    +0.000 A 
ATOM     21  C   UNL     1      45.377   4.425   8.673  0.00  0.00    +0.000 A 
BRANCH  20  22
ATOM     22  C   UNL     1      46.899   3.990   6.726  0.00  0.00    +0.000 C 
BRANCH  22  23
ATOM     23  N   UNL     1      47.432   2.930   5.878  0.00  0.00    +0.000 NA
ATOM     24  H   UNL     1      47.938   3.358   5.105  0.00  0.00    +0.000 HD
ATOM     25  H   UNL     1      46.654   2.421   5.465  0.00  0.00    +0.000 HD
ENDBRANCH  22  23
ENDBRANCH  20  22
ENDBRANCH  15  16
ENDBRANCH  14  15
ENDBRANCH   4  14
TORSDOF 7
ENDMDL
MODEL 8
REMARK VINA RESULT:    -6.064      2.845      4.325
REMARK INTER + INTRA:          -8.958
REMARK INTER:                  -8.253
REMARK INTRA:                  -0.705
REMARK UNBOUND:                -0.590
REMARK  Name = 
REMARK  8 active torsions:
REMARK  status: ('A' for Active; 'I' for Inactive)
REMARK    1  A    between atoms: C_1  and  C_2
REMARK    2  A    between atoms: C_2  and  C_3
REMARK    3  A    between atoms: C_6  and  C_7
REMARK    4  A    between atoms: C_7  and  C_8
REMARK    5  A    between atoms: C_8  and  C_9
REMARK    6  A    between atoms: C_13  and  C_14
REMARK    7  A    between atoms: C_14  and  N_15
REMARK    8  A    between atoms: C_18  and  C_19
REMARK                            x       y       z     vdW  Elec       q    Type
REMARK                         _______ _______ _______ _____ _____    ______ ____
ROOT
ATOM      1  C   UNL     1      48.722   6.033  15.888  0.00  0.00    +0.000 A 
ATOM      2  C   UNL     1      48.840   7.274  15.268  0.00  0.00    +0.000 A 
ATOM      3  N   UNL     1      48.100   7.684  14.211  0.00  0.00    +0.000 NA
ATOM      4  C   UNL     1      47.199   6.819  13.700  0.00  0.00    +0.000 A 
ATOM      5  C   UNL     1      47.075   5.525  14.195  0.00  0.00    +0.000 A 
ATOM      6  C   UNL     1      47.820   5.130  15.312  0.00  0.00    +0.000 A 
ENDROOT
BRANCH   6   7
ATOM      7  C   UNL     1      47.639   3.743  15.828  0.00  0.00    +0.000 C 
ATOM      8  N   UNL     1      46.827   3.562  16.912  0.00  0.00    +0.000 N 
ATOM      9  O   UNL     1      48.189   2.779  15.309  0.00  0.00    +0.000 OA
ATOM     10  H   UNL     1      46.472   4.313  17.487  0.00  0.00    +0.000 HD
ATOM     11  H   UNL     1      46.765   2.619  17.274  0.00  0.00    +0.000 HD
ENDBRANCH   6   7
BRANCH   1  13
ATOM     12  C   UNL     1      48.862   6.222  18.397  0.00  0.00    +0.000 C 
ATOM     13  C   UNL     1      49.542   5.755  17.119  0.00  0.00    +0.000 C 
ENDBRANCH   1  13
BRANCH   4  14
ATOM     14  C   UNL     1      46.338   7.338  12.567  0.00  0.00    +0.000 C 
BRANCH  14  15
ATOM     15  C   UNL     1      46.655   6.671  11.223  0.00  0.00    +0.000 C 
BRANCH  15  16
ATOM     16  C   UNL     1      45.716   5.604  10.721  0.00  0.00    +0.000 A 
ATOM     17  C   UNL     1      45.758   5.266   9.359  0.00  0.00    +0.000 A 
ATOM     18  C   UNL     1      45.024   4.191   8.868  0.00  0.00    +0.000 A 
ATOM     19  C   UNL     1      44.248   3.426   9.737  0.00  0.00    +0.000 A 
ATOM     20  C   UNL     1      44.176   3.746  11.101  0.00  0.00    +0.000 A 
ATOM     21  C   UNL     1      44.914   4.842  11.579  0.00  0.00    +0.000 A 
BRANCH  20  22
ATOM     22  C   UNL     1      43.447   2.874  12.095  0.00  0.00    +0.000 C 
BRANCH  22  23
ATOM     23  N   UNL     1      43.047   1.576  11.562  0.00  0.00    +0.000 NA
ATOM     24  H   UNL     1      43.884   1.011  11.427  0.00  0.00    +0.000 HD
ATOM     25  H   UNL     1      42.643   1.714  10.638  0.00  0.00    +0.000 HD
ENDBRANCH  22  23
ENDBRANCH  20  22
ENDBRANCH  15  16
ENDBRANCH  14  15
ENDBRANCH   4  14
TORSDOF 7
ENDMDL
MODEL 9
REMARK VINA RESULT:    -5.913      4.483      8.417
REMARK INTER + INTRA:          -8.750
REMARK INTER:                  -8.168
REMARK INTRA:                  -0.582
REMARK UNBOUND:                -0.590
REMARK  Name = 
REMARK  8 active torsions:
REMARK  status: ('A' for Active; 'I' for Inactive)
REMARK    1  A    between atoms: C_1  and  C_2
REMARK    2  A    between atoms: C_2  and  C_3
REMARK    3  A    between atoms: C_6  and  C_7
REMARK    4  A    between atoms: C_7  and  C_8
REMARK    5  A    between atoms: C_8  and  C_9
REMARK    6  A    between atoms: C_13  and  C_14
REMARK    7  A    between atoms: C_14  and  N_15
REMARK    8  A    between atoms: C_18  and  C_19
REMARK                            x       y       z     vdW  Elec       q    Type
REMARK                         _______ _______ _______ _____ _____    ______ ____
ROOT
ATOM      1  C   UNL     1      47.341   5.892  13.503  0.00  0.00    +0.000 A 
ATOM      2  C   UNL     1      48.291   6.326  14.422  0.00  0.00    +0.000 A 
ATOM      3  N   UNL     1      48.520   5.755  15.627  0.00  0.00    +0.000 NA
ATOM      4  C   UNL     1      47.753   4.702  15.980  0.00  0.00    +0.000 A 
ATOM      5  C   UNL     1      46.717   4.255  15.166  0.00  0.00    +0.000 A 
ATOM      6  C   UNL     1      46.520   4.832  13.907  0.00  0.00    +0.000 A 
ENDROOT
BRANCH   6   7
ATOM      7  C   UNL     1      45.415   4.307  13.055  0.00  0.00    +0.000 C 
ATOM      8  N   UNL     1      45.548   3.052  12.532  0.00  0.00    +0.000 N 
ATOM      9  O   UNL     1      44.407   4.963  12.820  0.00  0.00    +0.000 OA
ATOM     10  H   UNL     1      46.407   2.520  12.546  0.00  0.00    +0.000 HD
ATOM     11  H   UNL     1      44.810   2.742  11.914  0.00  0.00    +0.000 HD
ENDBRANCH   6   7
BRANCH   1  13
ATOM     12  C   UNL     1      48.371   7.592  11.955  0.00  0.00    +0.000 C 
ATOM     13  C   UNL     1      47.269   6.564  12.158  0.00  0.00    +0.000 C 
ENDBRANCH   1  13
BRANCH   4  14
ATOM     14  C   UNL     1      48.087   4.041  17.302  0.00  0.00    +0.000 C 
BRANCH  14  15
ATOM     15  C   UNL     1      48.900   2.751  17.134  0.00  0.00    +0.000 C 
BRANCH  15  16
ATOM     16  C   UNL     1      50.390   2.817  17.356  0.00  0.00    +0.000 A 
ATOM     17  C   UNL     1      50.953   4.045  17.738  0.00  0.00    +0.000 A 
ATOM     18  C   UNL     1      52.293   4.133  18.099  0.00  0.00    +0.000 A 
ATOM     19  C   UNL     1      53.088   2.987  18.100  0.00  0.00    +0.000 A 
ATOM     20  C   UNL     1      52.557   1.748  17.712  0.00  0.00    +0.000 A 
ATOM     21  C   UNL     1      51.204   1.679  17.338  0.00  0.00    +0.000 A 
BRANCH  20  22
ATOM     22  C   UNL     1      53.348   0.466  17.815  0.00  0.00    +0.000 C 
BRANCH  22  23
ATOM     23  N   UNL     1      52.627  -0.623  18.466  0.00  0.00    +0.000 NA
ATOM     24  H   UNL     1      51.822  -0.232  18.951  0.00  0.00    +0.000 HD
ATOM     25  H   UNL     1      53.226  -1.027  19.182  0.00  0.00    +0.000 HD
ENDBRANCH  22  23
ENDBRANCH  20  22
ENDBRANCH  15  16
ENDBRANCH  14  15
ENDBRANCH   4  14
TORSDOF 7
ENDMDL
