MODEL 1
REMARK VINA RESULT:    -7.675      0.000      0.000
REMARK INTER + INTRA:         -11.365
REMARK INTER:                 -10.592
REMARK INTRA:                  -0.773
REMARK UNBOUND:                -0.773
REMARK  Name = 
REMARK  7 active torsions:
REMARK  status: ('A' for Active; 'I' for Inactive)
REMARK    1  A    between atoms: C_2  and  C_20
REMARK    2  A    between atoms: N_3  and  C_4
REMARK    3  A    between atoms: C_4  and  C_5
REMARK    4  A    between atoms: N_8  and  C_9
REMARK    5  A    between atoms: C_9  and  C_10
REMARK    6  A    between atoms: CA_14  and  C_15
REMARK    7  A    between atoms: C_15  and  O_16
REMARK                            x       y       z     vdW  Elec       q    Type
REMARK                         _______ _______ _______ _____ _____    ______ ____
ROOT
ATOM      1  C   UNL     1      45.140   6.541  12.842  0.00  0.00    +0.000 C 
ENDROOT
BRANCH   1   2
ATOM      2  C   UNL     1      44.309   5.253  12.993  0.00  0.00    +0.000 C 
ATOM      3  C   UNL     1      45.053   3.991  12.539  0.00  0.00    +0.000 C 
ATOM      4  C   UNL     1      45.285   3.962  11.026  0.00  0.00    +0.000 C 
ATOM      5  N   UNL     1      44.036   4.102  10.257  0.00  0.00    +0.000 NA
ATOM      6  C   UNL     1      43.252   5.279  10.672  0.00  0.00    +0.000 C 
ATOM      7  C   UNL     1      43.006   5.341  12.184  0.00  0.00    +0.000 C 
BRANCH   5   8
ATOM      8  C   UNL     1      44.328   4.201   8.800  0.00  0.00    +0.000 C 
BRANCH   8   9
ATOM      9  C   UNL     1      45.211   3.090   8.248  0.00  0.00    +0.000 A 
ATOM     10  C   UNL     1      45.169   1.823   8.827  0.00  0.00    +0.000 A 
ATOM     11  C   UNL     1      46.040   0.844   8.367  0.00  0.00    +0.000 A 
ATOM     12  C   UNL     1      46.912   1.142   7.326  0.00  0.00    +0.000 A 
ATOM     13  CA  UNL     1      46.880   2.415   6.766  0.00  0.00    +0.000 A 
ATOM     14  N   UNL     1      46.045   3.395   7.212  0.00  0.00    +0.000 NA
BRANCH  13  15
ATOM     15  C   UNL     1      47.747   2.725   5.564  0.00  0.00    +0.000 C 
BRANCH  15  16
ATOM     16  O   UNL     1      48.448   1.572   5.102  0.00  0.00    +0.000 OA
ATOM     17  H   UNL     1      47.849   1.169   4.441  0.00  0.00    +0.000 HD
ENDBRANCH  15  16
ENDBRANCH  13  15
ENDBRANCH   8   9
ENDBRANCH   5   8
ENDBRANCH   1   2
BRANCH   1  20
ATOM     18  O   UNL     1      47.924   6.298  12.306  0.00  0.00    +0.000 OA
ATOM     19  C   UNL     1      47.544   6.450  13.464  0.00  0.00    +0.000 C 
ATOM     20  N   UNL     1      46.225   6.634  13.794  0.00  0.00    +0.000 N 
ATOM     21  H   UNL     1      45.961   6.614  14.772  0.00  0.00    +0.000 HD
BRANCH  19  22
ATOM     22  C   UNL     1      48.490   6.508  14.587  0.00  0.00    +0.000 A 
ATOM     23  C   UNL     1      49.547   7.408  14.569  0.00  0.00    +0.000 A 
ATOM     24  S   UNL     1      50.477   7.392  16.002  0.00  0.00    +0.000 S 
ATOM     25  C   UNL     1      49.531   6.146  16.670  0.00  0.00    +0.000 A 
ATOM     26  N   UNL     1      49.786   5.659  17.917  0.00  0.00    +0.000 NA
ATOM     27  C   UNL     1      49.008   4.698  18.287  0.00  0.00    +0.000 A 
ATOM     28  N   UNL     1      48.003   4.167  17.519  0.00  0.00    +0.000 N 
ATOM     29  C   UNL     1      47.699   4.633  16.262  0.00  0.00    +0.000 A 
ATOM     30  O   UNL     1      46.769   4.164  15.613  0.00  0.00    +0.000 OA
ATOM     31  C   UNL     1      48.529   5.737  15.813  0.00  0.00    +0.000 A 
ATOM     32  H   UNL     1      47.436   3.406  17.858  0.00  0.00    +0.000 HD
ENDBRANCH  19  22
ENDBRANCH   1  20
TORSDOF 7
ENDMDL
MODEL 2
REMARK VINA RESULT:    -7.404      1.856      2.826
REMARK INTER + INTRA:         -10.991
REMARK INTER:                 -11.041
REMARK INTRA:                   0.050
REMARK UNBOUND:                -0.773
REMARK  Name = 
REMARK  7 active torsions:
REMARK  status: ('A' for Active; 'I' for Inactive)
REMARK    1  A    between atoms: C_2  and  C_20
REMARK    2  A    between atoms: N_3  and  C_4
REMARK    3  A    between atoms: C_4  and  C_5
REMARK    4  A    between atoms: N_8  and  C_9
REMARK    5  A    between atoms: C_9  and  C_10
REMARK    6  A    between atoms: CA_14  and  C_15
REMARK    7  A    between atoms: C_15  and  O_16
REMARK                            x       y       z     vdW  Elec       q    Type
REMARK                         _______ _______ _______ _____ _____    ______ ____
ROOT
ATOM      1  C   UNL     1      45.879   4.503  13.851  0.00  0.00    +0.000 C 
ENDROOT
BRANCH   1   2
ATOM      2  C   UNL     1      45.000   5.555  13.150  0.00  0.00    +0.000 C 
ATOM      3  C   UNL     1      43.552   5.095  12.937  0.00  0.00    +0.000 C 
ATOM      4  C   UNL     1      43.445   3.960  11.915  0.00  0.00    +0.000 C 
ATOM      5  N   UNL     1      44.049   4.305  10.617  0.00  0.00    +0.000 NA
ATOM      6  C   UNL     1      45.433   4.793  10.755  0.00  0.00    +0.000 C 
ATOM      7  C   UNL     1      45.576   5.927  11.777  0.00  0.00    +0.000 C 
BRANCH   5   8
ATOM      8  C   UNL     1      44.036   3.127   9.706  0.00  0.00    +0.000 C 
BRANCH   8   9
ATOM      9  C   UNL     1      45.195   3.068   8.720  0.00  0.00    +0.000 A 
ATOM     10  C   UNL     1      45.662   4.242   8.132  0.00  0.00    +0.000 A 
ATOM     11  C   UNL     1      46.662   4.161   7.172  0.00  0.00    +0.000 A 
ATOM     12  C   UNL     1      47.191   2.919   6.840  0.00  0.00    +0.000 A 
ATOM     13  CA  UNL     1      46.707   1.788   7.490  0.00  0.00    +0.000 A 
ATOM     14  N   UNL     1      45.716   1.842   8.422  0.00  0.00    +0.000 NA
BRANCH  13  15
ATOM     15  C   UNL     1      47.344   0.441   7.218  0.00  0.00    +0.000 C 
BRANCH  15  16
ATOM     16  O   UNL     1      46.680  -0.611   7.915  0.00  0.00    +0.000 OA
ATOM     17  H   UNL     1      47.379  -1.277   8.077  0.00  0.00    +0.000 HD
ENDBRANCH  15  16
ENDBRANCH  13  15
ENDBRANCH   8   9
ENDBRANCH   5   8
ENDBRANCH   1   2
BRANCH   1  20
ATOM     18  O   UNL     1      47.706   3.105  15.525  0.00  0.00    +0.000 OA
ATOM     19  C   UNL     1      47.433   4.276  15.776  0.00  0.00    +0.000 C 
ATOM     20  N   UNL     1      46.609   5.032  14.982  0.00  0.00    +0.000 N 
ATOM     21  H   UNL     1      46.314   5.942  15.315  0.00  0.00    +0.000 HD
BRANCH  19  22
ATOM     22  C   UNL     1      48.025   4.979  16.922  0.00  0.00    +0.000 A 
ATOM     23  C   UNL     1      47.658   4.644  18.218  0.00  0.00    +0.000 A 
ATOM     24  S   UNL     1      48.524   5.504  19.413  0.00  0.00    +0.000 S 
ATOM     25  C   UNL     1      49.378   6.390  18.239  0.00  0.00    +0.000 A 
ATOM     26  N   UNL     1      50.315   7.313  18.596  0.00  0.00    +0.000 NA
ATOM     27  C   UNL     1      50.866   7.929  17.604  0.00  0.00    +0.000 A 
ATOM     28  N   UNL     1      50.556   7.718  16.284  0.00  0.00    +0.000 N 
ATOM     29  C   UNL     1      49.629   6.789  15.875  0.00  0.00    +0.000 A 
ATOM     30  O   UNL     1      49.401   6.595  14.685  0.00  0.00    +0.000 OA
ATOM     31  C   UNL     1      49.003   6.047  16.955  0.00  0.00    +0.000 A 
ATOM     32  H   UNL     1      51.012   8.241  15.554  0.00  0.00    +0.000 HD
ENDBRANCH  19  22
ENDBRANCH   1  20
TORSDOF 7
ENDMDL
MODEL 3
REMARK VINA RESULT:    -7.364      2.699      8.428
REMARK INTER + INTRA:         -10.935
REMARK INTER:                 -10.068
REMARK INTRA:                  -0.867
REMARK UNBOUND:                -0.773
REMARK  Name = 
REMARK  7 active torsions:
REMARK  status: ('A' for Active; 'I' for Inactive)
REMARK    1  A    between atoms: C_2  and  C_20
REMARK    2  A    between atoms: N_3  and  C_4
REMARK    3  A    between atoms: C_4  and  C_5
REMARK    4  A    between atoms: N_8  and  C_9
REMARK    5  A    between atoms: C_9  and  C_10
REMARK    6  A    between atoms: CA_14  and  C_15
REMARK    7  A    between atoms: C_15  and  O_16
REMARK                            x       y       z     vdW  Elec       q    Type
REMARK                         _______ _______ _______ _____ _____    ______ ____
ROOT
ATOM      1  C   UNL     1      46.975   8.334  12.081  0.00  0.00    +0.000 C 
ENDROOT
BRANCH   1   2
ATOM      2  C   UNL     1      48.514   8.307  12.098  0.00  0.00    +0.000 C 
ATOM      3  C   UNL     1      49.095   6.949  12.512  0.00  0.00    +0.000 C 
ATOM      4  C   UNL     1      48.823   6.622  13.983  0.00  0.00    +0.000 C 
ATOM      5  N   UNL     1      49.312   7.668  14.898  0.00  0.00    +0.000 NA
ATOM      6  C   UNL     1      48.820   9.007  14.531  0.00  0.00    +0.000 C 
ATOM      7  C   UNL     1      49.072   9.364  13.061  0.00  0.00    +0.000 C 
BRANCH   5   8
ATOM      8  C   UNL     1      48.907   7.366  16.299  0.00  0.00    +0.000 C 
BRANCH   8   9
ATOM      9  C   UNL     1      49.368   6.012  16.822  0.00  0.00    +0.000 A 
ATOM     10  C   UNL     1      50.725   5.781  17.037  0.00  0.00    +0.000 A 
ATOM     11  C   UNL     1      51.138   4.516  17.433  0.00  0.00    +0.000 A 
ATOM     12  C   UNL     1      50.188   3.520  17.630  0.00  0.00    +0.000 A 
ATOM     13  CA  UNL     1      48.845   3.825  17.433  0.00  0.00    +0.000 A 
ATOM     14  N   UNL     1      48.420   5.054  17.030  0.00  0.00    +0.000 NA
BRANCH  13  15
ATOM     15  C   UNL     1      47.790   2.784  17.745  0.00  0.00    +0.000 C 
BRANCH  15  16
ATOM     16  O   UNL     1      46.476   3.254  17.453  0.00  0.00    +0.000 OA
ATOM     17  H   UNL     1      45.954   3.037  18.252  0.00  0.00    +0.000 HD
ENDBRANCH  15  16
ENDBRANCH  13  15
ENDBRANCH   8   9
ENDBRANCH   5   8
ENDBRANCH   1   2
BRANCH   1  20
ATOM     18  O   UNL     1      44.279   7.764  11.369  0.00  0.00    +0.000 OA
ATOM     19  C   UNL     1      45.057   6.836  11.573  0.00  0.00    +0.000 C 
ATOM     20  N   UNL     1      46.385   7.031  11.861  0.00  0.00    +0.000 N 
ATOM     21  H   UNL     1      46.940   6.236  12.154  0.00  0.00    +0.000 HD
BRANCH  19  22
ATOM     22  C   UNL     1      44.634   5.434  11.461  0.00  0.00    +0.000 A 
ATOM     23  C   UNL     1      43.929   4.828  12.492  0.00  0.00    +0.000 A 
ATOM     24  S   UNL     1      43.445   3.229  12.135  0.00  0.00    +0.000 S 
ATOM     25  C   UNL     1      44.208   3.276  10.616  0.00  0.00    +0.000 A 
ATOM     26  N   UNL     1      44.162   2.207   9.772  0.00  0.00    +0.000 NA
ATOM     27  C   UNL     1      44.806   2.370   8.664  0.00  0.00    +0.000 A 
ATOM     28  N   UNL     1      45.505   3.501   8.327  0.00  0.00    +0.000 N 
ATOM     29  C   UNL     1      45.569   4.609   9.139  0.00  0.00    +0.000 A 
ATOM     30  O   UNL     1      46.171   5.621   8.794  0.00  0.00    +0.000 OA
ATOM     31  C   UNL     1      44.834   4.485  10.385  0.00  0.00    +0.000 A 
ATOM     32  H   UNL     1      46.000   3.564   7.452  0.00  0.00    +0.000 HD
ENDBRANCH  19  22
ENDBRANCH   1  20
TORSDOF 7
ENDMDL
MODEL 4
REMARK VINA RESULT:    -7.300      1.979      2.765
REMARK INTER + INTRA:         -10.847
REMARK INTER:                 -10.759
REMARK INTRA:                  -0.088
REMARK UNBOUND:                -0.773
REMARK  Name = 
REMARK  7 active torsions:
REMARK  status: ('A' for Active; 'I' for Inactive)
REMARK    1  A    between atoms: C_2  and  C_20
REMARK    2  A    between atoms: N_3  and  C_4
REMARK    3  A    between atoms: C_4  and  C_5
REMARK    4  A    between atoms: N_8  and  C_9
REMARK    5  A    between atoms: C_9  and  C_10
REMARK    6  A    between atoms: CA_14  and  C_15
REMARK    7  A    between atoms: C_15  and  O_16
REMARK                            x       y       z     vdW  Elec       q    Type
REMARK                         _______ _______ _______ _____ _____    ______ ____
ROOT
ATOM      1  C   UNL     1      46.108   4.515  14.049  0.00  0.00    +0.000 C 
ENDROOT
BRANCH   1   2
ATOM      2  C   UNL     1      45.567   5.756  13.314  0.00  0.00    +0.000 C 
ATOM      3  C   UNL     1      44.056   5.700  13.056  0.00  0.00    +0.000 C 
ATOM      4  C   UNL     1      43.677   4.622  12.037  0.00  0.00    +0.000 C 
ATOM      5  N   UNL     1      44.392   4.774  10.757  0.00  0.00    +0.000 NA
ATOM      6  C   UNL     1      45.851   4.872  10.939  0.00  0.00    +0.000 C 
ATOM      7  C   UNL     1      46.263   5.941  11.959  0.00  0.00    +0.000 C 
BRANCH   5   8
ATOM      8  C   UNL     1      44.090   3.631   9.852  0.00  0.00    +0.000 C 
BRANCH   8   9
ATOM      9  C   UNL     1      45.179   3.312   8.837  0.00  0.00    +0.000 A 
ATOM     10  C   UNL     1      45.739   4.340   8.081  0.00  0.00    +0.000 A 
ATOM     11  C   UNL     1      46.670   4.023   7.100  0.00  0.00    +0.000 A 
ATOM     12  C   UNL     1      47.039   2.696   6.914  0.00  0.00    +0.000 A 
ATOM     13  CA  UNL     1      46.470   1.720   7.727  0.00  0.00    +0.000 A 
ATOM     14  N   UNL     1      45.544   2.007   8.683  0.00  0.00    +0.000 NA
BRANCH  13  15
ATOM     15  C   UNL     1      46.939   0.285   7.609  0.00  0.00    +0.000 C 
BRANCH  15  16
ATOM     16  O   UNL     1      46.978  -0.153   6.253  0.00  0.00    +0.000 OA
ATOM     17  H   UNL     1      46.184   0.245   5.844  0.00  0.00    +0.000 HD
ENDBRANCH  15  16
ENDBRANCH  13  15
ENDBRANCH   8   9
ENDBRANCH   5   8
ENDBRANCH   1   2
BRANCH   1  20
ATOM     18  O   UNL     1      46.588   3.429  16.635  0.00  0.00    +0.000 OA
ATOM     19  C   UNL     1      47.347   4.287  16.191  0.00  0.00    +0.000 C 
ATOM     20  N   UNL     1      47.215   4.814  14.930  0.00  0.00    +0.000 N 
ATOM     21  H   UNL     1      47.785   5.612  14.676  0.00  0.00    +0.000 HD
BRANCH  19  22
ATOM     22  C   UNL     1      48.501   4.771  16.960  0.00  0.00    +0.000 A 
ATOM     23  C   UNL     1      48.549   6.087  17.401  0.00  0.00    +0.000 A 
ATOM     24  S   UNL     1      49.921   6.432  18.358  0.00  0.00    +0.000 S 
ATOM     25  C   UNL     1      50.522   4.852  18.169  0.00  0.00    +0.000 A 
ATOM     26  N   UNL     1      51.687   4.466  18.762  0.00  0.00    +0.000 NA
ATOM     27  C   UNL     1      52.038   3.249  18.513  0.00  0.00    +0.000 A 
ATOM     28  N   UNL     1      51.337   2.383  17.711  0.00  0.00    +0.000 N 
ATOM     29  C   UNL     1      50.152   2.722  17.103  0.00  0.00    +0.000 A 
ATOM     30  O   UNL     1      49.528   1.913  16.423  0.00  0.00    +0.000 OA
ATOM     31  C   UNL     1      49.699   4.074  17.380  0.00  0.00    +0.000 A 
ATOM     32  H   UNL     1      51.670   1.447  17.543  0.00  0.00    +0.000 HD
ENDBRANCH  19  22
ENDBRANCH   1  20
TORSDOF 7
ENDMDL
MODEL 5
REMARK VINA RESULT:    -7.126      2.589      3.372
REMARK INTER + INTRA:         -10.607
REMARK INTER:                 -10.100
REMARK INTRA:                  -0.506
REMARK UNBOUND:                -0.773
REMARK  Name = 
REMARK  7 active torsions:
REMARK  status: ('A' for Active; 'I' for Inactive)
REMARK    1  A    between atoms: C_2  and  C_20
REMARK    2  A    between atoms: N_3  and  C_4
REMARK    3  A    between atoms: C_4  and  C_5
REMARK    4  A    between atoms: N_8  and  C_9
REMARK    5  A    between atoms: C_9  and  C_10
REMARK    6  A    between atoms: CA_14  and  C_15
REMARK    7  A    between atoms: C_15  and  O_16
REMARK                            x       y       z     vdW  Elec       q    Type
REMARK                         _______ _______ _______ _____ _____    ______ ____
ROOT
ATOM      1  C   UNL     1      44.796   6.815  11.785  0.00  0.00    +0.000 C 
ENDROOT
BRANCH   1   2
ATOM      2  C   UNL     1      44.507   5.842  12.943  0.00  0.00    +0.000 C 
ATOM      3  C   UNL     1      45.497   4.672  13.018  0.00  0.00    +0.000 C 
ATOM      4  C   UNL     1      45.350   3.708  11.838  0.00  0.00    +0.000 C 
ATOM      5  N   UNL     1      43.980   3.185  11.697  0.00  0.00    +0.000 NA
ATOM      6  C   UNL     1      42.973   4.260  11.658  0.00  0.00    +0.000 C 
ATOM      7  C   UNL     1      43.095   5.248  12.824  0.00  0.00    +0.000 C 
BRANCH   5   8
ATOM      8  C   UNL     1      43.860   2.360  10.464  0.00  0.00    +0.000 C 
BRANCH   8   9
ATOM      9  C   UNL     1      44.865   2.695   9.369  0.00  0.00    +0.000 A 
ATOM     10  C   UNL     1      44.971   4.005   8.906  0.00  0.00    +0.000 A 
ATOM     11  C   UNL     1      45.830   4.277   7.851  0.00  0.00    +0.000 A 
ATOM     12  C   UNL     1      46.582   3.246   7.299  0.00  0.00    +0.000 A 
ATOM     13  CA  UNL     1      46.458   1.966   7.831  0.00  0.00    +0.000 A 
ATOM     14  N   UNL     1      45.609   1.674   8.855  0.00  0.00    +0.000 NA
BRANCH  13  15
ATOM     15  C   UNL     1      47.346   0.853   7.314  0.00  0.00    +0.000 C 
BRANCH  15  16
ATOM     16  O   UNL     1      47.389   0.826   5.889  0.00  0.00    +0.000 OA
ATOM     17  H   UNL     1      47.135   1.731   5.618  0.00  0.00    +0.000 HD
ENDBRANCH  15  16
ENDBRANCH  13  15
ENDBRANCH   8   9
ENDBRANCH   5   8
ENDBRANCH   1   2
BRANCH   1  20
ATOM     18  O   UNL     1      45.235   9.502  12.613  0.00  0.00    +0.000 OA
ATOM     19  C   UNL     1      46.192   8.813  12.269  0.00  0.00    +0.000 C 
ATOM     20  N   UNL     1      46.067   7.493  11.915  0.00  0.00    +0.000 N 
ATOM     21  H   UNL     1      46.867   7.021  11.510  0.00  0.00    +0.000 HD
BRANCH  19  22
ATOM     22  C   UNL     1      47.564   9.339  12.271  0.00  0.00    +0.000 A 
ATOM     23  C   UNL     1      47.866  10.517  11.603  0.00  0.00    +0.000 A 
ATOM     24  S   UNL     1      49.488  11.014  11.802  0.00  0.00    +0.000 S 
ATOM     25  C   UNL     1      49.853   9.644  12.741  0.00  0.00    +0.000 A 
ATOM     26  N   UNL     1      51.100   9.455  13.257  0.00  0.00    +0.000 NA
ATOM     27  C   UNL     1      51.244   8.361  13.926  0.00  0.00    +0.000 A 
ATOM     28  N   UNL     1      50.257   7.427  14.117  0.00  0.00    +0.000 N 
ATOM     29  C   UNL     1      48.981   7.579  13.627  0.00  0.00    +0.000 A 
ATOM     30  O   UNL     1      48.109   6.744  13.847  0.00  0.00    +0.000 OA
ATOM     31  C   UNL     1      48.762   8.812  12.892  0.00  0.00    +0.000 A 
ATOM     32  H   UNL     1      50.434   6.583  14.639  0.00  0.00    +0.000 HD
ENDBRANCH  19  22
ENDBRANCH   1  20
TORSDOF 7
ENDMDL
MODEL 6
REMARK VINA RESULT:    -6.874      3.392      8.854
REMARK INTER + INTRA:         -10.259
REMARK INTER:                  -9.375
REMARK INTRA:                  -0.883
REMARK UNBOUND:                -0.773
REMARK  Name = 
REMARK  7 active torsions:
REMARK  status: ('A' for Active; 'I' for Inactive)
REMARK    1  A    between atoms: C_2  and  C_20
REMARK    2  A    between atoms: N_3  and  C_4
REMARK    3  A    between atoms: C_4  and  C_5
REMARK    4  A    between atoms: N_8  and  C_9
REMARK    5  A    between atoms: C_9  and  C_10
REMARK    6  A    between atoms: CA_14  and  C_15
REMARK    7  A    between atoms: C_15  and  O_16
REMARK                            x       y       z     vdW  Elec       q    Type
REMARK                         _______ _______ _______ _____ _____    ______ ____
ROOT
ATOM      1  C   UNL     1      47.909   4.920  16.131  0.00  0.00    +0.000 C 
ENDROOT
BRANCH   1   2
ATOM      2  C   UNL     1      47.243   4.323  17.384  0.00  0.00    +0.000 C 
ATOM      3  C   UNL     1      47.100   5.326  18.535  0.00  0.00    +0.000 C 
ATOM      4  C   UNL     1      48.452   5.722  19.135  0.00  0.00    +0.000 C 
ATOM      5  N   UNL     1      49.234   4.559  19.589  0.00  0.00    +0.000 NA
ATOM      6  C   UNL     1      49.376   3.536  18.538  0.00  0.00    +0.000 C 
ATOM      7  C   UNL     1      48.040   3.121  17.911  0.00  0.00    +0.000 C 
BRANCH   5   8
ATOM      8  C   UNL     1      50.587   4.985  20.041  0.00  0.00    +0.000 C 
BRANCH   8   9
ATOM      9  C   UNL     1      51.619   5.126  18.929  0.00  0.00    +0.000 A 
ATOM     10  C   UNL     1      52.781   4.358  18.966  0.00  0.00    +0.000 A 
ATOM     11  C   UNL     1      53.750   4.559  17.991  0.00  0.00    +0.000 A 
ATOM     12  C   UNL     1      53.527   5.499  16.992  0.00  0.00    +0.000 A 
ATOM     13  CA  UNL     1      52.329   6.206  16.990  0.00  0.00    +0.000 A 
ATOM     14  N   UNL     1      51.373   6.037  17.945  0.00  0.00    +0.000 NA
BRANCH  13  15
ATOM     15  C   UNL     1      52.024   7.156  15.850  0.00  0.00    +0.000 C 
BRANCH  15  16
ATOM     16  O   UNL     1      50.802   6.826  15.195  0.00  0.00    +0.000 OA
ATOM     17  H   UNL     1      50.528   7.656  14.755  0.00  0.00    +0.000 HD
ENDBRANCH  15  16
ENDBRANCH  13  15
ENDBRANCH   8   9
ENDBRANCH   5   8
ENDBRANCH   1   2
BRANCH   1  20
ATOM     18  O   UNL     1      48.489   6.027  13.574  0.00  0.00    +0.000 OA
ATOM     19  C   UNL     1      47.331   5.725  13.851  0.00  0.00    +0.000 C 
ATOM     20  N   UNL     1      46.983   5.132  15.039  0.00  0.00    +0.000 N 
ATOM     21  H   UNL     1      46.000   5.035  15.264  0.00  0.00    +0.000 HD
BRANCH  19  22
ATOM     22  C   UNL     1      46.232   5.920  12.897  0.00  0.00    +0.000 A 
ATOM     23  C   UNL     1      45.843   7.200  12.525  0.00  0.00    +0.000 A 
ATOM     24  S   UNL     1      44.616   7.219  11.338  0.00  0.00    +0.000 S 
ATOM     25  C   UNL     1      44.525   5.521  11.322  0.00  0.00    +0.000 A 
ATOM     26  N   UNL     1      43.661   4.869  10.494  0.00  0.00    +0.000 NA
ATOM     27  C   UNL     1      43.678   3.583  10.605  0.00  0.00    +0.000 A 
ATOM     28  N   UNL     1      44.471   2.886  11.481  0.00  0.00    +0.000 N 
ATOM     29  C   UNL     1      45.366   3.498  12.327  0.00  0.00    +0.000 A 
ATOM     30  O   UNL     1      46.090   2.845  13.072  0.00  0.00    +0.000 OA
ATOM     31  C   UNL     1      45.406   4.945  12.216  0.00  0.00    +0.000 A 
ATOM     32  H   UNL     1      44.430   1.880  11.532  0.00  0.00    +0.000 HD
ENDBRANCH  19  22
ENDBRANCH   1  20
TORSDOF 7
ENDMDL
MODEL 7
REMARK VINA RESULT:    -6.865      3.515      8.397
REMARK INTER + INTRA:         -10.247
REMARK INTER:                  -9.417
REMARK INTRA:                  -0.830
REMARK UNBOUND:                -0.773
REMARK  Name = 
REMARK  7 active torsions:
REMARK  status: ('A' for Active; 'I' for Inactive)
REMARK    1  A    between atoms: C_2  and  C_20
REMARK    2  A    between atoms: N_3  and  C_4
REMARK    3  A    between atoms: C_4  and  C_5
REMARK    4  A    between atoms: N_8  and  C_9
REMARK    5  A    between atoms: C_9  and  C_10
REMARK    6  A    between atoms: CA_14  and  C_15
REMARK    7  A    between atoms: C_15  and  O_16
REMARK                            x       y       z     vdW  Elec       q    Type
REMARK                         _______ _______ _______ _____ _____    ______ ____
ROOT
ATOM      1  C   UNL     1      49.806   7.519  14.484  0.00  0.00    +0.000 C 
ENDROOT
BRANCH   1   2
ATOM      2  C   UNL     1      49.808   8.818  15.311  0.00  0.00    +0.000 C 
ATOM      3  C   UNL     1      51.029   8.954  16.229  0.00  0.00    +0.000 C 
ATOM      4  C   UNL     1      51.018   7.931  17.369  0.00  0.00    +0.000 C 
ATOM      5  N   UNL     1      49.786   7.991  18.174  0.00  0.00    +0.000 NA
ATOM      6  C   UNL     1      48.570   7.904  17.345  0.00  0.00    +0.000 C 
ATOM      7  C   UNL     1      48.552   8.912  16.190  0.00  0.00    +0.000 C 
BRANCH   5   8
ATOM      8  C   UNL     1      49.767   6.895  19.182  0.00  0.00    +0.000 C 
BRANCH   8   9
ATOM      9  C   UNL     1      49.861   5.490  18.602  0.00  0.00    +0.000 A 
ATOM     10  C   UNL     1      51.111   4.926  18.357  0.00  0.00    +0.000 A 
ATOM     11  C   UNL     1      51.179   3.679  17.750  0.00  0.00    +0.000 A 
ATOM     12  C   UNL     1      50.003   3.014  17.425  0.00  0.00    +0.000 A 
ATOM     13  CA  UNL     1      48.785   3.614  17.730  0.00  0.00    +0.000 A 
ATOM     14  N   UNL     1      48.696   4.843  18.310  0.00  0.00    +0.000 NA
BRANCH  13  15
ATOM     15  C   UNL     1      47.497   2.859  17.481  0.00  0.00    +0.000 C 
BRANCH  15  16
ATOM     16  O   UNL     1      46.548   3.646  16.765  0.00  0.00    +0.000 OA
ATOM     17  H   UNL     1      46.319   4.373  17.379  0.00  0.00    +0.000 HD
ENDBRANCH  15  16
ENDBRANCH  13  15
ENDBRANCH   8   9
ENDBRANCH   5   8
ENDBRANCH   1   2
BRANCH   1  20
ATOM     18  O   UNL     1      47.997   5.359  14.882  0.00  0.00    +0.000 OA
ATOM     19  C   UNL     1      47.764   6.185  14.004  0.00  0.00    +0.000 C 
ATOM     20  N   UNL     1      48.557   7.286  13.792  0.00  0.00    +0.000 N 
ATOM     21  H   UNL     1      48.391   7.852  12.969  0.00  0.00    +0.000 HD
BRANCH  19  22
ATOM     22  C   UNL     1      46.573   6.091  13.149  0.00  0.00    +0.000 A 
ATOM     23  C   UNL     1      45.984   7.238  12.635  0.00  0.00    +0.000 A 
ATOM     24  S   UNL     1      44.673   6.918  11.589  0.00  0.00    +0.000 S 
ATOM     25  C   UNL     1      44.815   5.240  11.830  0.00  0.00    +0.000 A 
ATOM     26  N   UNL     1      43.985   4.364  11.198  0.00  0.00    +0.000 NA
ATOM     27  C   UNL     1      44.187   3.124  11.494  0.00  0.00    +0.000 A 
ATOM     28  N   UNL     1      45.137   2.677  12.377  0.00  0.00    +0.000 N 
ATOM     29  C   UNL     1      46.006   3.520  13.029  0.00  0.00    +0.000 A 
ATOM     30  O   UNL     1      46.871   3.088  13.784  0.00  0.00    +0.000 OA
ATOM     31  C   UNL     1      45.837   4.926  12.704  0.00  0.00    +0.000 A 
ATOM     32  H   UNL     1      45.239   1.695  12.578  0.00  0.00    +0.000 HD
ENDBRANCH  19  22
ENDBRANCH   1  20
TORSDOF 7
ENDMDL
MODEL 8
REMARK VINA RESULT:    -6.813      4.277      6.335
REMARK INTER + INTRA:         -10.175
REMARK INTER:                  -9.461
REMARK INTRA:                  -0.714
REMARK UNBOUND:                -0.773
REMARK  Name = 
REMARK  7 active torsions:
REMARK  status: ('A' for Active; 'I' for Inactive)
REMARK    1  A    between atoms: C_2  and  C_20
REMARK    2  A    between atoms: N_3  and  C_4
REMARK    3  A    between atoms: C_4  and  C_5
REMARK    4  A    between atoms: N_8  and  C_9
REMARK    5  A    between atoms: C_9  and  C_10
REMARK    6  A    between atoms: CA_14  and  C_15
REMARK    7  A    between atoms: C_15  and  O_16
REMARK                            x       y       z     vdW  Elec       q    Type
REMARK                         _______ _______ _______ _____ _____    ______ ____
ROOT
ATOM      1  C   UNL     1      46.387   4.828  14.431  0.00  0.00    +0.000 C 
ENDROOT
BRANCH   1   2
ATOM      2  C   UNL     1      46.708   5.056  12.942  0.00  0.00    +0.000 C 
ATOM      3  C   UNL     1      47.756   6.151  12.706  0.00  0.00    +0.000 C 
ATOM      4  C   UNL     1      47.235   7.545  13.066  0.00  0.00    +0.000 C 
ATOM      5  N   UNL     1      45.992   7.889  12.353  0.00  0.00    +0.000 NA
ATOM      6  C   UNL     1      44.953   6.856  12.508  0.00  0.00    +0.000 C 
ATOM      7  C   UNL     1      45.445   5.445  12.161  0.00  0.00    +0.000 C 
BRANCH   5   8
ATOM      8  C   UNL     1      45.459   9.193  12.834  0.00  0.00    +0.000 C 
BRANCH   8   9
ATOM      9  C   UNL     1      44.725  10.013  11.781  0.00  0.00    +0.000 A 
ATOM     10  C   UNL     1      45.434  10.923  10.998  0.00  0.00    +0.000 A 
ATOM     11  C   UNL     1      44.738  11.723  10.102  0.00  0.00    +0.000 A 
ATOM     12  C   UNL     1      43.360  11.580   9.987  0.00  0.00    +0.000 A 
ATOM     13  CA  UNL     1      42.716  10.627  10.771  0.00  0.00    +0.000 A 
ATOM     14  N   UNL     1      43.377   9.844  11.668  0.00  0.00    +0.000 NA
BRANCH  13  15
ATOM     15  C   UNL     1      41.233  10.384  10.583  0.00  0.00    +0.000 C 
BRANCH  15  16
ATOM     16  O   UNL     1      40.763   9.311  11.395  0.00  0.00    +0.000 OA
ATOM     17  H   UNL     1      41.506   9.117  12.000  0.00  0.00    +0.000 HD
ENDBRANCH  15  16
ENDBRANCH  13  15
ENDBRANCH   8   9
ENDBRANCH   5   8
ENDBRANCH   1   2
BRANCH   1  20
ATOM     18  O   UNL     1      46.606   3.683  17.027  0.00  0.00    +0.000 OA
ATOM     19  C   UNL     1      47.577   4.252  16.535  0.00  0.00    +0.000 C 
ATOM     20  N   UNL     1      47.567   4.775  15.267  0.00  0.00    +0.000 N 
ATOM     21  H   UNL     1      48.347   5.351  14.972  0.00  0.00    +0.000 HD
BRANCH  19  22
ATOM     22  C   UNL     1      48.855   4.360  17.252  0.00  0.00    +0.000 A 
ATOM     23  C   UNL     1      49.160   5.505  17.976  0.00  0.00    +0.000 A 
ATOM     24  S   UNL     1      50.644   5.403  18.815  0.00  0.00    +0.000 S 
ATOM     25  C   UNL     1      50.952   3.849  18.197  0.00  0.00    +0.000 A 
ATOM     26  N   UNL     1      52.080   3.165  18.541  0.00  0.00    +0.000 NA
ATOM     27  C   UNL     1      52.199   2.009  17.977  0.00  0.00    +0.000 A 
ATOM     28  N   UNL     1      51.300   1.478  17.088  0.00  0.00    +0.000 N 
ATOM     29  C   UNL     1      50.143   2.124  16.720  0.00  0.00    +0.000 A 
ATOM     30  O   UNL     1      49.338   1.606  15.952  0.00  0.00    +0.000 OA
ATOM     31  C   UNL     1      49.949   3.416  17.353  0.00  0.00    +0.000 A 
ATOM     32  H   UNL     1      51.455   0.574  16.670  0.00  0.00    +0.000 HD
ENDBRANCH  19  22
ENDBRANCH   1  20
TORSDOF 7
ENDMDL
MODEL 9
REMARK VINA RESULT:    -6.786      3.988      6.330
REMARK INTER + INTRA:         -10.138
REMARK INTER:                  -9.276
REMARK INTRA:                  -0.862
REMARK UNBOUND:                -0.773
REMARK  Name = 
REMARK  7 active torsions:
REMARK  status: ('A' for Active; 'I' for Inactive)
REMARK    1  A    between atoms: C_2  and  C_20
REMARK    2  A    between atoms: N_3  and  C_4
REMARK    3  A    between atoms: C_4  and  C_5
REMARK    4  A    between atoms: N_8  and  C_9
REMARK    5  A    between atoms: C_9  and  C_10
REMARK    6  A    between atoms: CA_14  and  C_15
REMARK    7  A    between atoms: C_15  and  O_16
REMARK                            x       y       z     vdW  Elec       q    Type
REMARK                         _______ _______ _______ _____ _____    ______ ____
ROOT
ATOM      1  C   UNL     1      45.739   5.264  13.377  0.00  0.00    +0.000 C 
ENDROOT
BRANCH   1   2
ATOM      2  C   UNL     1      46.533   5.815  12.178  0.00  0.00    +0.000 C 
ATOM      3  C   UNL     1      47.393   7.037  12.526  0.00  0.00    +0.000 C 
ATOM      4  C   UNL     1      46.547   8.271  12.854  0.00  0.00    +0.000 C 
ATOM      5  N   UNL     1      45.608   8.619  11.773  0.00  0.00    +0.000 NA
ATOM      6  C   UNL     1      44.776   7.474  11.364  0.00  0.00    +0.000 C 
ATOM      7  C   UNL     1      45.593   6.219  11.034  0.00  0.00    +0.000 C 
BRANCH   5   8
ATOM      8  C   UNL     1      44.722   9.740  12.193  0.00  0.00    +0.000 C 
BRANCH   8   9
ATOM      9  C   UNL     1      43.767  10.239  11.117  0.00  0.00    +0.000 A 
ATOM     10  C   UNL     1      44.277  10.742   9.922  0.00  0.00    +0.000 A 
ATOM     11  C   UNL     1      43.398  11.271   8.986  0.00  0.00    +0.000 A 
ATOM     12  C   UNL     1      42.033  11.263   9.251  0.00  0.00    +0.000 A 
ATOM     13  CA  UNL     1      41.585  10.712  10.448  0.00  0.00    +0.000 A 
ATOM     14  N   UNL     1      42.431  10.202  11.386  0.00  0.00    +0.000 NA
BRANCH  13  15
ATOM     15  C   UNL     1      40.097  10.597  10.707  0.00  0.00    +0.000 C 
BRANCH  15  16
ATOM     16  O   UNL     1      39.762   9.375  11.359  0.00  0.00    +0.000 OA
ATOM     17  H   UNL     1      40.388   8.720  10.989  0.00  0.00    +0.000 HD
ENDBRANCH  15  16
ENDBRANCH  13  15
ENDBRANCH   8   9
ENDBRANCH   5   8
ENDBRANCH   1   2
BRANCH   1  20
ATOM     18  O   UNL     1      47.378   3.157  14.362  0.00  0.00    +0.000 OA
ATOM     19  C   UNL     1      47.226   4.169  15.040  0.00  0.00    +0.000 C 
ATOM     20  N   UNL     1      46.500   5.251  14.607  0.00  0.00    +0.000 N 
ATOM     21  H   UNL     1      46.297   5.994  15.264  0.00  0.00    +0.000 HD
BRANCH  19  22
ATOM     22  C   UNL     1      47.868   4.325  16.353  0.00  0.00    +0.000 A 
ATOM     23  C   UNL     1      47.493   3.519  17.418  0.00  0.00    +0.000 A 
ATOM     24  S   UNL     1      48.417   3.785  18.830  0.00  0.00    +0.000 S 
ATOM     25  C   UNL     1      49.313   5.021  18.080  0.00  0.00    +0.000 A 
ATOM     26  N   UNL     1      50.305   5.676  18.746  0.00  0.00    +0.000 NA
ATOM     27  C   UNL     1      50.883   6.609  18.065  0.00  0.00    +0.000 A 
ATOM     28  N   UNL     1      50.550   6.959  16.781  0.00  0.00    +0.000 N 
ATOM     29  C   UNL     1      49.566   6.319  16.064  0.00  0.00    +0.000 A 
ATOM     30  O   UNL     1      49.317   6.629  14.903  0.00  0.00    +0.000 OA
ATOM     31  C   UNL     1      48.907   5.240  16.778  0.00  0.00    +0.000 A 
ATOM     32  H   UNL     1      51.030   7.707  16.306  0.00  0.00    +0.000 HD
ENDBRANCH  19  22
ENDBRANCH   1  20
TORSDOF 7
ENDMDL
