MODEL 1
REMARK VINA RESULT:    -7.482      0.000      0.000
REMARK INTER + INTRA:          -9.993
REMARK INTER:                  -9.231
REMARK INTRA:                  -0.762
REMARK UNBOUND:                -0.762
REMARK  Name = 
REMARK  4 active torsions:
REMARK  status: ('A' for Active; 'I' for Inactive)
REMARK    1  A    between atoms: C_2  and  C_4
REMARK    2  A    between atoms: C_9  and  C_10
REMARK    3  A    between atoms: C_10  and  N_11
REMARK    4  A    between atoms: C_16  and  C_17
REMARK                            x       y       z     vdW  Elec       q    Type
REMARK                         _______ _______ _______ _____ _____    ______ ____
ROOT
ATOM      1  N   UNL     1      45.806   6.384  13.352  0.00  0.00    +0.000 N 
ATOM      2  C   UNL     1      44.947   5.656  12.500  0.00  0.00    +0.000 A 
ATOM      3  C   UNL     1      43.576   5.777  12.689  0.00  0.00    +0.000 A 
ATOM      4  C   UNL     1      42.712   5.130  11.815  0.00  0.00    +0.000 A 
ATOM      5  C   UNL     1      43.241   4.422  10.741  0.00  0.00    +0.000 A 
ATOM      6  C   UNL     1      44.623   4.380  10.570  0.00  0.00    +0.000 A 
ATOM      7  N   UNL     1      45.462   4.988  11.453  0.00  0.00    +0.000 NA
ATOM      8  H   UNL     1      45.867   7.304  12.924  0.00  0.00    +0.000 HD
ENDROOT
BRANCH   6   9
ATOM      9  C   UNL     1      45.261   3.720   9.405  0.00  0.00    +0.000 A 
ATOM     10  C   UNL     1      45.339   2.329   9.294  0.00  0.00    +0.000 A 
ATOM     11  C   UNL     1      45.987   1.760   8.200  0.00  0.00    +0.000 A 
ATOM     12  C   UNL     1      46.541   2.587   7.234  0.00  0.00    +0.000 A 
ATOM     13  C   UNL     1      46.421   3.954   7.404  0.00  0.00    +0.000 A 
ATOM     14  N   UNL     1      45.802   4.535   8.456  0.00  0.00    +0.000 NA
ENDBRANCH   6   9
BRANCH   1  15
ATOM     15  C   UNL     1      47.142   5.776  13.438  0.00  0.00    +0.000 C 
BRANCH  15  21
ATOM     16  C   UNL     1      49.126   7.208  14.129  0.00  0.00    +0.000 A 
ATOM     17  N   UNL     1      50.143   8.103  13.914  0.00  0.00    +0.000 NA
ATOM     18  C   UNL     1      50.300   8.562  12.657  0.00  0.00    +0.000 A 
ATOM     19  C   UNL     1      49.497   8.184  11.599  0.00  0.00    +0.000 A 
ATOM     20  C   UNL     1      48.463   7.284  11.842  0.00  0.00    +0.000 A 
ATOM     21  C   UNL     1      48.249   6.765  13.128  0.00  0.00    +0.000 A 
BRANCH  16  23
ATOM     22  N   UNL     1      48.312   7.562  16.395  0.00  0.00    +0.000 N 
ATOM     23  C   UNL     1      49.028   6.743  15.565  0.00  0.00    +0.000 C 
ATOM     24  O   UNL     1      49.538   5.715  15.994  0.00  0.00    +0.000 OA
ATOM     25  H   UNL     1      48.167   7.293  17.356  0.00  0.00    +0.000 HD
ATOM     26  H   UNL     1      47.882   8.399  16.016  0.00  0.00    +0.000 HD
ENDBRANCH  16  23
ENDBRANCH  15  21
ENDBRANCH   1  15
TORSDOF 4
ENDMDL
MODEL 2
REMARK VINA RESULT:    -7.460      1.575      2.813
REMARK INTER + INTRA:          -9.966
REMARK INTER:                  -9.309
REMARK INTRA:                  -0.656
REMARK UNBOUND:                -0.762
REMARK  Name = 
REMARK  4 active torsions:
REMARK  status: ('A' for Active; 'I' for Inactive)
REMARK    1  A    between atoms: C_2  and  C_4
REMARK    2  A    between atoms: C_9  and  C_10
REMARK    3  A    between atoms: C_10  and  N_11
REMARK    4  A    between atoms: C_16  and  C_17
REMARK                            x       y       z     vdW  Elec       q    Type
REMARK                         _______ _______ _______ _____ _____    ______ ____
ROOT
ATOM      1  N   UNL     1      45.767   5.743  13.742  0.00  0.00    +0.000 N 
ATOM      2  C   UNL     1      44.898   5.263  12.738  0.00  0.00    +0.000 A 
ATOM      3  C   UNL     1      43.549   5.580  12.831  0.00  0.00    +0.000 A 
ATOM      4  C   UNL     1      42.689   5.183  11.815  0.00  0.00    +0.000 A 
ATOM      5  C   UNL     1      43.210   4.527  10.704  0.00  0.00    +0.000 A 
ATOM      6  C   UNL     1      44.580   4.285  10.640  0.00  0.00    +0.000 A 
ATOM      7  N   UNL     1      45.409   4.645  11.658  0.00  0.00    +0.000 NA
ATOM      8  H   UNL     1      46.007   6.684  13.441  0.00  0.00    +0.000 HD
ENDROOT
BRANCH   6   9
ATOM      9  C   UNL     1      45.224   3.667   9.455  0.00  0.00    +0.000 A 
ATOM     10  C   UNL     1      45.339   2.282   9.313  0.00  0.00    +0.000 A 
ATOM     11  C   UNL     1      45.992   1.755   8.200  0.00  0.00    +0.000 A 
ATOM     12  C   UNL     1      46.514   2.618   7.248  0.00  0.00    +0.000 A 
ATOM     13  C   UNL     1      46.358   3.978   7.449  0.00  0.00    +0.000 A 
ATOM     14  N   UNL     1      45.734   4.517   8.520  0.00  0.00    +0.000 NA
ENDBRANCH   6   9
BRANCH   1  15
ATOM     15  C   UNL     1      46.983   4.923  13.856  0.00  0.00    +0.000 C 
BRANCH  15  21
ATOM     16  C   UNL     1      48.285   5.699  15.897  0.00  0.00    +0.000 A 
ATOM     17  N   UNL     1      48.733   5.606  17.190  0.00  0.00    +0.000 NA
ATOM     18  C   UNL     1      48.311   4.548  17.910  0.00  0.00    +0.000 A 
ATOM     19  C   UNL     1      47.471   3.570  17.414  0.00  0.00    +0.000 A 
ATOM     20  C   UNL     1      47.038   3.678  16.096  0.00  0.00    +0.000 A 
ATOM     21  C   UNL     1      47.436   4.759  15.293  0.00  0.00    +0.000 A 
BRANCH  16  23
ATOM     22  N   UNL     1      48.076   8.063  15.359  0.00  0.00    +0.000 N 
ATOM     23  C   UNL     1      48.802   6.918  15.168  0.00  0.00    +0.000 C 
ATOM     24  O   UNL     1      49.793   6.925  14.449  0.00  0.00    +0.000 OA
ATOM     25  H   UNL     1      48.386   8.926  14.940  0.00  0.00    +0.000 HD
ATOM     26  H   UNL     1      47.268   8.042  15.973  0.00  0.00    +0.000 HD
ENDBRANCH  16  23
ENDBRANCH  15  21
ENDBRANCH   1  15
TORSDOF 4
ENDMDL
MODEL 3
REMARK VINA RESULT:    -7.442      1.548      2.195
REMARK INTER + INTRA:          -9.944
REMARK INTER:                  -9.116
REMARK INTRA:                  -0.827
REMARK UNBOUND:                -0.762
REMARK  Name = 
REMARK  4 active torsions:
REMARK  status: ('A' for Active; 'I' for Inactive)
REMARK    1  A    between atoms: C_2  and  C_4
REMARK    2  A    between atoms: C_9  and  C_10
REMARK    3  A    between atoms: C_10  and  N_11
REMARK    4  A    between atoms: C_16  and  C_17
REMARK                            x       y       z     vdW  Elec       q    Type
REMARK                         _______ _______ _______ _____ _____    ______ ____
ROOT
ATOM      1  N   UNL     1      46.202   7.249  12.074  0.00  0.00    +0.000 N 
ATOM      2  C   UNL     1      45.336   6.299  11.489  0.00  0.00    +0.000 A 
ATOM      3  C   UNL     1      43.978   6.392  11.762  0.00  0.00    +0.000 A 
ATOM      4  C   UNL     1      43.100   5.515  11.138  0.00  0.00    +0.000 A 
ATOM      5  C   UNL     1      43.597   4.603  10.213  0.00  0.00    +0.000 A 
ATOM      6  C   UNL     1      44.962   4.592   9.938  0.00  0.00    +0.000 A 
ATOM      7  N   UNL     1      45.819   5.431  10.583  0.00  0.00    +0.000 NA
ATOM      8  H   UNL     1      46.168   8.045  11.442  0.00  0.00    +0.000 HD
ENDROOT
BRANCH   6   9
ATOM      9  C   UNL     1      45.559   3.710   8.905  0.00  0.00    +0.000 A 
ATOM     10  C   UNL     1      45.544   2.317   9.023  0.00  0.00    +0.000 A 
ATOM     11  C   UNL     1      46.156   1.536   8.045  0.00  0.00    +0.000 A 
ATOM     12  C   UNL     1      46.769   2.156   6.966  0.00  0.00    +0.000 A 
ATOM     13  C   UNL     1      46.740   3.538   6.910  0.00  0.00    +0.000 A 
ATOM     14  N   UNL     1      46.158   4.322   7.845  0.00  0.00    +0.000 NA
ENDBRANCH   6   9
BRANCH   1  15
ATOM     15  C   UNL     1      47.580   6.746  12.182  0.00  0.00    +0.000 C 
BRANCH  15  21
ATOM     16  C   UNL     1      47.884   5.761  14.506  0.00  0.00    +0.000 A 
ATOM     17  N   UNL     1      48.333   5.761  15.802  0.00  0.00    +0.000 NA
ATOM     18  C   UNL     1      49.040   6.834  16.207  0.00  0.00    +0.000 A 
ATOM     19  C   UNL     1      49.322   7.915  15.395  0.00  0.00    +0.000 A 
ATOM     20  C   UNL     1      48.847   7.901  14.087  0.00  0.00    +0.000 A 
ATOM     21  C   UNL     1      48.108   6.810  13.601  0.00  0.00    +0.000 A 
BRANCH  16  23
ATOM     22  N   UNL     1      45.764   4.573  14.392  0.00  0.00    +0.000 N 
ATOM     23  C   UNL     1      47.108   4.518  14.137  0.00  0.00    +0.000 C 
ATOM     24  O   UNL     1      47.606   3.513  13.645  0.00  0.00    +0.000 OA
ATOM     25  H   UNL     1      45.175   3.797  14.132  0.00  0.00    +0.000 HD
ATOM     26  H   UNL     1      45.367   5.421  14.783  0.00  0.00    +0.000 HD
ENDBRANCH  16  23
ENDBRANCH  15  21
ENDBRANCH   1  15
TORSDOF 4
ENDMDL
MODEL 4
REMARK VINA RESULT:    -7.267      2.542      3.312
REMARK INTER + INTRA:          -9.728
REMARK INTER:                  -9.182
REMARK INTRA:                  -0.547
REMARK UNBOUND:                -0.762
REMARK  Name = 
REMARK  4 active torsions:
REMARK  status: ('A' for Active; 'I' for Inactive)
REMARK    1  A    between atoms: C_2  and  C_4
REMARK    2  A    between atoms: C_9  and  C_10
REMARK    3  A    between atoms: C_10  and  N_11
REMARK    4  A    between atoms: C_16  and  C_17
REMARK                            x       y       z     vdW  Elec       q    Type
REMARK                         _______ _______ _______ _____ _____    ______ ____
ROOT
ATOM      1  N   UNL     1      43.761   6.489  11.375  0.00  0.00    +0.000 N 
ATOM      2  C   UNL     1      43.929   5.102  11.172  0.00  0.00    +0.000 A 
ATOM      3  C   UNL     1      43.173   4.228  11.943  0.00  0.00    +0.000 A 
ATOM      4  C   UNL     1      43.267   2.863  11.707  0.00  0.00    +0.000 A 
ATOM      5  C   UNL     1      44.072   2.408  10.668  0.00  0.00    +0.000 A 
ATOM      6  C   UNL     1      44.764   3.334   9.891  0.00  0.00    +0.000 A 
ATOM      7  N   UNL     1      44.694   4.669  10.154  0.00  0.00    +0.000 NA
ATOM      8  H   UNL     1      42.959   6.734  10.799  0.00  0.00    +0.000 HD
ENDROOT
BRANCH   6   9
ATOM      9  C   UNL     1      45.575   2.938   8.714  0.00  0.00    +0.000 A 
ATOM     10  C   UNL     1      45.901   3.844   7.701  0.00  0.00    +0.000 A 
ATOM     11  C   UNL     1      46.630   3.410   6.596  0.00  0.00    +0.000 A 
ATOM     12  C   UNL     1      47.024   2.082   6.523  0.00  0.00    +0.000 A 
ATOM     13  C   UNL     1      46.672   1.242   7.564  0.00  0.00    +0.000 A 
ATOM     14  N   UNL     1      45.963   1.634   8.646  0.00  0.00    +0.000 NA
ENDBRANCH   6   9
BRANCH   1  15
ATOM     15  C   UNL     1      44.943   7.255  10.951  0.00  0.00    +0.000 C 
BRANCH  15  21
ATOM     16  C   UNL     1      46.252   8.655  12.621  0.00  0.00    +0.000 A 
ATOM     17  N   UNL     1      47.168   8.853  13.622  0.00  0.00    +0.000 NA
ATOM     18  C   UNL     1      47.811   7.765  14.090  0.00  0.00    +0.000 A 
ATOM     19  C   UNL     1      47.598   6.487  13.613  0.00  0.00    +0.000 A 
ATOM     20  C   UNL     1      46.673   6.309  12.588  0.00  0.00    +0.000 A 
ATOM     21  C   UNL     1      45.966   7.401  12.060  0.00  0.00    +0.000 A 
BRANCH  16  23
ATOM     22  N   UNL     1      44.293  10.098  12.608  0.00  0.00    +0.000 N 
ATOM     23  C   UNL     1      45.576   9.927  12.163  0.00  0.00    +0.000 C 
ATOM     24  O   UNL     1      46.102  10.769  11.446  0.00  0.00    +0.000 OA
ATOM     25  H   UNL     1      43.795  10.945  12.379  0.00  0.00    +0.000 HD
ATOM     26  H   UNL     1      43.881   9.398  13.217  0.00  0.00    +0.000 HD
ENDBRANCH  16  23
ENDBRANCH  15  21
ENDBRANCH   1  15
TORSDOF 4
ENDMDL
MODEL 5
REMARK VINA RESULT:    -7.198      2.509      6.818
REMARK INTER + INTRA:          -9.643
REMARK INTER:                  -8.584
REMARK INTRA:                  -1.060
REMARK UNBOUND:                -0.762
REMARK  Name = 
REMARK  4 active torsions:
REMARK  status: ('A' for Active; 'I' for Inactive)
REMARK    1  A    between atoms: C_2  and  C_4
REMARK    2  A    between atoms: C_9  and  C_10
REMARK    3  A    between atoms: C_10  and  N_11
REMARK    4  A    between atoms: C_16  and  C_17
REMARK                            x       y       z     vdW  Elec       q    Type
REMARK                         _______ _______ _______ _____ _____    ______ ____
ROOT
ATOM      1  N   UNL     1      45.627   6.946  11.156  0.00  0.00    +0.000 N 
ATOM      2  C   UNL     1      46.835   6.877  11.884  0.00  0.00    +0.000 A 
ATOM      3  C   UNL     1      47.909   7.644  11.450  0.00  0.00    +0.000 A 
ATOM      4  C   UNL     1      49.081   7.649  12.195  0.00  0.00    +0.000 A 
ATOM      5  C   UNL     1      49.131   6.931  13.385  0.00  0.00    +0.000 A 
ATOM      6  C   UNL     1      48.005   6.224  13.798  0.00  0.00    +0.000 A 
ATOM      7  N   UNL     1      46.872   6.195  13.043  0.00  0.00    +0.000 NA
ATOM      8  H   UNL     1      45.149   7.760  11.534  0.00  0.00    +0.000 HD
ENDROOT
BRANCH   6   9
ATOM      9  C   UNL     1      47.948   5.503  15.093  0.00  0.00    +0.000 A 
ATOM     10  C   UNL     1      48.525   6.022  16.256  0.00  0.00    +0.000 A 
ATOM     11  C   UNL     1      48.481   5.284  17.437  0.00  0.00    +0.000 A 
ATOM     12  C   UNL     1      47.859   4.045  17.439  0.00  0.00    +0.000 A 
ATOM     13  C   UNL     1      47.303   3.595  16.255  0.00  0.00    +0.000 A 
ATOM     14  N   UNL     1      47.334   4.286  15.094  0.00  0.00    +0.000 NA
ENDBRANCH   6   9
BRANCH   1  15
ATOM     15  C   UNL     1      44.802   5.743  11.341  0.00  0.00    +0.000 C 
BRANCH  15  21
ATOM     16  C   UNL     1      44.879   3.328  10.550  0.00  0.00    +0.000 A 
ATOM     17  N   UNL     1      45.103   2.330   9.636  0.00  0.00    +0.000 NA
ATOM     18  C   UNL     1      45.514   2.704   8.409  0.00  0.00    +0.000 A 
ATOM     19  C   UNL     1      45.722   4.018   8.038  0.00  0.00    +0.000 A 
ATOM     20  C   UNL     1      45.500   5.015   8.985  0.00  0.00    +0.000 A 
ATOM     21  C   UNL     1      45.066   4.692  10.281  0.00  0.00    +0.000 A 
BRANCH  16  23
ATOM     22  N   UNL     1      45.381   2.761  12.862  0.00  0.00    +0.000 N 
ATOM     23  C   UNL     1      44.414   2.818  11.895  0.00  0.00    +0.000 C 
ATOM     24  O   UNL     1      43.266   2.471  12.144  0.00  0.00    +0.000 OA
ATOM     25  H   UNL     1      45.135   2.472  13.797  0.00  0.00    +0.000 HD
ATOM     26  H   UNL     1      46.323   3.070  12.642  0.00  0.00    +0.000 HD
ENDBRANCH  16  23
ENDBRANCH  15  21
ENDBRANCH   1  15
TORSDOF 4
ENDMDL
MODEL 6
REMARK VINA RESULT:    -7.177      3.201      7.508
REMARK INTER + INTRA:          -9.617
REMARK INTER:                  -8.242
REMARK INTRA:                  -1.375
REMARK UNBOUND:                -0.762
REMARK  Name = 
REMARK  4 active torsions:
REMARK  status: ('A' for Active; 'I' for Inactive)
REMARK    1  A    between atoms: C_2  and  C_4
REMARK    2  A    between atoms: C_9  and  C_10
REMARK    3  A    between atoms: C_10  and  N_11
REMARK    4  A    between atoms: C_16  and  C_17
REMARK                            x       y       z     vdW  Elec       q    Type
REMARK                         _______ _______ _______ _____ _____    ______ ____
ROOT
ATOM      1  N   UNL     1      48.069   7.478  15.200  0.00  0.00    +0.000 N 
ATOM      2  C   UNL     1      49.035   7.172  16.183  0.00  0.00    +0.000 A 
ATOM      3  C   UNL     1      49.376   8.158  17.099  0.00  0.00    +0.000 A 
ATOM      4  C   UNL     1      50.267   7.854  18.120  0.00  0.00    +0.000 A 
ATOM      5  C   UNL     1      50.752   6.555  18.232  0.00  0.00    +0.000 A 
ATOM      6  C   UNL     1      50.332   5.593  17.316  0.00  0.00    +0.000 A 
ATOM      7  N   UNL     1      49.487   5.910  16.297  0.00  0.00    +0.000 NA
ATOM      8  H   UNL     1      47.177   7.307  15.658  0.00  0.00    +0.000 HD
ENDROOT
BRANCH   6   9
ATOM      9  C   UNL     1      50.736   4.170  17.416  0.00  0.00    +0.000 A 
ATOM     10  C   UNL     1      52.011   3.790  17.846  0.00  0.00    +0.000 A 
ATOM     11  C   UNL     1      52.353   2.440  17.881  0.00  0.00    +0.000 A 
ATOM     12  C   UNL     1      51.418   1.493  17.491  0.00  0.00    +0.000 A 
ATOM     13  C   UNL     1      50.173   1.938  17.083  0.00  0.00    +0.000 A 
ATOM     14  N   UNL     1      49.814   3.241  17.036  0.00  0.00    +0.000 NA
ENDBRANCH   6   9
BRANCH   1  15
ATOM     15  C   UNL     1      48.200   6.622  14.012  0.00  0.00    +0.000 C 
BRANCH  15  21
ATOM     16  C   UNL     1      46.311   4.925  13.877  0.00  0.00    +0.000 A 
ATOM     17  N   UNL     1      45.105   4.447  13.432  0.00  0.00    +0.000 NA
ATOM     18  C   UNL     1      44.413   5.226  12.579  0.00  0.00    +0.000 A 
ATOM     19  C   UNL     1      44.856   6.456  12.134  0.00  0.00    +0.000 A 
ATOM     20  C   UNL     1      46.089   6.918  12.588  0.00  0.00    +0.000 A 
ATOM     21  C   UNL     1      46.858   6.156  13.483  0.00  0.00    +0.000 A 
BRANCH  16  23
ATOM     22  N   UNL     1      46.853   4.285  16.161  0.00  0.00    +0.000 N 
ATOM     23  C   UNL     1      47.014   3.990  14.834  0.00  0.00    +0.000 C 
ATOM     24  O   UNL     1      47.687   3.027  14.490  0.00  0.00    +0.000 OA
ATOM     25  H   UNL     1      47.256   3.679  16.859  0.00  0.00    +0.000 HD
ATOM     26  H   UNL     1      46.276   5.077  16.427  0.00  0.00    +0.000 HD
ENDBRANCH  16  23
ENDBRANCH  15  21
ENDBRANCH   1  15
TORSDOF 4
ENDMDL
MODEL 7
REMARK VINA RESULT:    -6.985      2.645      5.140
REMARK INTER + INTRA:          -9.380
REMARK INTER:                  -8.076
REMARK INTRA:                  -1.304
REMARK UNBOUND:                -0.762
REMARK  Name = 
REMARK  4 active torsions:
REMARK  status: ('A' for Active; 'I' for Inactive)
REMARK    1  A    between atoms: C_2  and  C_4
REMARK    2  A    between atoms: C_9  and  C_10
REMARK    3  A    between atoms: C_10  and  N_11
REMARK    4  A    between atoms: C_16  and  C_17
REMARK                            x       y       z     vdW  Elec       q    Type
REMARK                         _______ _______ _______ _____ _____    ______ ____
ROOT
ATOM      1  N   UNL     1      49.421   6.845  15.075  0.00  0.00    +0.000 N 
ATOM      2  C   UNL     1      48.507   7.050  14.018  0.00  0.00    +0.000 A 
ATOM      3  C   UNL     1      48.819   7.997  13.053  0.00  0.00    +0.000 A 
ATOM      4  C   UNL     1      47.970   8.161  11.965  0.00  0.00    +0.000 A 
ATOM      5  C   UNL     1      46.859   7.334  11.843  0.00  0.00    +0.000 A 
ATOM      6  C   UNL     1      46.625   6.364  12.815  0.00  0.00    +0.000 A 
ATOM      7  N   UNL     1      47.443   6.236  13.896  0.00  0.00    +0.000 NA
ATOM      8  H   UNL     1      50.097   6.183  14.699  0.00  0.00    +0.000 HD
ENDROOT
BRANCH   6   9
ATOM      9  C   UNL     1      45.512   5.389  12.714  0.00  0.00    +0.000 A 
ATOM     10  C   UNL     1      44.186   5.750  12.970  0.00  0.00    +0.000 A 
ATOM     11  C   UNL     1      43.183   4.785  12.902  0.00  0.00    +0.000 A 
ATOM     12  C   UNL     1      43.519   3.479  12.577  0.00  0.00    +0.000 A 
ATOM     13  C   UNL     1      44.850   3.193  12.330  0.00  0.00    +0.000 A 
ATOM     14  N   UNL     1      45.844   4.107  12.391  0.00  0.00    +0.000 NA
ENDBRANCH   6   9
BRANCH   1  15
ATOM     15  C   UNL     1      48.770   6.282  16.267  0.00  0.00    +0.000 C 
BRANCH  15  21
ATOM     16  C   UNL     1      48.917   3.831  16.926  0.00  0.00    +0.000 A 
ATOM     17  N   UNL     1      49.542   2.718  17.428  0.00  0.00    +0.000 NA
ATOM     18  C   UNL     1      50.818   2.863  17.835  0.00  0.00    +0.000 A 
ATOM     19  C   UNL     1      51.509   4.057  17.777  0.00  0.00    +0.000 A 
ATOM     20  C   UNL     1      50.852   5.177  17.275  0.00  0.00    +0.000 A 
ATOM     21  C   UNL     1      49.523   5.092  16.829  0.00  0.00    +0.000 A 
BRANCH  16  23
ATOM     22  N   UNL     1      47.320   3.394  15.142  0.00  0.00    +0.000 N 
ATOM     23  C   UNL     1      47.492   3.574  16.488  0.00  0.00    +0.000 C 
ATOM     24  O   UNL     1      46.535   3.524  17.250  0.00  0.00    +0.000 OA
ATOM     25  H   UNL     1      46.403   3.175  14.782  0.00  0.00    +0.000 HD
ATOM     26  H   UNL     1      48.128   3.421  14.530  0.00  0.00    +0.000 HD
ENDBRANCH  16  23
ENDBRANCH  15  21
ENDBRANCH   1  15
TORSDOF 4
ENDMDL
MODEL 8
REMARK VINA RESULT:    -6.673      3.982      7.652
REMARK INTER + INTRA:          -8.995
REMARK INTER:                  -8.299
REMARK INTRA:                  -0.696
REMARK UNBOUND:                -0.762
REMARK  Name = 
REMARK  4 active torsions:
REMARK  status: ('A' for Active; 'I' for Inactive)
REMARK    1  A    between atoms: C_2  and  C_4
REMARK    2  A    between atoms: C_9  and  C_10
REMARK    3  A    between atoms: C_10  and  N_11
REMARK    4  A    between atoms: C_16  and  C_17
REMARK                            x       y       z     vdW  Elec       q    Type
REMARK                         _______ _______ _______ _____ _____    ______ ____
ROOT
ATOM      1  N   UNL     1      46.611   4.217  15.618  0.00  0.00    +0.000 N 
ATOM      2  C   UNL     1      47.502   4.380  16.702  0.00  0.00    +0.000 A 
ATOM      3  C   UNL     1      47.050   5.051  17.830  0.00  0.00    +0.000 A 
ATOM      4  C   UNL     1      47.884   5.156  18.936  0.00  0.00    +0.000 A 
ATOM      5  C   UNL     1      49.130   4.537  18.905  0.00  0.00    +0.000 A 
ATOM      6  C   UNL     1      49.509   3.831  17.766  0.00  0.00    +0.000 A 
ATOM      7  N   UNL     1      48.698   3.765  16.674  0.00  0.00    +0.000 NA
ATOM      8  H   UNL     1      46.076   3.384  15.853  0.00  0.00    +0.000 HD
ENDROOT
BRANCH   6   9
ATOM      9  C   UNL     1      50.782   3.074  17.686  0.00  0.00    +0.000 A 
ATOM     10  C   UNL     1      50.820   1.726  17.321  0.00  0.00    +0.000 A 
ATOM     11  C   UNL     1      52.039   1.051  17.302  0.00  0.00    +0.000 A 
ATOM     12  C   UNL     1      53.197   1.733  17.643  0.00  0.00    +0.000 A 
ATOM     13  C   UNL     1      53.087   3.068  17.987  0.00  0.00    +0.000 A 
ATOM     14  N   UNL     1      51.919   3.748  18.018  0.00  0.00    +0.000 NA
ENDBRANCH   6   9
BRANCH   1  15
ATOM     15  C   UNL     1      47.321   4.022  14.345  0.00  0.00    +0.000 C 
BRANCH  15  21
ATOM     16  C   UNL     1      45.767   4.930  12.549  0.00  0.00    +0.000 A 
ATOM     17  N   UNL     1      45.370   5.830  11.594  0.00  0.00    +0.000 NA
ATOM     18  C   UNL     1      46.162   6.902  11.394  0.00  0.00    +0.000 A 
ATOM     19  C   UNL     1      47.334   7.127  12.090  0.00  0.00    +0.000 A 
ATOM     20  C   UNL     1      47.724   6.195  13.047  0.00  0.00    +0.000 A 
ATOM     21  C   UNL     1      46.941   5.059  13.306  0.00  0.00    +0.000 A 
BRANCH  16  23
ATOM     22  N   UNL     1      45.049   2.704  11.874  0.00  0.00    +0.000 N 
ATOM     23  C   UNL     1      44.817   3.764  12.709  0.00  0.00    +0.000 C 
ATOM     24  O   UNL     1      43.894   3.731  13.514  0.00  0.00    +0.000 OA
ATOM     25  H   UNL     1      44.483   1.874  11.954  0.00  0.00    +0.000 HD
ATOM     26  H   UNL     1      45.830   2.744  11.227  0.00  0.00    +0.000 HD
ENDBRANCH  16  23
ENDBRANCH  15  21
ENDBRANCH   1  15
TORSDOF 4
ENDMDL
MODEL 9
REMARK VINA RESULT:    -6.577      3.948      6.919
REMARK INTER + INTRA:          -8.877
REMARK INTER:                  -8.198
REMARK INTRA:                  -0.678
REMARK UNBOUND:                -0.762
REMARK  Name = 
REMARK  4 active torsions:
REMARK  status: ('A' for Active; 'I' for Inactive)
REMARK    1  A    between atoms: C_2  and  C_4
REMARK    2  A    between atoms: C_9  and  C_10
REMARK    3  A    between atoms: C_10  and  N_11
REMARK    4  A    between atoms: C_16  and  C_17
REMARK                            x       y       z     vdW  Elec       q    Type
REMARK                         _______ _______ _______ _____ _____    ______ ____
ROOT
ATOM      1  N   UNL     1      46.912   7.167  12.078  0.00  0.00    +0.000 N 
ATOM      2  C   UNL     1      46.613   8.547  12.047  0.00  0.00    +0.000 A 
ATOM      3  C   UNL     1      47.656   9.449  12.207  0.00  0.00    +0.000 A 
ATOM      4  C   UNL     1      47.395  10.810  12.104  0.00  0.00    +0.000 A 
ATOM      5  C   UNL     1      46.108  11.231  11.788  0.00  0.00    +0.000 A 
ATOM      6  C   UNL     1      45.113  10.278  11.585  0.00  0.00    +0.000 A 
ATOM      7  N   UNL     1      45.370   8.948  11.724  0.00  0.00    +0.000 NA
ATOM      8  H   UNL     1      47.197   6.948  11.127  0.00  0.00    +0.000 HD
ENDROOT
BRANCH   6   9
ATOM      9  C   UNL     1      43.738  10.640  11.163  0.00  0.00    +0.000 A 
ATOM     10  C   UNL     1      43.333  10.581   9.827  0.00  0.00    +0.000 A 
ATOM     11  C   UNL     1      42.042  10.973   9.479  0.00  0.00    +0.000 A 
ATOM     12  C   UNL     1      41.177  11.412  10.469  0.00  0.00    +0.000 A 
ATOM     13  C   UNL     1      41.641  11.438  11.773  0.00  0.00    +0.000 A 
ATOM     14  N   UNL     1      42.888  11.068  12.139  0.00  0.00    +0.000 NA
ENDBRANCH   6   9
BRANCH   1  15
ATOM     15  C   UNL     1      45.744   6.358  12.456  0.00  0.00    +0.000 C 
BRANCH  15  21
ATOM     16  C   UNL     1      44.141   4.645  11.477  0.00  0.00    +0.000 A 
ATOM     17  N   UNL     1      43.646   3.836  10.487  0.00  0.00    +0.000 NA
ATOM     18  C   UNL     1      44.265   3.881   9.291  0.00  0.00    +0.000 A 
ATOM     19  C   UNL     1      45.356   4.685   9.024  0.00  0.00    +0.000 A 
ATOM     20  C   UNL     1      45.850   5.489  10.047  0.00  0.00    +0.000 A 
ATOM     21  C   UNL     1      45.247   5.492  11.315  0.00  0.00    +0.000 A 
BRANCH  16  23
ATOM     22  N   UNL     1      42.561   5.590  13.069  0.00  0.00    +0.000 N 
ATOM     23  C   UNL     1      43.383   4.533  12.780  0.00  0.00    +0.000 C 
ATOM     24  O   UNL     1      43.468   3.585  13.550  0.00  0.00    +0.000 OA
ATOM     25  H   UNL     1      41.991   5.565  13.900  0.00  0.00    +0.000 HD
ATOM     26  H   UNL     1      42.490   6.358  12.409  0.00  0.00    +0.000 HD
ENDBRANCH  16  23
ENDBRANCH  15  21
ENDBRANCH   1  15
TORSDOF 4
ENDMDL
