MODEL 1
REMARK VINA RESULT:    -7.756      0.000      0.000
REMARK INTER + INTRA:         -11.126
REMARK INTER:                 -10.023
REMARK INTRA:                  -1.103
REMARK UNBOUND:                -1.103
REMARK  Name = 
REMARK  8 active torsions:
REMARK  status: ('A' for Active; 'I' for Inactive)
REMARK    1  A    between atoms: C_1  and  C_2
REMARK    2  A    between atoms: N_4  and  C_5
REMARK    3  A    between atoms: C_9  and  C_10
REMARK    4  A    between atoms: C_10  and  C_11
REMARK    5  A    between atoms: C_10  and  C_12
REMARK    6  A    between atoms: C_12  and  N_13
REMARK    7  A    between atoms: C_17  and  C_18
REMARK    8  A    between atoms: C_25  and  C_26
REMARK                            x       y       z     vdW  Elec       q    Type
REMARK                         _______ _______ _______ _____ _____    ______ ____
ROOT
ATOM      1  C   UNL     1      43.360   4.538  12.364  0.00  0.00    +0.000 C 
ATOM      2  C   UNL     1      42.606   5.874  12.362  0.00  0.00    +0.000 C 
ENDROOT
BRANCH   1   7
ATOM      3  C   UNL     1      46.657   6.370  13.156  0.00  0.00    +0.000 A 
ATOM      4  C   UNL     1      47.436   5.298  13.609  0.00  0.00    +0.000 A 
ATOM      5  C   UNL     1      46.945   3.990  13.638  0.00  0.00    +0.000 A 
ATOM      6  C   UNL     1      45.644   3.718  13.225  0.00  0.00    +0.000 A 
ATOM      7  C   UNL     1      44.808   4.757  12.801  0.00  0.00    +0.000 A 
ATOM      8  C   UNL     1      45.343   6.060  12.761  0.00  0.00    +0.000 A 
BRANCH   3  12
ATOM      9  C   UNL     1      49.946   7.864  14.685  0.00  0.00    +0.000 C 
ATOM     10  C   UNL     1      48.954   8.948  14.251  0.00  0.00    +0.000 C 
ATOM     11  C   UNL     1      47.486   8.432  14.306  0.00  0.00    +0.000 C 
ATOM     12  N   UNL     1      47.154   7.658  13.100  0.00  0.00    +0.000 N 
ATOM     13  C   UNL     1      47.435   8.351  11.838  0.00  0.00    +0.000 C 
ATOM     14  C   UNL     1      48.911   8.818  11.775  0.00  0.00    +0.000 C 
ATOM     15  C   UNL     1      49.869   7.672  11.443  0.00  0.00    +0.000 C 
ATOM     16  N   UNL     1      49.345   9.589  12.968  0.00  0.00    +0.000 NA
ATOM     17  H   UNL     1      48.846  10.480  12.931  0.00  0.00    +0.000 HD
ENDBRANCH   3  12
ENDBRANCH   1   7
BRANCH   1  18
ATOM     18  C   UNL     1      43.255   3.793  11.013  0.00  0.00    +0.000 C 
BRANCH  18  19
ATOM     19  N   UNL     1      43.911   4.519   9.914  0.00  0.00    +0.000 N 
ATOM     20  C   UNL     1      44.776   3.692   9.159  0.00  0.00    +0.000 A 
ATOM     21  C   UNL     1      45.500   4.269   8.118  0.00  0.00    +0.000 A 
ATOM     22  C   UNL     1      46.364   3.481   7.363  0.00  0.00    +0.000 A 
ATOM     23  C   UNL     1      46.469   2.139   7.683  0.00  0.00    +0.000 A 
ATOM     24  N   UNL     1      45.756   1.584   8.687  0.00  0.00    +0.000 NA
ATOM     25  N   UNL     1      44.900   2.371   9.415  0.00  0.00    +0.000 NA
ATOM     26  H   UNL     1      44.462   5.305  10.250  0.00  0.00    +0.000 HD
BRANCH  23  27
ATOM     27  C   UNL     1      47.387   1.235   6.941  0.00  0.00    +0.000 C 
ATOM     28  N   UNL     1      48.458   1.830   6.329  0.00  0.00    +0.000 N 
ATOM     29  O   UNL     1      47.198   0.025   6.871  0.00  0.00    +0.000 OA
ATOM     30  H   UNL     1      48.605   2.831   6.395  0.00  0.00    +0.000 HD
ATOM     31  H   UNL     1      49.107   1.260   5.805  0.00  0.00    +0.000 HD
ENDBRANCH  23  27
ENDBRANCH  18  19
ENDBRANCH   1  18
TORSDOF 5
ENDMDL
MODEL 2
REMARK VINA RESULT:    -7.446      1.612      2.571
REMARK INTER + INTRA:         -10.725
REMARK INTER:                  -9.826
REMARK INTRA:                  -0.900
REMARK UNBOUND:                -1.103
REMARK  Name = 
REMARK  8 active torsions:
REMARK  status: ('A' for Active; 'I' for Inactive)
REMARK    1  A    between atoms: C_1  and  C_2
REMARK    2  A    between atoms: N_4  and  C_5
REMARK    3  A    between atoms: C_9  and  C_10
REMARK    4  A    between atoms: C_10  and  C_11
REMARK    5  A    between atoms: C_10  and  C_12
REMARK    6  A    between atoms: C_12  and  N_13
REMARK    7  A    between atoms: C_17  and  C_18
REMARK    8  A    between atoms: C_25  and  C_26
REMARK                            x       y       z     vdW  Elec       q    Type
REMARK                         _______ _______ _______ _____ _____    ______ ____
ROOT
ATOM      1  C   UNL     1      44.013   4.849  12.176  0.00  0.00    +0.000 C 
ATOM      2  C   UNL     1      42.831   5.051  13.132  0.00  0.00    +0.000 C 
ENDROOT
BRANCH   1   7
ATOM      3  C   UNL     1      47.072   7.129  12.723  0.00  0.00    +0.000 A 
ATOM      4  C   UNL     1      46.604   8.317  12.147  0.00  0.00    +0.000 A 
ATOM      5  C   UNL     1      45.317   8.421  11.614  0.00  0.00    +0.000 A 
ATOM      6  C   UNL     1      44.459   7.326  11.630  0.00  0.00    +0.000 A 
ATOM      7  C   UNL     1      44.888   6.102  12.155  0.00  0.00    +0.000 A 
ATOM      8  C   UNL     1      46.183   6.038  12.706  0.00  0.00    +0.000 A 
BRANCH   3  12
ATOM      9  C   UNL     1      49.910   9.824  12.973  0.00  0.00    +0.000 C 
ATOM     10  C   UNL     1      50.421   8.406  13.248  0.00  0.00    +0.000 C 
ATOM     11  C   UNL     1      49.557   7.338  12.514  0.00  0.00    +0.000 C 
ATOM     12  N   UNL     1      48.335   7.036  13.275  0.00  0.00    +0.000 N 
ATOM     13  C   UNL     1      48.567   6.672  14.677  0.00  0.00    +0.000 C 
ATOM     14  C   UNL     1      49.388   7.764  15.408  0.00  0.00    +0.000 C 
ATOM     15  C   UNL     1      48.533   8.974  15.790  0.00  0.00    +0.000 C 
ATOM     16  N   UNL     1      50.632   8.153  14.697  0.00  0.00    +0.000 NA
ATOM     17  H   UNL     1      51.260   7.350  14.758  0.00  0.00    +0.000 HD
ENDBRANCH   3  12
ENDBRANCH   1   7
BRANCH   1  18
ATOM     18  C   UNL     1      43.567   4.414  10.761  0.00  0.00    +0.000 C 
BRANCH  18  19
ATOM     19  N   UNL     1      43.953   3.029  10.448  0.00  0.00    +0.000 N 
ATOM     20  C   UNL     1      44.857   2.951   9.362  0.00  0.00    +0.000 A 
ATOM     21  C   UNL     1      45.264   1.691   8.930  0.00  0.00    +0.000 A 
ATOM     22  C   UNL     1      46.147   1.583   7.859  0.00  0.00    +0.000 A 
ATOM     23  C   UNL     1      46.589   2.748   7.260  0.00  0.00    +0.000 A 
ATOM     24  N   UNL     1      46.199   3.968   7.691  0.00  0.00    +0.000 NA
ATOM     25  N   UNL     1      45.337   4.058   8.755  0.00  0.00    +0.000 NA
ATOM     26  H   UNL     1      43.150   2.451  10.214  0.00  0.00    +0.000 HD
BRANCH  23  27
ATOM     27  C   UNL     1      47.513   2.720   6.096  0.00  0.00    +0.000 C 
ATOM     28  N   UNL     1      48.849   2.627   6.386  0.00  0.00    +0.000 N 
ATOM     29  O   UNL     1      47.110   2.783   4.939  0.00  0.00    +0.000 OA
ATOM     30  H   UNL     1      49.170   2.575   7.347  0.00  0.00    +0.000 HD
ATOM     31  H   UNL     1      49.518   2.613   5.630  0.00  0.00    +0.000 HD
ENDBRANCH  23  27
ENDBRANCH  18  19
ENDBRANCH   1  18
TORSDOF 5
ENDMDL
MODEL 3
REMARK VINA RESULT:    -7.380      3.403      7.623
REMARK INTER + INTRA:         -10.639
REMARK INTER:                  -9.213
REMARK INTRA:                  -1.426
REMARK UNBOUND:                -1.103
REMARK  Name = 
REMARK  8 active torsions:
REMARK  status: ('A' for Active; 'I' for Inactive)
REMARK    1  A    between atoms: C_1  and  C_2
REMARK    2  A    between atoms: N_4  and  C_5
REMARK    3  A    between atoms: C_9  and  C_10
REMARK    4  A    between atoms: C_10  and  C_11
REMARK    5  A    between atoms: C_10  and  C_12
REMARK    6  A    between atoms: C_12  and  N_13
REMARK    7  A    between atoms: C_17  and  C_18
REMARK    8  A    between atoms: C_25  and  C_26
REMARK                            x       y       z     vdW  Elec       q    Type
REMARK                         _______ _______ _______ _____ _____    ______ ____
ROOT
ATOM      1  C   UNL     1      48.994   8.367  11.711  0.00  0.00    +0.000 C 
ATOM      2  C   UNL     1      49.527   9.735  12.156  0.00  0.00    +0.000 C 
ENDROOT
BRANCH   1   7
ATOM      3  C   UNL     1      45.377   7.053  11.494  0.00  0.00    +0.000 A 
ATOM      4  C   UNL     1      44.690   8.111  12.104  0.00  0.00    +0.000 A 
ATOM      5  C   UNL     1      45.351   9.256  12.558  0.00  0.00    +0.000 A 
ATOM      6  C   UNL     1      46.732   9.369  12.425  0.00  0.00    +0.000 A 
ATOM      7  C   UNL     1      47.473   8.326  11.859  0.00  0.00    +0.000 A 
ATOM      8  C   UNL     1      46.773   7.197  11.391  0.00  0.00    +0.000 A 
BRANCH   3  12
ATOM      9  C   UNL     1      45.730   3.294  12.552  0.00  0.00    +0.000 C 
ATOM     10  C   UNL     1      44.991   3.463  11.221  0.00  0.00    +0.000 C 
ATOM     11  C   UNL     1      45.430   4.764  10.487  0.00  0.00    +0.000 C 
ATOM     12  N   UNL     1      44.719   5.935  11.021  0.00  0.00    +0.000 N 
ATOM     13  C   UNL     1      43.258   5.798  11.048  0.00  0.00    +0.000 C 
ATOM     14  C   UNL     1      42.832   4.524  11.821  0.00  0.00    +0.000 C 
ATOM     15  C   UNL     1      42.914   4.712  13.337  0.00  0.00    +0.000 C 
ATOM     16  N   UNL     1      43.522   3.291  11.366  0.00  0.00    +0.000 NA
ATOM     17  H   UNL     1      43.164   3.091  10.430  0.00  0.00    +0.000 HD
ENDBRANCH   3  12
ENDBRANCH   1   7
BRANCH   1  18
ATOM     18  C   UNL     1      49.692   7.191  12.434  0.00  0.00    +0.000 C 
BRANCH  18  19
ATOM     19  N   UNL     1      50.050   7.516  13.824  0.00  0.00    +0.000 N 
ATOM     20  C   UNL     1      49.332   6.740  14.764  0.00  0.00    +0.000 A 
ATOM     21  C   UNL     1      49.541   6.983  16.119  0.00  0.00    +0.000 A 
ATOM     22  C   UNL     1      48.842   6.240  17.067  0.00  0.00    +0.000 A 
ATOM     23  C   UNL     1      47.957   5.277  16.615  0.00  0.00    +0.000 A 
ATOM     24  N   UNL     1      47.768   5.039  15.299  0.00  0.00    +0.000 NA
ATOM     25  N   UNL     1      48.472   5.771  14.378  0.00  0.00    +0.000 NA
ATOM     26  H   UNL     1      49.878   8.493  14.045  0.00  0.00    +0.000 HD
BRANCH  23  27
ATOM     27  C   UNL     1      47.155   4.457  17.561  0.00  0.00    +0.000 C 
ATOM     28  N   UNL     1      47.013   4.959  18.828  0.00  0.00    +0.000 N 
ATOM     29  O   UNL     1      46.652   3.387  17.235  0.00  0.00    +0.000 OA
ATOM     30  H   UNL     1      47.433   5.846  19.085  0.00  0.00    +0.000 HD
ATOM     31  H   UNL     1      46.484   4.436  19.511  0.00  0.00    +0.000 HD
ENDBRANCH  23  27
ENDBRANCH  18  19
ENDBRANCH   1  18
TORSDOF 5
ENDMDL
MODEL 4
REMARK VINA RESULT:    -7.238      4.368      7.978
REMARK INTER + INTRA:         -10.457
REMARK INTER:                  -9.580
REMARK INTRA:                  -0.877
REMARK UNBOUND:                -1.103
REMARK  Name = 
REMARK  8 active torsions:
REMARK  status: ('A' for Active; 'I' for Inactive)
REMARK    1  A    between atoms: C_1  and  C_2
REMARK    2  A    between atoms: N_4  and  C_5
REMARK    3  A    between atoms: C_9  and  C_10
REMARK    4  A    between atoms: C_10  and  C_11
REMARK    5  A    between atoms: C_10  and  C_12
REMARK    6  A    between atoms: C_12  and  N_13
REMARK    7  A    between atoms: C_17  and  C_18
REMARK    8  A    between atoms: C_25  and  C_26
REMARK                            x       y       z     vdW  Elec       q    Type
REMARK                         _______ _______ _______ _____ _____    ______ ____
ROOT
ATOM      1  C   UNL     1      48.683   6.942  14.266  0.00  0.00    +0.000 C 
ATOM      2  C   UNL     1      49.908   7.783  13.882  0.00  0.00    +0.000 C 
ENDROOT
BRANCH   1   7
ATOM      3  C   UNL     1      45.243   6.899  12.528  0.00  0.00    +0.000 A 
ATOM      4  C   UNL     1      45.120   8.251  12.184  0.00  0.00    +0.000 A 
ATOM      5  C   UNL     1      46.128   9.178  12.463  0.00  0.00    +0.000 A 
ATOM      6  C   UNL     1      47.290   8.777  13.115  0.00  0.00    +0.000 A 
ATOM      7  C   UNL     1      47.449   7.447  13.518  0.00  0.00    +0.000 A 
ATOM      8  C   UNL     1      46.425   6.534  13.199  0.00  0.00    +0.000 A 
BRANCH   3  12
ATOM      9  C   UNL     1      44.954   4.440   9.487  0.00  0.00    +0.000 C 
ATOM     10  C   UNL     1      43.631   4.596  10.245  0.00  0.00    +0.000 C 
ATOM     11  C   UNL     1      43.536   5.984  10.944  0.00  0.00    +0.000 C 
ATOM     12  N   UNL     1      44.259   5.979  12.225  0.00  0.00    +0.000 N 
ATOM     13  C   UNL     1      43.878   4.890  13.132  0.00  0.00    +0.000 C 
ATOM     14  C   UNL     1      44.021   3.511  12.440  0.00  0.00    +0.000 C 
ATOM     15  C   UNL     1      45.477   3.044  12.374  0.00  0.00    +0.000 C 
ATOM     16  N   UNL     1      43.342   3.432  11.121  0.00  0.00    +0.000 NA
ATOM     17  H   UNL     1      42.339   3.461  11.314  0.00  0.00    +0.000 HD
ENDBRANCH   3  12
ENDBRANCH   1   7
BRANCH   1  18
ATOM     18  C   UNL     1      48.463   6.874  15.795  0.00  0.00    +0.000 C 
BRANCH  18  19
ATOM     19  N   UNL     1      47.894   5.587  16.226  0.00  0.00    +0.000 N 
ATOM     20  C   UNL     1      48.885   4.678  16.667  0.00  0.00    +0.000 A 
ATOM     21  C   UNL     1      48.484   3.402  17.057  0.00  0.00    +0.000 A 
ATOM     22  C   UNL     1      49.438   2.483  17.488  0.00  0.00    +0.000 A 
ATOM     23  C   UNL     1      50.762   2.882  17.510  0.00  0.00    +0.000 A 
ATOM     24  N   UNL     1      51.142   4.125  17.142  0.00  0.00    +0.000 NA
ATOM     25  N   UNL     1      50.190   5.023  16.731  0.00  0.00    +0.000 NA
ATOM     26  H   UNL     1      47.374   5.130  15.482  0.00  0.00    +0.000 HD
BRANCH  23  27
ATOM     27  C   UNL     1      51.844   1.955  17.934  0.00  0.00    +0.000 C 
ATOM     28  N   UNL     1      51.530   0.622  17.940  0.00  0.00    +0.000 N 
ATOM     29  O   UNL     1      52.954   2.355  18.269  0.00  0.00    +0.000 OA
ATOM     30  H   UNL     1      50.609   0.303  17.660  0.00  0.00    +0.000 HD
ATOM     31  H   UNL     1      52.228  -0.049  18.229  0.00  0.00    +0.000 HD
ENDBRANCH  23  27
ENDBRANCH  18  19
ENDBRANCH   1  18
TORSDOF 5
ENDMDL
MODEL 5
REMARK VINA RESULT:    -6.921      3.574      6.176
REMARK INTER + INTRA:         -10.046
REMARK INTER:                  -8.940
REMARK INTRA:                  -1.106
REMARK UNBOUND:                -1.103
REMARK  Name = 
REMARK  8 active torsions:
REMARK  status: ('A' for Active; 'I' for Inactive)
REMARK    1  A    between atoms: C_1  and  C_2
REMARK    2  A    between atoms: N_4  and  C_5
REMARK    3  A    between atoms: C_9  and  C_10
REMARK    4  A    between atoms: C_10  and  C_11
REMARK    5  A    between atoms: C_10  and  C_12
REMARK    6  A    between atoms: C_12  and  N_13
REMARK    7  A    between atoms: C_17  and  C_18
REMARK    8  A    between atoms: C_25  and  C_26
REMARK                            x       y       z     vdW  Elec       q    Type
REMARK                         _______ _______ _______ _____ _____    ______ ____
ROOT
ATOM      1  C   UNL     1      48.892   8.500  13.283  0.00  0.00    +0.000 C 
ATOM      2  C   UNL     1      49.536   8.103  11.948  0.00  0.00    +0.000 C 
ENDROOT
BRANCH   1   7
ATOM      3  C   UNL     1      49.407   6.239  16.362  0.00  0.00    +0.000 A 
ATOM      4  C   UNL     1      50.784   6.399  16.562  0.00  0.00    +0.000 A 
ATOM      5  C   UNL     1      51.554   7.241  15.755  0.00  0.00    +0.000 A 
ATOM      6  C   UNL     1      50.964   7.942  14.707  0.00  0.00    +0.000 A 
ATOM      7  C   UNL     1      49.600   7.789  14.436  0.00  0.00    +0.000 A 
ATOM      8  C   UNL     1      48.849   6.951  15.284  0.00  0.00    +0.000 A 
BRANCH   3  12
ATOM      9  C   UNL     1      49.996   2.526  17.479  0.00  0.00    +0.000 C 
ATOM     10  C   UNL     1      48.563   2.999  17.743  0.00  0.00    +0.000 C 
ATOM     11  C   UNL     1      48.139   4.116  16.745  0.00  0.00    +0.000 C 
ATOM     12  N   UNL     1      48.643   5.429  17.178  0.00  0.00    +0.000 N 
ATOM     13  C   UNL     1      48.303   5.783  18.561  0.00  0.00    +0.000 C 
ATOM     14  C   UNL     1      48.771   4.685  19.549  0.00  0.00    +0.000 C 
ATOM     15  C   UNL     1      50.275   4.756  19.824  0.00  0.00    +0.000 C 
ATOM     16  N   UNL     1      48.329   3.317  19.176  0.00  0.00    +0.000 NA
ATOM     17  H   UNL     1      47.317   3.296  19.311  0.00  0.00    +0.000 HD
ENDBRANCH   3  12
ENDBRANCH   1   7
BRANCH   1  18
ATOM     18  C   UNL     1      47.362   8.274  13.297  0.00  0.00    +0.000 C 
BRANCH  18  19
ATOM     19  N   UNL     1      46.828   7.941  11.967  0.00  0.00    +0.000 N 
ATOM     20  C   UNL     1      46.121   6.715  11.959  0.00  0.00    +0.000 A 
ATOM     21  C   UNL     1      45.606   6.257  10.749  0.00  0.00    +0.000 A 
ATOM     22  C   UNL     1      44.912   5.050  10.709  0.00  0.00    +0.000 A 
ATOM     23  C   UNL     1      44.763   4.347  11.891  0.00  0.00    +0.000 A 
ATOM     24  N   UNL     1      45.256   4.802  13.063  0.00  0.00    +0.000 NA
ATOM     25  N   UNL     1      45.926   5.998  13.088  0.00  0.00    +0.000 NA
ATOM     26  H   UNL     1      47.561   7.871  11.267  0.00  0.00    +0.000 HD
BRANCH  23  27
ATOM     27  C   UNL     1      44.057   3.039  11.930  0.00  0.00    +0.000 C 
ATOM     28  N   UNL     1      44.001   2.345  10.750  0.00  0.00    +0.000 N 
ATOM     29  O   UNL     1      43.544   2.603  12.955  0.00  0.00    +0.000 OA
ATOM     30  H   UNL     1      44.431   2.716   9.909  0.00  0.00    +0.000 HD
ATOM     31  H   UNL     1      43.525   1.455  10.722  0.00  0.00    +0.000 HD
ENDBRANCH  23  27
ENDBRANCH  18  19
ENDBRANCH   1  18
TORSDOF 5
ENDMDL
MODEL 6
REMARK VINA RESULT:    -6.918      3.819      6.271
REMARK INTER + INTRA:         -10.043
REMARK INTER:                  -9.143
REMARK INTRA:                  -0.899
REMARK UNBOUND:                -1.103
REMARK  Name = 
REMARK  8 active torsions:
REMARK  status: ('A' for Active; 'I' for Inactive)
REMARK    1  A    between atoms: C_1  and  C_2
REMARK    2  A    between atoms: N_4  and  C_5
REMARK    3  A    between atoms: C_9  and  C_10
REMARK    4  A    between atoms: C_10  and  C_11
REMARK    5  A    between atoms: C_10  and  C_12
REMARK    6  A    between atoms: C_12  and  N_13
REMARK    7  A    between atoms: C_17  and  C_18
REMARK    8  A    between atoms: C_25  and  C_26
REMARK                            x       y       z     vdW  Elec       q    Type
REMARK                         _______ _______ _______ _____ _____    ______ ____
ROOT
ATOM      1  C   UNL     1      48.906   7.851  14.365  0.00  0.00    +0.000 C 
ATOM      2  C   UNL     1      49.520   8.508  13.123  0.00  0.00    +0.000 C 
ENDROOT
BRANCH   1   7
ATOM      3  C   UNL     1      50.615   5.721  17.085  0.00  0.00    +0.000 A 
ATOM      4  C   UNL     1      51.946   6.126  16.920  0.00  0.00    +0.000 A 
ATOM      5  C   UNL     1      52.311   7.093  15.979  0.00  0.00    +0.000 A 
ATOM      6  C   UNL     1      51.349   7.676  15.160  0.00  0.00    +0.000 A 
ATOM      7  C   UNL     1      50.010   7.279  15.253  0.00  0.00    +0.000 A 
ATOM      8  C   UNL     1      49.673   6.320  16.229  0.00  0.00    +0.000 A 
BRANCH   3  12
ATOM      9  C   UNL     1      47.741   5.836  19.750  0.00  0.00    +0.000 C 
ATOM     10  C   UNL     1      48.770   4.738  20.042  0.00  0.00    +0.000 C 
ATOM     11  C   UNL     1      50.170   5.104  19.468  0.00  0.00    +0.000 C 
ATOM     12  N   UNL     1      50.252   4.786  18.034  0.00  0.00    +0.000 N 
ATOM     13  C   UNL     1      49.872   3.410  17.696  0.00  0.00    +0.000 C 
ATOM     14  C   UNL     1      48.458   3.073  18.232  0.00  0.00    +0.000 C 
ATOM     15  C   UNL     1      47.350   3.670  17.360  0.00  0.00    +0.000 C 
ATOM     16  N   UNL     1      48.274   3.388  19.671  0.00  0.00    +0.000 NA
ATOM     17  H   UNL     1      48.852   2.721  20.186  0.00  0.00    +0.000 HD
ENDBRANCH   3  12
ENDBRANCH   1   7
BRANCH   1  18
ATOM     18  C   UNL     1      47.827   6.800  14.011  0.00  0.00    +0.000 C 
BRANCH  18  19
ATOM     19  N   UNL     1      47.095   7.136  12.779  0.00  0.00    +0.000 N 
ATOM     20  C   UNL     1      46.296   6.064  12.316  0.00  0.00    +0.000 A 
ATOM     21  C   UNL     1      45.588   6.232  11.128  0.00  0.00    +0.000 A 
ATOM     22  C   UNL     1      44.800   5.192  10.643  0.00  0.00    +0.000 A 
ATOM     23  C   UNL     1      44.752   4.018  11.373  0.00  0.00    +0.000 A 
ATOM     24  N   UNL     1      45.431   3.866  12.530  0.00  0.00    +0.000 NA
ATOM     25  N   UNL     1      46.195   4.903  13.001  0.00  0.00    +0.000 NA
ATOM     26  H   UNL     1      47.720   7.395  12.021  0.00  0.00    +0.000 HD
BRANCH  23  27
ATOM     27  C   UNL     1      43.952   2.852  10.913  0.00  0.00    +0.000 C 
ATOM     28  N   UNL     1      44.435   2.180   9.821  0.00  0.00    +0.000 N 
ATOM     29  O   UNL     1      42.914   2.510  11.469  0.00  0.00    +0.000 OA
ATOM     30  H   UNL     1      45.296   2.472   9.370  0.00  0.00    +0.000 HD
ATOM     31  H   UNL     1      43.924   1.385   9.464  0.00  0.00    +0.000 HD
ENDBRANCH  23  27
ENDBRANCH  18  19
ENDBRANCH   1  18
TORSDOF 5
ENDMDL
MODEL 7
REMARK VINA RESULT:    -6.612      5.312      7.257
REMARK INTER + INTRA:          -9.647
REMARK INTER:                  -8.838
REMARK INTRA:                  -0.809
REMARK UNBOUND:                -1.103
REMARK  Name = 
REMARK  8 active torsions:
REMARK  status: ('A' for Active; 'I' for Inactive)
REMARK    1  A    between atoms: C_1  and  C_2
REMARK    2  A    between atoms: N_4  and  C_5
REMARK    3  A    between atoms: C_9  and  C_10
REMARK    4  A    between atoms: C_10  and  C_11
REMARK    5  A    between atoms: C_10  and  C_12
REMARK    6  A    between atoms: C_12  and  N_13
REMARK    7  A    between atoms: C_17  and  C_18
REMARK    8  A    between atoms: C_25  and  C_26
REMARK                            x       y       z     vdW  Elec       q    Type
REMARK                         _______ _______ _______ _____ _____    ______ ____
ROOT
ATOM      1  C   UNL     1      48.270   4.699  17.302  0.00  0.00    +0.000 C 
ATOM      2  C   UNL     1      48.744   6.158  17.294  0.00  0.00    +0.000 C 
ENDROOT
BRANCH   1   7
ATOM      3  C   UNL     1      51.823   3.432  18.095  0.00  0.00    +0.000 A 
ATOM      4  C   UNL     1      51.740   2.126  17.595  0.00  0.00    +0.000 A 
ATOM      5  C   UNL     1      50.582   1.645  16.978  0.00  0.00    +0.000 A 
ATOM      6  C   UNL     1      49.461   2.460  16.854  0.00  0.00    +0.000 A 
ATOM      7  C   UNL     1      49.474   3.760  17.372  0.00  0.00    +0.000 A 
ATOM      8  C   UNL     1      50.665   4.222  17.966  0.00  0.00    +0.000 A 
BRANCH   3  12
ATOM      9  C   UNL     1      52.564   6.953  19.657  0.00  0.00    +0.000 C 
ATOM     10  C   UNL     1      53.840   6.147  19.391  0.00  0.00    +0.000 C 
ATOM     11  C   UNL     1      53.645   5.143  18.217  0.00  0.00    +0.000 C 
ATOM     12  N   UNL     1      52.977   3.916  18.679  0.00  0.00    +0.000 N 
ATOM     13  C   UNL     1      53.614   3.277  19.836  0.00  0.00    +0.000 C 
ATOM     14  C   UNL     1      53.760   4.273  21.013  0.00  0.00    +0.000 C 
ATOM     15  C   UNL     1      52.443   4.482  21.763  0.00  0.00    +0.000 C 
ATOM     16  N   UNL     1      54.403   5.557  20.633  0.00  0.00    +0.000 NA
ATOM     17  H   UNL     1      55.380   5.339  20.428  0.00  0.00    +0.000 HD
ENDBRANCH   3  12
ENDBRANCH   1   7
BRANCH   1  18
ATOM     18  C   UNL     1      47.331   4.371  16.117  0.00  0.00    +0.000 C 
BRANCH  18  19
ATOM     19  N   UNL     1      47.346   5.414  15.079  0.00  0.00    +0.000 N 
ATOM     20  C   UNL     1      46.568   5.065  13.950  0.00  0.00    +0.000 A 
ATOM     21  C   UNL     1      46.538   5.945  12.871  0.00  0.00    +0.000 A 
ATOM     22  C   UNL     1      45.788   5.624  11.742  0.00  0.00    +0.000 A 
ATOM     23  C   UNL     1      45.095   4.427  11.741  0.00  0.00    +0.000 A 
ATOM     24  N   UNL     1      45.119   3.584  12.796  0.00  0.00    +0.000 NA
ATOM     25  N   UNL     1      45.854   3.919  13.905  0.00  0.00    +0.000 NA
ATOM     26  H   UNL     1      48.286   5.612  14.749  0.00  0.00    +0.000 HD
BRANCH  23  27
ATOM     27  C   UNL     1      44.289   3.999  10.566  0.00  0.00    +0.000 C 
ATOM     28  N   UNL     1      44.393   4.779   9.445  0.00  0.00    +0.000 N 
ATOM     29  O   UNL     1      43.565   3.010  10.596  0.00  0.00    +0.000 OA
ATOM     30  H   UNL     1      44.996   5.595   9.433  0.00  0.00    +0.000 HD
ATOM     31  H   UNL     1      43.859   4.536   8.623  0.00  0.00    +0.000 HD
ENDBRANCH  23  27
ENDBRANCH  18  19
ENDBRANCH   1  18
TORSDOF 5
ENDMDL
MODEL 8
REMARK VINA RESULT:    -6.558      4.151      7.184
REMARK INTER + INTRA:          -9.577
REMARK INTER:                  -8.422
REMARK INTRA:                  -1.155
REMARK UNBOUND:                -1.103
REMARK  Name = 
REMARK  8 active torsions:
REMARK  status: ('A' for Active; 'I' for Inactive)
REMARK    1  A    between atoms: C_1  and  C_2
REMARK    2  A    between atoms: N_4  and  C_5
REMARK    3  A    between atoms: C_9  and  C_10
REMARK    4  A    between atoms: C_10  and  C_11
REMARK    5  A    between atoms: C_10  and  C_12
REMARK    6  A    between atoms: C_12  and  N_13
REMARK    7  A    between atoms: C_17  and  C_18
REMARK    8  A    between atoms: C_25  and  C_26
REMARK                            x       y       z     vdW  Elec       q    Type
REMARK                         _______ _______ _______ _____ _____    ______ ____
ROOT
ATOM      1  C   UNL     1      49.940   8.107  14.852  0.00  0.00    +0.000 C 
ATOM      2  C   UNL     1      51.380   7.677  15.158  0.00  0.00    +0.000 C 
ENDROOT
BRANCH   1   7
ATOM      3  C   UNL     1      48.101   7.054  18.072  0.00  0.00    +0.000 A 
ATOM      4  C   UNL     1      47.721   8.310  18.564  0.00  0.00    +0.000 A 
ATOM      5  C   UNL     1      48.009   9.490  17.875  0.00  0.00    +0.000 A 
ATOM      6  C   UNL     1      48.704   9.449  16.670  0.00  0.00    +0.000 A 
ATOM      7  C   UNL     1      49.144   8.226  16.152  0.00  0.00    +0.000 A 
ATOM      8  C   UNL     1      48.816   7.053  16.860  0.00  0.00    +0.000 A 
BRANCH   3  12
ATOM      9  C   UNL     1      49.707   3.489  17.777  0.00  0.00    +0.000 C 
ATOM     10  C   UNL     1      48.357   3.468  18.502  0.00  0.00    +0.000 C 
ATOM     11  C   UNL     1      47.444   4.641  18.039  0.00  0.00    +0.000 C 
ATOM     12  N   UNL     1      47.791   5.886  18.740  0.00  0.00    +0.000 N 
ATOM     13  C   UNL     1      47.822   5.771  20.203  0.00  0.00    +0.000 C 
ATOM     14  C   UNL     1      48.770   4.631  20.652  0.00  0.00    +0.000 C 
ATOM     15  C   UNL     1      50.242   5.039  20.582  0.00  0.00    +0.000 C 
ATOM     16  N   UNL     1      48.509   3.336  19.974  0.00  0.00    +0.000 NA
ATOM     17  H   UNL     1      47.609   3.004  20.326  0.00  0.00    +0.000 HD
ENDBRANCH   3  12
ENDBRANCH   1   7
BRANCH   1  18
ATOM     18  C   UNL     1      49.250   7.188  13.817  0.00  0.00    +0.000 C 
BRANCH  18  19
ATOM     19  N   UNL     1      48.123   7.847  13.139  0.00  0.00    +0.000 N 
ATOM     20  C   UNL     1      46.971   7.027  13.083  0.00  0.00    +0.000 A 
ATOM     21  C   UNL     1      45.846   7.513  12.421  0.00  0.00    +0.000 A 
ATOM     22  C   UNL     1      44.700   6.725  12.343  0.00  0.00    +0.000 A 
ATOM     23  C   UNL     1      44.729   5.475  12.934  0.00  0.00    +0.000 A 
ATOM     24  N   UNL     1      45.820   5.015  13.584  0.00  0.00    +0.000 NA
ATOM     25  N   UNL     1      46.937   5.807  13.662  0.00  0.00    +0.000 NA
ATOM     26  H   UNL     1      48.352   8.111  12.185  0.00  0.00    +0.000 HD
BRANCH  23  27
ATOM     27  C   UNL     1      43.556   4.563  12.875  0.00  0.00    +0.000 C 
ATOM     28  N   UNL     1      42.449   5.042  12.226  0.00  0.00    +0.000 N 
ATOM     29  O   UNL     1      43.570   3.447  13.384  0.00  0.00    +0.000 OA
ATOM     30  H   UNL     1      42.450   5.966  11.809  0.00  0.00    +0.000 HD
ATOM     31  H   UNL     1      41.623   4.464  12.167  0.00  0.00    +0.000 HD
ENDBRANCH  23  27
ENDBRANCH  18  19
ENDBRANCH   1  18
TORSDOF 5
ENDMDL
MODEL 9
REMARK VINA RESULT:    -6.369      4.300      6.174
REMARK INTER + INTRA:          -9.333
REMARK INTER:                  -8.550
REMARK INTRA:                  -0.783
REMARK UNBOUND:                -1.103
REMARK  Name = 
REMARK  8 active torsions:
REMARK  status: ('A' for Active; 'I' for Inactive)
REMARK    1  A    between atoms: C_1  and  C_2
REMARK    2  A    between atoms: N_4  and  C_5
REMARK    3  A    between atoms: C_9  and  C_10
REMARK    4  A    between atoms: C_10  and  C_11
REMARK    5  A    between atoms: C_10  and  C_12
REMARK    6  A    between atoms: C_12  and  N_13
REMARK    7  A    between atoms: C_17  and  C_18
REMARK    8  A    between atoms: C_25  and  C_26
REMARK                            x       y       z     vdW  Elec       q    Type
REMARK                         _______ _______ _______ _____ _____    ______ ____
ROOT
ATOM      1  C   UNL     1      48.510   4.505  16.700  0.00  0.00    +0.000 C 
ATOM      2  C   UNL     1      49.039   3.209  17.328  0.00  0.00    +0.000 C 
ENDROOT
BRANCH   1   7
ATOM      3  C   UNL     1      48.365   7.898  18.524  0.00  0.00    +0.000 A 
ATOM      4  C   UNL     1      47.707   7.521  19.702  0.00  0.00    +0.000 A 
ATOM      5  C   UNL     1      47.334   6.196  19.946  0.00  0.00    +0.000 A 
ATOM      6  C   UNL     1      47.598   5.206  19.005  0.00  0.00    +0.000 A 
ATOM      7  C   UNL     1      48.217   5.533  17.793  0.00  0.00    +0.000 A 
ATOM      8  C   UNL     1      48.602   6.873  17.589  0.00  0.00    +0.000 A 
BRANCH   3  12
ATOM      9  C   UNL     1      46.636  11.262  19.560  0.00  0.00    +0.000 C 
ATOM     10  C   UNL     1      47.717  11.461  18.492  0.00  0.00    +0.000 C 
ATOM     11  C   UNL     1      47.898  10.184  17.621  0.00  0.00    +0.000 C 
ATOM     12  N   UNL     1      48.759   9.202  18.297  0.00  0.00    +0.000 N 
ATOM     13  C   UNL     1      50.050   9.735  18.747  0.00  0.00    +0.000 C 
ATOM     14  C   UNL     1      49.855  10.978  19.651  0.00  0.00    +0.000 C 
ATOM     15  C   UNL     1      49.434  10.600  21.073  0.00  0.00    +0.000 C 
ATOM     16  N   UNL     1      48.974  12.016  19.058  0.00  0.00    +0.000 NA
ATOM     17  H   UNL     1      49.489  12.414  18.271  0.00  0.00    +0.000 HD
ENDBRANCH   3  12
ENDBRANCH   1   7
BRANCH   1  18
ATOM     18  C   UNL     1      47.296   4.266  15.772  0.00  0.00    +0.000 C 
BRANCH  18  19
ATOM     19  N   UNL     1      47.119   5.342  14.784  0.00  0.00    +0.000 N 
ATOM     20  C   UNL     1      46.385   4.921  13.651  0.00  0.00    +0.000 A 
ATOM     21  C   UNL     1      46.189   5.832  12.615  0.00  0.00    +0.000 A 
ATOM     22  C   UNL     1      45.476   5.443  11.483  0.00  0.00    +0.000 A 
ATOM     23  C   UNL     1      44.987   4.151  11.435  0.00  0.00    +0.000 A 
ATOM     24  N   UNL     1      45.171   3.276  12.448  0.00  0.00    +0.000 NA
ATOM     25  N   UNL     1      45.865   3.677  13.561  0.00  0.00    +0.000 NA
ATOM     26  H   UNL     1      48.008   5.705  14.450  0.00  0.00    +0.000 HD
BRANCH  23  27
ATOM     27  C   UNL     1      44.236   3.650  10.253  0.00  0.00    +0.000 C 
ATOM     28  N   UNL     1      43.931   4.577   9.292  0.00  0.00    +0.000 N 
ATOM     29  O   UNL     1      43.900   2.475  10.142  0.00  0.00    +0.000 OA
ATOM     30  H   UNL     1      44.216   5.545   9.395  0.00  0.00    +0.000 HD
ATOM     31  H   UNL     1      43.415   4.288   8.474  0.00  0.00    +0.000 HD
ENDBRANCH  23  27
ENDBRANCH  18  19
ENDBRANCH   1  18
TORSDOF 5
ENDMDL
