MODEL 1
REMARK VINA RESULT:    -7.076      0.000      0.000
REMARK INTER + INTRA:         -10.714
REMARK INTER:                 -10.178
REMARK INTRA:                  -0.535
REMARK UNBOUND:                -0.535
REMARK  Name = 
REMARK  9 active torsions:
REMARK  status: ('A' for Active; 'I' for Inactive)
REMARK    1  A    between atoms: C_1  and  C_2
REMARK    2  A    between atoms: C_2  and  O_3
REMARK    3  A    between atoms: C_2  and  C_4
REMARK    4  A    between atoms: C_2  and  C_17
REMARK    5  A    between atoms: C_4  and  S_5
REMARK    6  A    between atoms: S_5  and  C_6
REMARK    7  A    between atoms: C_10  and  N_11
REMARK    8  A    between atoms: N_11  and  C_12
REMARK    9  A    between atoms: C_21  and  C_22
REMARK                            x       y       z     vdW  Elec       q    Type
REMARK                         _______ _______ _______ _____ _____    ______ ____
ROOT
ATOM      1  C   UNL     1      45.630   7.277  11.637  0.00  0.00    +0.000 C 
ATOM      2  C   UNL     1      45.385   6.104  12.605  0.00  0.00    +0.000 C 
ENDROOT
BRANCH   2   3
ATOM      3  C   UNL     1      44.859   4.890  11.825  0.00  0.00    +0.000 A 
ATOM      4  C   UNL     1      43.911   3.994  12.329  0.00  0.00    +0.000 A 
ATOM      5  C   UNL     1      43.492   2.935  11.537  0.00  0.00    +0.000 A 
ATOM      6  N   UNL     1      43.948   2.695  10.291  0.00  0.00    +0.000 NA
ATOM      7  C   UNL     1      44.869   3.556   9.782  0.00  0.00    +0.000 A 
ATOM      8  C   UNL     1      45.325   4.655  10.517  0.00  0.00    +0.000 A 
BRANCH   7   9
ATOM      9  C   UNL     1      45.437   3.327   8.386  0.00  0.00    +0.000 C 
ATOM     10  F   UNL     1      46.348   4.258   7.986  0.00  0.00    +0.000 F 
ATOM     11  F   UNL     1      46.064   2.120   8.270  0.00  0.00    +0.000 F 
ATOM     12  F   UNL     1      44.465   3.324   7.425  0.00  0.00    +0.000 F 
ENDBRANCH   7   9
ENDBRANCH   2   3
BRANCH   2  13
ATOM     13  O   UNL     1      44.308   6.486  13.477  0.00  0.00    +0.000 OA
ATOM     14  H   UNL     1      44.694   6.742  14.331  0.00  0.00    +0.000 HD
ENDBRANCH   2  13
BRANCH   2  15
ATOM     15  C   UNL     1      46.658   5.812  13.459  0.00  0.00    +0.000 C 
BRANCH  15  16
ATOM     16  S   UNL     1      47.874   7.191  13.496  0.00  0.00    +0.000 S 
BRANCH  16  17
ATOM     17  C   UNL     1      48.904   6.765  14.892  0.00  0.00    +0.000 A 
ATOM     18  C   UNL     1      50.187   7.278  15.083  0.00  0.00    +0.000 A 
ATOM     19  C   UNL     1      50.959   6.845  16.164  0.00  0.00    +0.000 A 
ATOM     20  C   UNL     1      50.461   5.886  17.052  0.00  0.00    +0.000 A 
ATOM     21  C   UNL     1      49.187   5.344  16.869  0.00  0.00    +0.000 A 
ATOM     22  C   UNL     1      48.414   5.809  15.794  0.00  0.00    +0.000 A 
BRANCH  21  23
ATOM     23  N   UNL     1      48.620   4.415  17.770  0.00  0.00    +0.000 N 
ATOM     24  H   UNL     1      47.692   4.708  18.072  0.00  0.00    +0.000 HD
BRANCH  23  25
ATOM     25  C   UNL     1      48.746   2.981  17.696  0.00  0.00    +0.000 C 
ATOM     26  C   UNL     1      50.138   2.500  17.260  0.00  0.00    +0.000 C 
ATOM     27  O   UNL     1      49.596   1.842  16.089  0.00  0.00    +0.000 OA
ATOM     28  C   UNL     1      48.289   2.413  16.344  0.00  0.00    +0.000 C 
ENDBRANCH  23  25
ENDBRANCH  21  23
ENDBRANCH  16  17
ENDBRANCH  15  16
ENDBRANCH   2  15
TORSDOF 8
ENDMDL
MODEL 2
REMARK VINA RESULT:    -6.847      1.421      1.847
REMARK INTER + INTRA:         -10.385
REMARK INTER:                  -9.628
REMARK INTRA:                  -0.757
REMARK UNBOUND:                -0.535
REMARK  Name = 
REMARK  9 active torsions:
REMARK  status: ('A' for Active; 'I' for Inactive)
REMARK    1  A    between atoms: C_1  and  C_2
REMARK    2  A    between atoms: C_2  and  O_3
REMARK    3  A    between atoms: C_2  and  C_4
REMARK    4  A    between atoms: C_2  and  C_17
REMARK    5  A    between atoms: C_4  and  S_5
REMARK    6  A    between atoms: S_5  and  C_6
REMARK    7  A    between atoms: C_10  and  N_11
REMARK    8  A    between atoms: N_11  and  C_12
REMARK    9  A    between atoms: C_21  and  C_22
REMARK                            x       y       z     vdW  Elec       q    Type
REMARK                         _______ _______ _______ _____ _____    ______ ____
ROOT
ATOM      1  C   UNL     1      44.732   7.935  11.485  0.00  0.00    +0.000 C 
ATOM      2  C   UNL     1      45.529   6.695  11.937  0.00  0.00    +0.000 C 
ENDROOT
BRANCH   2   3
ATOM      3  C   UNL     1      44.935   5.435  11.292  0.00  0.00    +0.000 A 
ATOM      4  C   UNL     1      43.887   4.697  11.852  0.00  0.00    +0.000 A 
ATOM      5  C   UNL     1      43.413   3.578  11.182  0.00  0.00    +0.000 A 
ATOM      6  N   UNL     1      43.904   3.134  10.008  0.00  0.00    +0.000 NA
ATOM      7  C   UNL     1      44.922   3.840   9.446  0.00  0.00    +0.000 A 
ATOM      8  C   UNL     1      45.439   4.987  10.057  0.00  0.00    +0.000 A 
BRANCH   7   9
ATOM      9  C   UNL     1      45.533   3.378   8.128  0.00  0.00    +0.000 C 
ATOM     10  F   UNL     1      46.127   2.152   8.180  0.00  0.00    +0.000 F 
ATOM     11  F   UNL     1      44.611   3.301   7.124  0.00  0.00    +0.000 F 
ATOM     12  F   UNL     1      46.494   4.236   7.673  0.00  0.00    +0.000 F 
ENDBRANCH   7   9
ENDBRANCH   2   3
BRANCH   2  13
ATOM     13  O   UNL     1      45.310   6.536  13.348  0.00  0.00    +0.000 OA
ATOM     14  H   UNL     1      44.498   7.016  13.579  0.00  0.00    +0.000 HD
ENDBRANCH   2  13
BRANCH   2  15
ATOM     15  C   UNL     1      47.054   6.890  11.672  0.00  0.00    +0.000 C 
BRANCH  15  16
ATOM     16  S   UNL     1      47.714   8.518  12.215  0.00  0.00    +0.000 S 
BRANCH  16  17
ATOM     17  C   UNL     1      48.810   8.070  13.552  0.00  0.00    +0.000 A 
ATOM     18  C   UNL     1      50.173   8.365  13.559  0.00  0.00    +0.000 A 
ATOM     19  C   UNL     1      50.980   7.922  14.609  0.00  0.00    +0.000 A 
ATOM     20  C   UNL     1      50.434   7.167  15.651  0.00  0.00    +0.000 A 
ATOM     21  C   UNL     1      49.076   6.841  15.657  0.00  0.00    +0.000 A 
ATOM     22  C   UNL     1      48.274   7.317  14.607  0.00  0.00    +0.000 A 
BRANCH  21  23
ATOM     23  N   UNL     1      48.469   6.129  16.714  0.00  0.00    +0.000 N 
ATOM     24  H   UNL     1      47.617   6.588  17.033  0.00  0.00    +0.000 HD
BRANCH  23  25
ATOM     25  C   UNL     1      48.396   4.694  16.835  0.00  0.00    +0.000 C 
ATOM     26  C   UNL     1      47.364   4.042  15.901  0.00  0.00    +0.000 C 
ATOM     27  O   UNL     1      46.620   3.504  17.023  0.00  0.00    +0.000 OA
ATOM     28  C   UNL     1      47.450   4.239  17.956  0.00  0.00    +0.000 C 
ENDBRANCH  23  25
ENDBRANCH  21  23
ENDBRANCH  16  17
ENDBRANCH  15  16
ENDBRANCH   2  15
TORSDOF 8
ENDMDL
MODEL 3
REMARK VINA RESULT:    -6.745      4.589      7.198
REMARK INTER + INTRA:         -10.238
REMARK INTER:                  -9.170
REMARK INTRA:                  -1.067
REMARK UNBOUND:                -0.535
REMARK  Name = 
REMARK  9 active torsions:
REMARK  status: ('A' for Active; 'I' for Inactive)
REMARK    1  A    between atoms: C_1  and  C_2
REMARK    2  A    between atoms: C_2  and  O_3
REMARK    3  A    between atoms: C_2  and  C_4
REMARK    4  A    between atoms: C_2  and  C_17
REMARK    5  A    between atoms: C_4  and  S_5
REMARK    6  A    between atoms: S_5  and  C_6
REMARK    7  A    between atoms: C_10  and  N_11
REMARK    8  A    between atoms: N_11  and  C_12
REMARK    9  A    between atoms: C_21  and  C_22
REMARK                            x       y       z     vdW  Elec       q    Type
REMARK                         _______ _______ _______ _____ _____    ______ ____
ROOT
ATOM      1  C   UNL     1      48.659   9.382  13.075  0.00  0.00    +0.000 C 
ATOM      2  C   UNL     1      47.231   8.827  12.906  0.00  0.00    +0.000 C 
ENDROOT
BRANCH   2   3
ATOM      3  C   UNL     1      46.369   9.842  12.141  0.00  0.00    +0.000 A 
ATOM      4  C   UNL     1      46.794  11.134  11.817  0.00  0.00    +0.000 A 
ATOM      5  C   UNL     1      45.942  11.971  11.110  0.00  0.00    +0.000 A 
ATOM      6  N   UNL     1      44.701  11.625  10.712  0.00  0.00    +0.000 NA
ATOM      7  C   UNL     1      44.270  10.371  11.016  0.00  0.00    +0.000 A 
ATOM      8  C   UNL     1      45.081   9.469  11.711  0.00  0.00    +0.000 A 
BRANCH   7   9
ATOM      9  C   UNL     1      42.869   9.929  10.609  0.00  0.00    +0.000 C 
ATOM     10  F   UNL     1      42.556  10.171   9.305  0.00  0.00    +0.000 F 
ATOM     11  F   UNL     1      42.670   8.591  10.796  0.00  0.00    +0.000 F 
ATOM     12  F   UNL     1      41.896  10.546  11.344  0.00  0.00    +0.000 F 
ENDBRANCH   7   9
ENDBRANCH   2   3
BRANCH   2  13
ATOM     13  O   UNL     1      46.645   8.746  14.215  0.00  0.00    +0.000 OA
ATOM     14  H   UNL     1      47.093   9.396  14.782  0.00  0.00    +0.000 HD
ENDBRANCH   2  13
BRANCH   2  15
ATOM     15  C   UNL     1      47.260   7.404  12.267  0.00  0.00    +0.000 C 
BRANCH  15  16
ATOM     16  S   UNL     1      46.802   6.048  13.422  0.00  0.00    +0.000 S 
BRANCH  16  17
ATOM     17  C   UNL     1      45.332   5.371  12.666  0.00  0.00    +0.000 A 
ATOM     18  C   UNL     1      44.056   5.898  12.863  0.00  0.00    +0.000 A 
ATOM     19  C   UNL     1      42.945   5.272  12.292  0.00  0.00    +0.000 A 
ATOM     20  C   UNL     1      43.100   4.108  11.534  0.00  0.00    +0.000 A 
ATOM     21  C   UNL     1      44.365   3.550  11.339  0.00  0.00    +0.000 A 
ATOM     22  C   UNL     1      45.474   4.206  11.897  0.00  0.00    +0.000 A 
BRANCH  21  23
ATOM     23  N   UNL     1      44.578   2.408  10.536  0.00  0.00    +0.000 N 
ATOM     24  H   UNL     1      44.162   1.576  10.953  0.00  0.00    +0.000 HD
BRANCH  23  25
ATOM     25  C   UNL     1      44.552   2.371   9.095  0.00  0.00    +0.000 C 
ATOM     26  C   UNL     1      45.778   1.689   8.468  0.00  0.00    +0.000 C 
ATOM     27  O   UNL     1      46.149   2.899   7.763  0.00  0.00    +0.000 OA
ATOM     28  C   UNL     1      45.121   3.647   8.458  0.00  0.00    +0.000 C 
ENDBRANCH  23  25
ENDBRANCH  21  23
ENDBRANCH  16  17
ENDBRANCH  15  16
ENDBRANCH   2  15
TORSDOF 8
ENDMDL
MODEL 4
REMARK VINA RESULT:    -6.688      2.548      3.270
REMARK INTER + INTRA:         -10.156
REMARK INTER:                  -9.059
REMARK INTRA:                  -1.097
REMARK UNBOUND:                -0.535
REMARK  Name = 
REMARK  9 active torsions:
REMARK  status: ('A' for Active; 'I' for Inactive)
REMARK    1  A    between atoms: C_1  and  C_2
REMARK    2  A    between atoms: C_2  and  O_3
REMARK    3  A    between atoms: C_2  and  C_4
REMARK    4  A    between atoms: C_2  and  C_17
REMARK    5  A    between atoms: C_4  and  S_5
REMARK    6  A    between atoms: S_5  and  C_6
REMARK    7  A    between atoms: C_10  and  N_11
REMARK    8  A    between atoms: N_11  and  C_12
REMARK    9  A    between atoms: C_21  and  C_22
REMARK                            x       y       z     vdW  Elec       q    Type
REMARK                         _______ _______ _______ _____ _____    ______ ____
ROOT
ATOM      1  C   UNL     1      47.601   8.285  11.870  0.00  0.00    +0.000 C 
ATOM      2  C   UNL     1      47.498   7.739  13.308  0.00  0.00    +0.000 C 
ENDROOT
BRANCH   2   3
ATOM      3  C   UNL     1      46.812   6.365  13.292  0.00  0.00    +0.000 A 
ATOM      4  C   UNL     1      47.429   5.185  13.718  0.00  0.00    +0.000 A 
ATOM      5  C   UNL     1      46.716   3.995  13.676  0.00  0.00    +0.000 A 
ATOM      6  N   UNL     1      45.446   3.889  13.236  0.00  0.00    +0.000 NA
ATOM      7  C   UNL     1      44.828   5.026  12.819  0.00  0.00    +0.000 A 
ATOM      8  C   UNL     1      45.480   6.263  12.849  0.00  0.00    +0.000 A 
BRANCH   7   9
ATOM      9  C   UNL     1      43.399   4.968  12.292  0.00  0.00    +0.000 C 
ATOM     10  F   UNL     1      43.083   3.811  11.644  0.00  0.00    +0.000 F 
ATOM     11  F   UNL     1      42.471   5.103  13.285  0.00  0.00    +0.000 F 
ATOM     12  F   UNL     1      43.131   5.973  11.407  0.00  0.00    +0.000 F 
ENDBRANCH   7   9
ENDBRANCH   2   3
BRANCH   2  13
ATOM     13  O   UNL     1      46.602   8.600  14.030  0.00  0.00    +0.000 OA
ATOM     14  H   UNL     1      47.137   9.175  14.600  0.00  0.00    +0.000 HD
ENDBRANCH   2  13
BRANCH   2  15
ATOM     15  C   UNL     1      48.893   7.749  14.007  0.00  0.00    +0.000 C 
BRANCH  15  16
ATOM     16  S   UNL     1      48.993   8.847  15.479  0.00  0.00    +0.000 S 
BRANCH  16  17
ATOM     17  C   UNL     1      48.833   7.696  16.836  0.00  0.00    +0.000 A 
ATOM     18  C   UNL     1      48.116   7.976  17.999  0.00  0.00    +0.000 A 
ATOM     19  C   UNL     1      48.094   7.052  19.047  0.00  0.00    +0.000 A 
ATOM     20  C   UNL     1      48.799   5.849  18.945  0.00  0.00    +0.000 A 
ATOM     21  C   UNL     1      49.540   5.555  17.799  0.00  0.00    +0.000 A 
ATOM     22  C   UNL     1      49.530   6.482  16.745  0.00  0.00    +0.000 A 
BRANCH  21  23
ATOM     23  N   UNL     1      50.222   4.330  17.628  0.00  0.00    +0.000 N 
ATOM     24  H   UNL     1      51.158   4.365  18.032  0.00  0.00    +0.000 HD
BRANCH  23  25
ATOM     25  C   UNL     1      49.636   3.016  17.715  0.00  0.00    +0.000 C 
ATOM     26  C   UNL     1      50.435   1.928  16.981  0.00  0.00    +0.000 C 
ATOM     27  O   UNL     1      49.320   1.635  16.103  0.00  0.00    +0.000 OA
ATOM     28  C   UNL     1      48.579   2.764  16.629  0.00  0.00    +0.000 C 
ENDBRANCH  23  25
ENDBRANCH  21  23
ENDBRANCH  16  17
ENDBRANCH  15  16
ENDBRANCH   2  15
TORSDOF 8
ENDMDL
MODEL 5
REMARK VINA RESULT:    -6.661      3.903      7.859
REMARK INTER + INTRA:         -10.117
REMARK INTER:                  -9.592
REMARK INTRA:                  -0.525
REMARK UNBOUND:                -0.535
REMARK  Name = 
REMARK  9 active torsions:
REMARK  status: ('A' for Active; 'I' for Inactive)
REMARK    1  A    between atoms: C_1  and  C_2
REMARK    2  A    between atoms: C_2  and  O_3
REMARK    3  A    between atoms: C_2  and  C_4
REMARK    4  A    between atoms: C_2  and  C_17
REMARK    5  A    between atoms: C_4  and  S_5
REMARK    6  A    between atoms: S_5  and  C_6
REMARK    7  A    between atoms: C_10  and  N_11
REMARK    8  A    between atoms: N_11  and  C_12
REMARK    9  A    between atoms: C_21  and  C_22
REMARK                            x       y       z     vdW  Elec       q    Type
REMARK                         _______ _______ _______ _____ _____    ______ ____
ROOT
ATOM      1  C   UNL     1      47.966   8.362  14.130  0.00  0.00    +0.000 C 
ATOM      2  C   UNL     1      48.465   6.905  14.187  0.00  0.00    +0.000 C 
ENDROOT
BRANCH   2   3
ATOM      3  C   UNL     1      48.557   6.446  15.649  0.00  0.00    +0.000 A 
ATOM      4  C   UNL     1      48.933   7.284  16.703  0.00  0.00    +0.000 A 
ATOM      5  C   UNL     1      48.972   6.773  17.993  0.00  0.00    +0.000 A 
ATOM      6  N   UNL     1      48.677   5.497  18.311  0.00  0.00    +0.000 NA
ATOM      7  C   UNL     1      48.307   4.666  17.299  0.00  0.00    +0.000 A 
ATOM      8  C   UNL     1      48.230   5.117  15.978  0.00  0.00    +0.000 A 
BRANCH   7   9
ATOM      9  C   UNL     1      47.979   3.207  17.593  0.00  0.00    +0.000 C 
ATOM     10  F   UNL     1      48.358   2.780  18.831  0.00  0.00    +0.000 F 
ATOM     11  F   UNL     1      46.643   2.944  17.502  0.00  0.00    +0.000 F 
ATOM     12  F   UNL     1      48.578   2.354  16.709  0.00  0.00    +0.000 F 
ENDBRANCH   7   9
ENDBRANCH   2   3
BRANCH   2  13
ATOM     13  O   UNL     1      49.818   6.898  13.703  0.00  0.00    +0.000 OA
ATOM     14  H   UNL     1      49.788   6.827  12.735  0.00  0.00    +0.000 HD
ENDBRANCH   2  13
BRANCH   2  15
ATOM     15  C   UNL     1      47.591   5.983  13.281  0.00  0.00    +0.000 C 
BRANCH  15  16
ATOM     16  S   UNL     1      46.567   6.885  12.049  0.00  0.00    +0.000 S 
BRANCH  16  17
ATOM     17  C   UNL     1      45.162   5.802  11.841  0.00  0.00    +0.000 A 
ATOM     18  C   UNL     1      43.886   6.100  12.320  0.00  0.00    +0.000 A 
ATOM     19  C   UNL     1      42.852   5.172  12.179  0.00  0.00    +0.000 A 
ATOM     20  C   UNL     1      43.088   3.935  11.572  0.00  0.00    +0.000 A 
ATOM     21  C   UNL     1      44.361   3.606  11.103  0.00  0.00    +0.000 A 
ATOM     22  C   UNL     1      45.383   4.560  11.229  0.00  0.00    +0.000 A 
BRANCH  21  23
ATOM     23  N   UNL     1      44.635   2.392  10.435  0.00  0.00    +0.000 N 
ATOM     24  H   UNL     1      44.245   1.594  10.935  0.00  0.00    +0.000 HD
BRANCH  23  25
ATOM     25  C   UNL     1      44.639   2.195   9.007  0.00  0.00    +0.000 C 
ATOM     26  C   UNL     1      46.025   1.874   8.427  0.00  0.00    +0.000 C 
ATOM     27  O   UNL     1      46.000   3.057   7.590  0.00  0.00    +0.000 OA
ATOM     28  C   UNL     1      44.780   3.510   8.226  0.00  0.00    +0.000 C 
ENDBRANCH  23  25
ENDBRANCH  21  23
ENDBRANCH  16  17
ENDBRANCH  15  16
ENDBRANCH   2  15
TORSDOF 8
ENDMDL
MODEL 6
REMARK VINA RESULT:    -6.511      3.594      6.995
REMARK INTER + INTRA:          -9.900
REMARK INTER:                  -9.102
REMARK INTRA:                  -0.798
REMARK UNBOUND:                -0.535
REMARK  Name = 
REMARK  9 active torsions:
REMARK  status: ('A' for Active; 'I' for Inactive)
REMARK    1  A    between atoms: C_1  and  C_2
REMARK    2  A    between atoms: C_2  and  O_3
REMARK    3  A    between atoms: C_2  and  C_4
REMARK    4  A    between atoms: C_2  and  C_17
REMARK    5  A    between atoms: C_4  and  S_5
REMARK    6  A    between atoms: S_5  and  C_6
REMARK    7  A    between atoms: C_10  and  N_11
REMARK    8  A    between atoms: N_11  and  C_12
REMARK    9  A    between atoms: C_21  and  C_22
REMARK                            x       y       z     vdW  Elec       q    Type
REMARK                         _______ _______ _______ _____ _____    ______ ____
ROOT
ATOM      1  C   UNL     1      47.156   5.563  13.299  0.00  0.00    +0.000 C 
ATOM      2  C   UNL     1      46.092   6.087  12.315  0.00  0.00    +0.000 C 
ENDROOT
BRANCH   2   3
ATOM      3  C   UNL     1      45.148   4.944  11.916  0.00  0.00    +0.000 A 
ATOM      4  C   UNL     1      44.047   4.544  12.679  0.00  0.00    +0.000 A 
ATOM      5  C   UNL     1      43.247   3.506  12.222  0.00  0.00    +0.000 A 
ATOM      6  N   UNL     1      43.464   2.832  11.075  0.00  0.00    +0.000 NA
ATOM      7  C   UNL     1      44.529   3.208  10.317  0.00  0.00    +0.000 A 
ATOM      8  C   UNL     1      45.368   4.256  10.707  0.00  0.00    +0.000 A 
BRANCH   7   9
ATOM      9  C   UNL     1      44.837   2.472   9.018  0.00  0.00    +0.000 C 
ATOM     10  F   UNL     1      46.165   2.346   8.741  0.00  0.00    +0.000 F 
ATOM     11  F   UNL     1      44.332   1.204   9.004  0.00  0.00    +0.000 F 
ATOM     12  F   UNL     1      44.289   3.091   7.929  0.00  0.00    +0.000 F 
ENDBRANCH   7   9
ENDBRANCH   2   3
BRANCH   2  13
ATOM     13  O   UNL     1      46.772   6.454  11.104  0.00  0.00    +0.000 OA
ATOM     14  H   UNL     1      46.269   6.089  10.357  0.00  0.00    +0.000 HD
ENDBRANCH   2  13
BRANCH   2  15
ATOM     15  C   UNL     1      45.367   7.340  12.897  0.00  0.00    +0.000 C 
BRANCH  15  16
ATOM     16  S   UNL     1      46.460   8.798  13.146  0.00  0.00    +0.000 S 
BRANCH  16  17
ATOM     17  C   UNL     1      45.923   9.914  11.859  0.00  0.00    +0.000 A 
ATOM     18  C   UNL     1      46.662  11.023  11.447  0.00  0.00    +0.000 A 
ATOM     19  C   UNL     1      46.145  11.889  10.481  0.00  0.00    +0.000 A 
ATOM     20  C   UNL     1      44.880  11.662   9.931  0.00  0.00    +0.000 A 
ATOM     21  C   UNL     1      44.112  10.570  10.342  0.00  0.00    +0.000 A 
ATOM     22  C   UNL     1      44.658   9.695  11.294  0.00  0.00    +0.000 A 
BRANCH  21  23
ATOM     23  N   UNL     1      42.854  10.269   9.776  0.00  0.00    +0.000 N 
ATOM     24  H   UNL     1      42.749   9.269   9.611  0.00  0.00    +0.000 HD
BRANCH  23  25
ATOM     25  C   UNL     1      41.603  10.904  10.110  0.00  0.00    +0.000 C 
ATOM     26  C   UNL     1      41.687  11.847  11.320  0.00  0.00    +0.000 C 
ATOM     27  O   UNL     1      40.716  11.063  12.057  0.00  0.00    +0.000 OA
ATOM     28  C   UNL     1      40.726  10.043  11.029  0.00  0.00    +0.000 C 
ENDBRANCH  23  25
ENDBRANCH  21  23
ENDBRANCH  16  17
ENDBRANCH  15  16
ENDBRANCH   2  15
TORSDOF 8
ENDMDL
MODEL 7
REMARK VINA RESULT:    -6.416      1.696      2.242
REMARK INTER + INTRA:          -9.765
REMARK INTER:                  -9.047
REMARK INTRA:                  -0.718
REMARK UNBOUND:                -0.535
REMARK  Name = 
REMARK  9 active torsions:
REMARK  status: ('A' for Active; 'I' for Inactive)
REMARK    1  A    between atoms: C_1  and  C_2
REMARK    2  A    between atoms: C_2  and  O_3
REMARK    3  A    between atoms: C_2  and  C_4
REMARK    4  A    between atoms: C_2  and  C_17
REMARK    5  A    between atoms: C_4  and  S_5
REMARK    6  A    between atoms: S_5  and  C_6
REMARK    7  A    between atoms: C_10  and  N_11
REMARK    8  A    between atoms: N_11  and  C_12
REMARK    9  A    between atoms: C_21  and  C_22
REMARK                            x       y       z     vdW  Elec       q    Type
REMARK                         _______ _______ _______ _____ _____    ______ ____
ROOT
ATOM      1  C   UNL     1      48.597   7.490  11.747  0.00  0.00    +0.000 C 
ATOM      2  C   UNL     1      47.436   7.382  12.755  0.00  0.00    +0.000 C 
ENDROOT
BRANCH   2   3
ATOM      3  C   UNL     1      46.750   6.016  12.609  0.00  0.00    +0.000 A 
ATOM      4  C   UNL     1      46.938   4.954  13.499  0.00  0.00    +0.000 A 
ATOM      5  C   UNL     1      46.259   3.763  13.285  0.00  0.00    +0.000 A 
ATOM      6  N   UNL     1      45.420   3.545  12.253  0.00  0.00    +0.000 NA
ATOM      7  C   UNL     1      45.221   4.567  11.377  0.00  0.00    +0.000 A 
ATOM      8  C   UNL     1      45.859   5.801  11.540  0.00  0.00    +0.000 A 
BRANCH   7   9
ATOM      9  C   UNL     1      44.298   4.376  10.180  0.00  0.00    +0.000 C 
ATOM     10  F   UNL     1      43.879   3.093   9.988  0.00  0.00    +0.000 F 
ATOM     11  F   UNL     1      43.162   5.128  10.271  0.00  0.00    +0.000 F 
ATOM     12  F   UNL     1      44.888   4.751   9.006  0.00  0.00    +0.000 F 
ENDBRANCH   7   9
ENDBRANCH   2   3
BRANCH   2  13
ATOM     13  O   UNL     1      46.442   8.346  12.369  0.00  0.00    +0.000 OA
ATOM     14  H   UNL     1      46.650   8.642  11.468  0.00  0.00    +0.000 HD
ENDBRANCH   2  13
BRANCH   2  15
ATOM     15  C   UNL     1      47.925   7.700  14.202  0.00  0.00    +0.000 C 
BRANCH  15  16
ATOM     16  S   UNL     1      49.688   8.210  14.309  0.00  0.00    +0.000 S 
BRANCH  16  17
ATOM     17  C   UNL     1      50.332   7.128  15.577  0.00  0.00    +0.000 A 
ATOM     18  C   UNL     1      51.687   7.038  15.893  0.00  0.00    +0.000 A 
ATOM     19  C   UNL     1      52.122   6.119  16.851  0.00  0.00    +0.000 A 
ATOM     20  C   UNL     1      51.209   5.273  17.487  0.00  0.00    +0.000 A 
ATOM     21  C   UNL     1      49.849   5.331  17.173  0.00  0.00    +0.000 A 
ATOM     22  C   UNL     1      49.425   6.278  16.228  0.00  0.00    +0.000 A 
BRANCH  21  23
ATOM     23  N   UNL     1      48.883   4.536  17.828  0.00  0.00    +0.000 N 
ATOM     24  H   UNL     1      47.986   5.017  17.892  0.00  0.00    +0.000 HD
BRANCH  23  25
ATOM     25  C   UNL     1      48.732   3.109  17.697  0.00  0.00    +0.000 C 
ATOM     26  C   UNL     1      49.997   2.392  17.200  0.00  0.00    +0.000 C 
ATOM     27  O   UNL     1      49.311   1.899  16.022  0.00  0.00    +0.000 OA
ATOM     28  C   UNL     1      48.144   2.696  16.340  0.00  0.00    +0.000 C 
ENDBRANCH  23  25
ENDBRANCH  21  23
ENDBRANCH  16  17
ENDBRANCH  15  16
ENDBRANCH   2  15
TORSDOF 8
ENDMDL
MODEL 8
REMARK VINA RESULT:    -6.362      3.531      7.320
REMARK INTER + INTRA:          -9.686
REMARK INTER:                  -8.763
REMARK INTRA:                  -0.923
REMARK UNBOUND:                -0.535
REMARK  Name = 
REMARK  9 active torsions:
REMARK  status: ('A' for Active; 'I' for Inactive)
REMARK    1  A    between atoms: C_1  and  C_2
REMARK    2  A    between atoms: C_2  and  O_3
REMARK    3  A    between atoms: C_2  and  C_4
REMARK    4  A    between atoms: C_2  and  C_17
REMARK    5  A    between atoms: C_4  and  S_5
REMARK    6  A    between atoms: S_5  and  C_6
REMARK    7  A    between atoms: C_10  and  N_11
REMARK    8  A    between atoms: N_11  and  C_12
REMARK    9  A    between atoms: C_21  and  C_22
REMARK                            x       y       z     vdW  Elec       q    Type
REMARK                         _______ _______ _______ _____ _____    ______ ____
ROOT
ATOM      1  C   UNL     1      50.502   8.883  16.082  0.00  0.00    +0.000 C 
ATOM      2  C   UNL     1      49.739   7.712  15.431  0.00  0.00    +0.000 C 
ENDROOT
BRANCH   2   3
ATOM      3  C   UNL     1      49.055   6.873  16.520  0.00  0.00    +0.000 A 
ATOM      4  C   UNL     1      48.674   7.379  17.766  0.00  0.00    +0.000 A 
ATOM      5  C   UNL     1      48.048   6.539  18.676  0.00  0.00    +0.000 A 
ATOM      6  N   UNL     1      47.783   5.238  18.446  0.00  0.00    +0.000 NA
ATOM      7  C   UNL     1      48.144   4.726  17.239  0.00  0.00    +0.000 A 
ATOM      8  C   UNL     1      48.763   5.519  16.267  0.00  0.00    +0.000 A 
BRANCH   7   9
ATOM      9  C   UNL     1      47.888   3.257  16.926  0.00  0.00    +0.000 C 
ATOM     10  F   UNL     1      47.641   2.992  15.612  0.00  0.00    +0.000 F 
ATOM     11  F   UNL     1      48.939   2.458  17.275  0.00  0.00    +0.000 F 
ATOM     12  F   UNL     1      46.814   2.761  17.611  0.00  0.00    +0.000 F 
ENDBRANCH   7   9
ENDBRANCH   2   3
BRANCH   2  13
ATOM     13  O   UNL     1      50.717   6.839  14.841  0.00  0.00    +0.000 OA
ATOM     14  H   UNL     1      50.832   7.105  13.914  0.00  0.00    +0.000 HD
ENDBRANCH   2  13
BRANCH   2  15
ATOM     15  C   UNL     1      48.773   8.227  14.320  0.00  0.00    +0.000 C 
BRANCH  15  16
ATOM     16  S   UNL     1      48.780   7.215  12.785  0.00  0.00    +0.000 S 
BRANCH  16  17
ATOM     17  C   UNL     1      47.116   7.426  12.170  0.00  0.00    +0.000 A 
ATOM     18  C   UNL     1      46.433   8.642  12.206  0.00  0.00    +0.000 A 
ATOM     19  C   UNL     1      45.108   8.714  11.769  0.00  0.00    +0.000 A 
ATOM     20  C   UNL     1      44.451   7.569  11.309  0.00  0.00    +0.000 A 
ATOM     21  C   UNL     1      45.107   6.336  11.283  0.00  0.00    +0.000 A 
ATOM     22  C   UNL     1      46.447   6.287  11.700  0.00  0.00    +0.000 A 
BRANCH  21  23
ATOM     23  N   UNL     1      44.504   5.164  10.776  0.00  0.00    +0.000 N 
ATOM     24  H   UNL     1      45.190   4.551  10.338  0.00  0.00    +0.000 HD
BRANCH  23  25
ATOM     25  C   UNL     1      43.429   4.430  11.395  0.00  0.00    +0.000 C 
ATOM     26  C   UNL     1      43.593   4.248  12.912  0.00  0.00    +0.000 C 
ATOM     27  O   UNL     1      43.609   2.804  12.784  0.00  0.00    +0.000 OA
ATOM     28  C   UNL     1      43.637   2.910  11.339  0.00  0.00    +0.000 C 
ENDBRANCH  23  25
ENDBRANCH  21  23
ENDBRANCH  16  17
ENDBRANCH  15  16
ENDBRANCH   2  15
TORSDOF 8
ENDMDL
MODEL 9
REMARK VINA RESULT:    -6.325      3.721      7.355
REMARK INTER + INTRA:          -9.633
REMARK INTER:                  -8.676
REMARK INTRA:                  -0.957
REMARK UNBOUND:                -0.535
REMARK  Name = 
REMARK  9 active torsions:
REMARK  status: ('A' for Active; 'I' for Inactive)
REMARK    1  A    between atoms: C_1  and  C_2
REMARK    2  A    between atoms: C_2  and  O_3
REMARK    3  A    between atoms: C_2  and  C_4
REMARK    4  A    between atoms: C_2  and  C_17
REMARK    5  A    between atoms: C_4  and  S_5
REMARK    6  A    between atoms: S_5  and  C_6
REMARK    7  A    between atoms: C_10  and  N_11
REMARK    8  A    between atoms: N_11  and  C_12
REMARK    9  A    between atoms: C_21  and  C_22
REMARK                            x       y       z     vdW  Elec       q    Type
REMARK                         _______ _______ _______ _____ _____    ______ ____
ROOT
ATOM      1  C   UNL     1      50.959   8.934  16.326  0.00  0.00    +0.000 C 
ATOM      2  C   UNL     1      50.491   7.773  15.427  0.00  0.00    +0.000 C 
ENDROOT
BRANCH   2   3
ATOM      3  C   UNL     1      50.303   6.506  16.273  0.00  0.00    +0.000 A 
ATOM      4  C   UNL     1      51.348   5.849  16.929  0.00  0.00    +0.000 A 
ATOM      5  C   UNL     1      51.069   4.716  17.682  0.00  0.00    +0.000 A 
ATOM      6  N   UNL     1      49.838   4.185  17.823  0.00  0.00    +0.000 NA
ATOM      7  C   UNL     1      48.808   4.812  17.194  0.00  0.00    +0.000 A 
ATOM      8  C   UNL     1      49.012   5.967  16.433  0.00  0.00    +0.000 A 
BRANCH   7   9
ATOM      9  C   UNL     1      47.395   4.249  17.300  0.00  0.00    +0.000 C 
ATOM     10  F   UNL     1      46.574   4.938  18.143  0.00  0.00    +0.000 F 
ATOM     11  F   UNL     1      46.753   4.221  16.096  0.00  0.00    +0.000 F 
ATOM     12  F   UNL     1      47.384   2.958  17.747  0.00  0.00    +0.000 F 
ENDBRANCH   7   9
ENDBRANCH   2   3
BRANCH   2  13
ATOM     13  O   UNL     1      51.568   7.468  14.526  0.00  0.00    +0.000 OA
ATOM     14  H   UNL     1      51.210   6.918  13.810  0.00  0.00    +0.000 HD
ENDBRANCH   2  13
BRANCH   2  15
ATOM     15  C   UNL     1      49.232   8.183  14.602  0.00  0.00    +0.000 C 
BRANCH  15  16
ATOM     16  S   UNL     1      49.169   7.461  12.911  0.00  0.00    +0.000 S 
BRANCH  16  17
ATOM     17  C   UNL     1      47.427   7.130  12.693  0.00  0.00    +0.000 A 
ATOM     18  C   UNL     1      46.503   8.103  12.312  0.00  0.00    +0.000 A 
ATOM     19  C   UNL     1      45.145   7.784  12.228  0.00  0.00    +0.000 A 
ATOM     20  C   UNL     1      44.700   6.496  12.540  0.00  0.00    +0.000 A 
ATOM     21  C   UNL     1      45.604   5.511  12.944  0.00  0.00    +0.000 A 
ATOM     22  C   UNL     1      46.967   5.841  12.997  0.00  0.00    +0.000 A 
BRANCH  21  23
ATOM     23  N   UNL     1      45.209   4.182  13.216  0.00  0.00    +0.000 N 
ATOM     24  H   UNL     1      44.577   4.136  14.014  0.00  0.00    +0.000 HD
BRANCH  23  25
ATOM     25  C   UNL     1      44.924   3.167  12.232  0.00  0.00    +0.000 C 
ATOM     26  C   UNL     1      44.866   3.696  10.791  0.00  0.00    +0.000 C 
ATOM     27  O   UNL     1      43.486   3.277  10.644  0.00  0.00    +0.000 OA
ATOM     28  C   UNL     1      43.420   2.924  12.047  0.00  0.00    +0.000 C 
ENDBRANCH  23  25
ENDBRANCH  21  23
ENDBRANCH  16  17
ENDBRANCH  15  16
ENDBRANCH   2  15
TORSDOF 8
ENDMDL
