MODEL 1
REMARK VINA RESULT:    -8.460      0.000      0.000
REMARK INTER + INTRA:         -14.236
REMARK INTER:                 -12.912
REMARK INTRA:                  -1.324
REMARK UNBOUND:                -1.324
REMARK  Name = 
REMARK  11 active torsions:
REMARK  status: ('A' for Active; 'I' for Inactive)
REMARK    1  A    between atoms: C_1  and  C_2
REMARK    2  A    between atoms: C_2  and  O_3
REMARK    3  A    between atoms: O_3  and  C_4
REMARK    4  A    between atoms: C_8  and  C_9
REMARK    5  A    between atoms: C_11  and  C_12
REMARK    6  A    between atoms: C_12  and  C_13
REMARK    7  A    between atoms: C_13  and  N_14
REMARK    8  A    between atoms: C_18  and  C_19
REMARK    9  A    between atoms: C_25  and  O_26
REMARK   10  A    between atoms: O_26  and  C_27
REMARK   11  A    between atoms: C_27  and  C_28
REMARK                            x       y       z     vdW  Elec       q    Type
REMARK                         _______ _______ _______ _____ _____    ______ ____
ROOT
ATOM      1  C   UNL     1      47.265   6.400  12.689  0.00  0.00    +0.000 A 
ATOM      2  C   UNL     1      45.935   6.402  12.272  0.00  0.00    +0.000 A 
ATOM      3  C   UNL     1      45.044   5.395  12.656  0.00  0.00    +0.000 A 
ATOM      4  C   UNL     1      45.547   4.396  13.489  0.00  0.00    +0.000 A 
ATOM      5  C   UNL     1      46.892   4.437  13.848  0.00  0.00    +0.000 A 
ATOM      6  N   UNL     1      47.750   5.414  13.473  0.00  0.00    +0.000 NA
ENDROOT
BRANCH   1  11
ATOM      7  C   UNL     1      50.363   8.387  11.713  0.00  0.00    +0.000 A 
ATOM      8  C   UNL     1      49.808   9.632  11.439  0.00  0.00    +0.000 A 
ATOM      9  C   UNL     1      48.449   9.855  11.673  0.00  0.00    +0.000 A 
ATOM     10  C   UNL     1      47.633   8.821  12.139  0.00  0.00    +0.000 A 
ATOM     11  C   UNL     1      48.154   7.543  12.384  0.00  0.00    +0.000 A 
ATOM     12  C   UNL     1      49.545   7.372  12.216  0.00  0.00    +0.000 A 
BRANCH   7  13
ATOM     13  O   UNL     1      51.666   8.017  11.514  0.00  0.00    +0.000 OA
BRANCH  13  15
ATOM     14  C   UNL     1      52.796   6.936   9.705  0.00  0.00    +0.000 C 
ATOM     15  C   UNL     1      52.199   8.238  10.209  0.00  0.00    +0.000 C 
ENDBRANCH  13  15
ENDBRANCH   7  13
ENDBRANCH   1  11
BRANCH   3  16
ATOM     16  C   UNL     1      43.593   5.393  12.205  0.00  0.00    +0.000 C 
BRANCH  16  17
ATOM     17  C   UNL     1      43.285   4.354  11.107  0.00  0.00    +0.000 C 
BRANCH  17  18
ATOM     18  N   UNL     1      43.718   4.768   9.783  0.00  0.00    +0.000 N 
ATOM     19  C   UNL     1      44.674   3.978   9.150  0.00  0.00    +0.000 A 
ATOM     20  C   UNL     1      44.753   2.581   9.262  0.00  0.00    +0.000 A 
ATOM     21  N   UNL     1      45.652   1.803   8.604  0.00  0.00    +0.000 NA
ATOM     22  C   UNL     1      46.482   2.490   7.778  0.00  0.00    +0.000 A 
ATOM     23  C   UNL     1      46.419   3.867   7.647  0.00  0.00    +0.000 A 
ATOM     24  N   UNL     1      45.527   4.633   8.335  0.00  0.00    +0.000 NA
ATOM     25  H   UNL     1      44.012   5.738   9.682  0.00  0.00    +0.000 HD
BRANCH  22  26
ATOM     26  C   UNL     1      47.467   1.700   6.992  0.00  0.00    +0.000 C 
ATOM     27  N   UNL     1      48.508   2.407   6.462  0.00  0.00    +0.000 N 
ATOM     28  O   UNL     1      47.356   0.489   6.832  0.00  0.00    +0.000 OA
ATOM     29  H   UNL     1      48.577   3.408   6.622  0.00  0.00    +0.000 HD
ATOM     30  H   UNL     1      49.222   1.929   5.933  0.00  0.00    +0.000 HD
ENDBRANCH  22  26
ENDBRANCH  17  18
ENDBRANCH  16  17
ENDBRANCH   3  16
BRANCH   5  31
ATOM     31  O   UNL     1      47.340   3.437  14.691  0.00  0.00    +0.000 OA
BRANCH  31  32
ATOM     32  C   UNL     1      47.398   3.866  16.055  0.00  0.00    +0.000 C 
ATOM     33  C   UNL     1      48.264   2.892  16.836  0.00  0.00    +0.000 C 
ENDBRANCH  31  32
ENDBRANCH   5  31
TORSDOF 9
ENDMDL
MODEL 2
REMARK VINA RESULT:    -8.168      1.317      2.185
REMARK INTER + INTRA:         -13.789
REMARK INTER:                 -12.477
REMARK INTRA:                  -1.312
REMARK UNBOUND:                -1.324
REMARK  Name = 
REMARK  11 active torsions:
REMARK  status: ('A' for Active; 'I' for Inactive)
REMARK    1  A    between atoms: C_1  and  C_2
REMARK    2  A    between atoms: C_2  and  O_3
REMARK    3  A    between atoms: O_3  and  C_4
REMARK    4  A    between atoms: C_8  and  C_9
REMARK    5  A    between atoms: C_11  and  C_12
REMARK    6  A    between atoms: C_12  and  C_13
REMARK    7  A    between atoms: C_13  and  N_14
REMARK    8  A    between atoms: C_18  and  C_19
REMARK    9  A    between atoms: C_25  and  O_26
REMARK   10  A    between atoms: O_26  and  C_27
REMARK   11  A    between atoms: C_27  and  C_28
REMARK                            x       y       z     vdW  Elec       q    Type
REMARK                         _______ _______ _______ _____ _____    ______ ____
ROOT
ATOM      1  C   UNL     1      47.303   6.448  12.564  0.00  0.00    +0.000 A 
ATOM      2  C   UNL     1      45.973   6.467  12.147  0.00  0.00    +0.000 A 
ATOM      3  C   UNL     1      45.042   5.538  12.623  0.00  0.00    +0.000 A 
ATOM      4  C   UNL     1      45.505   4.601  13.547  0.00  0.00    +0.000 A 
ATOM      5  C   UNL     1      46.851   4.620  13.902  0.00  0.00    +0.000 A 
ATOM      6  N   UNL     1      47.749   5.521  13.438  0.00  0.00    +0.000 NA
ENDROOT
BRANCH   1  11
ATOM      7  C   UNL     1      48.746   9.914  11.929  0.00  0.00    +0.000 A 
ATOM      8  C   UNL     1      50.090   9.614  11.742  0.00  0.00    +0.000 A 
ATOM      9  C   UNL     1      50.510   8.283  11.716  0.00  0.00    +0.000 A 
ATOM     10  C   UNL     1      49.593   7.248  11.922  0.00  0.00    +0.000 A 
ATOM     11  C   UNL     1      48.238   7.520  12.155  0.00  0.00    +0.000 A 
ATOM     12  C   UNL     1      47.832   8.870  12.094  0.00  0.00    +0.000 A 
BRANCH   7  13
ATOM     13  O   UNL     1      48.194  11.165  11.999  0.00  0.00    +0.000 OA
BRANCH  13  15
ATOM     14  C   UNL     1      48.018  12.023   9.774  0.00  0.00    +0.000 C 
ATOM     15  C   UNL     1      47.255  11.504  10.980  0.00  0.00    +0.000 C 
ENDBRANCH  13  15
ENDBRANCH   7  13
ENDBRANCH   1  11
BRANCH   3  16
ATOM     16  C   UNL     1      43.590   5.553  12.171  0.00  0.00    +0.000 C 
BRANCH  16  17
ATOM     17  C   UNL     1      43.255   4.475  11.122  0.00  0.00    +0.000 C 
BRANCH  17  18
ATOM     18  N   UNL     1      43.714   4.808   9.784  0.00  0.00    +0.000 N 
ATOM     19  C   UNL     1      44.630   3.943   9.191  0.00  0.00    +0.000 A 
ATOM     20  C   UNL     1      44.635   2.549   9.363  0.00  0.00    +0.000 A 
ATOM     21  N   UNL     1      45.495   1.699   8.744  0.00  0.00    +0.000 NA
ATOM     22  C   UNL     1      46.363   2.305   7.895  0.00  0.00    +0.000 A 
ATOM     23  C   UNL     1      46.373   3.676   7.706  0.00  0.00    +0.000 A 
ATOM     24  N   UNL     1      45.520   4.517   8.354  0.00  0.00    +0.000 NA
ATOM     25  H   UNL     1      44.059   5.756   9.644  0.00  0.00    +0.000 HD
BRANCH  22  26
ATOM     26  C   UNL     1      47.308   1.431   7.149  0.00  0.00    +0.000 C 
ATOM     27  N   UNL     1      47.009   0.098   7.148  0.00  0.00    +0.000 N 
ATOM     28  O   UNL     1      48.290   1.876   6.568  0.00  0.00    +0.000 OA
ATOM     29  H   UNL     1      46.180  -0.238   7.631  0.00  0.00    +0.000 HD
ATOM     30  H   UNL     1      47.599  -0.547   6.645  0.00  0.00    +0.000 HD
ENDBRANCH  22  26
ENDBRANCH  17  18
ENDBRANCH  16  17
ENDBRANCH   3  16
BRANCH   5  31
ATOM     31  O   UNL     1      47.260   3.685  14.836  0.00  0.00    +0.000 OA
BRANCH  31  32
ATOM     32  C   UNL     1      47.546   4.280  16.106  0.00  0.00    +0.000 C 
ATOM     33  C   UNL     1      47.235   3.270  17.197  0.00  0.00    +0.000 C 
ENDBRANCH  31  32
ENDBRANCH   5  31
TORSDOF 9
ENDMDL
MODEL 3
REMARK VINA RESULT:    -7.142      2.076      5.106
REMARK INTER + INTRA:         -12.224
REMARK INTER:                 -11.723
REMARK INTRA:                  -0.501
REMARK UNBOUND:                -1.324
REMARK  Name = 
REMARK  11 active torsions:
REMARK  status: ('A' for Active; 'I' for Inactive)
REMARK    1  A    between atoms: C_1  and  C_2
REMARK    2  A    between atoms: C_2  and  O_3
REMARK    3  A    between atoms: O_3  and  C_4
REMARK    4  A    between atoms: C_8  and  C_9
REMARK    5  A    between atoms: C_11  and  C_12
REMARK    6  A    between atoms: C_12  and  C_13
REMARK    7  A    between atoms: C_13  and  N_14
REMARK    8  A    between atoms: C_18  and  C_19
REMARK    9  A    between atoms: C_25  and  O_26
REMARK   10  A    between atoms: O_26  and  C_27
REMARK   11  A    between atoms: C_27  and  C_28
REMARK                            x       y       z     vdW  Elec       q    Type
REMARK                         _______ _______ _______ _____ _____    ______ ____
ROOT
ATOM      1  C   UNL     1      47.084   5.027  14.608  0.00  0.00    +0.000 A 
ATOM      2  C   UNL     1      46.282   4.159  13.869  0.00  0.00    +0.000 A 
ATOM      3  C   UNL     1      45.778   4.514  12.614  0.00  0.00    +0.000 A 
ATOM      4  C   UNL     1      46.128   5.775  12.131  0.00  0.00    +0.000 A 
ATOM      5  C   UNL     1      46.911   6.605  12.930  0.00  0.00    +0.000 A 
ATOM      6  N   UNL     1      47.396   6.256  14.144  0.00  0.00    +0.000 NA
ENDROOT
BRANCH   1  11
ATOM      7  C   UNL     1      48.710   5.132  18.049  0.00  0.00    +0.000 A 
ATOM      8  C   UNL     1      48.596   3.803  18.440  0.00  0.00    +0.000 A 
ATOM      9  C   UNL     1      48.090   2.855  17.548  0.00  0.00    +0.000 A 
ATOM     10  C   UNL     1      47.655   3.242  16.277  0.00  0.00    +0.000 A 
ATOM     11  C   UNL     1      47.718   4.582  15.868  0.00  0.00    +0.000 A 
ATOM     12  C   UNL     1      48.309   5.500  16.762  0.00  0.00    +0.000 A 
BRANCH   7  13
ATOM     13  O   UNL     1      49.165   6.170  18.819  0.00  0.00    +0.000 OA
BRANCH  13  15
ATOM     14  C   UNL     1      48.998   6.255  21.202  0.00  0.00    +0.000 C 
ATOM     15  C   UNL     1      48.317   6.589  19.886  0.00  0.00    +0.000 C 
ENDBRANCH  13  15
ENDBRANCH   7  13
ENDBRANCH   1  11
BRANCH   3  16
ATOM     16  C   UNL     1      44.903   3.572  11.804  0.00  0.00    +0.000 C 
BRANCH  16  17
ATOM     17  C   UNL     1      43.719   4.269  11.105  0.00  0.00    +0.000 C 
BRANCH  17  18
ATOM     18  N   UNL     1      44.032   4.736   9.766  0.00  0.00    +0.000 N 
ATOM     19  C   UNL     1      44.927   3.974   9.018  0.00  0.00    +0.000 A 
ATOM     20  C   UNL     1      45.011   2.573   9.066  0.00  0.00    +0.000 A 
ATOM     21  N   UNL     1      45.846   1.824   8.299  0.00  0.00    +0.000 NA
ATOM     22  C   UNL     1      46.601   2.545   7.431  0.00  0.00    +0.000 A 
ATOM     23  C   UNL     1      46.530   3.926   7.363  0.00  0.00    +0.000 A 
ATOM     24  N   UNL     1      45.705   4.662   8.157  0.00  0.00    +0.000 NA
ATOM     25  H   UNL     1      44.319   5.710   9.679  0.00  0.00    +0.000 HD
BRANCH  22  26
ATOM     26  C   UNL     1      47.509   1.788   6.529  0.00  0.00    +0.000 C 
ATOM     27  N   UNL     1      48.628   2.455   6.116  0.00  0.00    +0.000 N 
ATOM     28  O   UNL     1      47.275   0.637   6.179  0.00  0.00    +0.000 OA
ATOM     29  H   UNL     1      48.799   3.406   6.433  0.00  0.00    +0.000 HD
ATOM     30  H   UNL     1      49.295   1.993   5.518  0.00  0.00    +0.000 HD
ENDBRANCH  22  26
ENDBRANCH  17  18
ENDBRANCH  16  17
ENDBRANCH   3  16
BRANCH   5  31
ATOM     31  O   UNL     1      47.249   7.837  12.400  0.00  0.00    +0.000 OA
BRANCH  31  32
ATOM     32  C   UNL     1      48.552   8.262  12.811  0.00  0.00    +0.000 C 
ATOM     33  C   UNL     1      49.507   8.109  11.639  0.00  0.00    +0.000 C 
ENDBRANCH  31  32
ENDBRANCH   5  31
TORSDOF 9
ENDMDL
MODEL 4
REMARK VINA RESULT:    -6.929      3.381      8.073
REMARK INTER + INTRA:         -11.899
REMARK INTER:                 -10.660
REMARK INTRA:                  -1.239
REMARK UNBOUND:                -1.324
REMARK  Name = 
REMARK  11 active torsions:
REMARK  status: ('A' for Active; 'I' for Inactive)
REMARK    1  A    between atoms: C_1  and  C_2
REMARK    2  A    between atoms: C_2  and  O_3
REMARK    3  A    between atoms: O_3  and  C_4
REMARK    4  A    between atoms: C_8  and  C_9
REMARK    5  A    between atoms: C_11  and  C_12
REMARK    6  A    between atoms: C_12  and  C_13
REMARK    7  A    between atoms: C_13  and  N_14
REMARK    8  A    between atoms: C_18  and  C_19
REMARK    9  A    between atoms: C_25  and  O_26
REMARK   10  A    between atoms: O_26  and  C_27
REMARK   11  A    between atoms: C_27  and  C_28
REMARK                            x       y       z     vdW  Elec       q    Type
REMARK                         _______ _______ _______ _____ _____    ______ ____
ROOT
ATOM      1  C   UNL     1      45.448   7.035  11.847  0.00  0.00    +0.000 A 
ATOM      2  C   UNL     1      46.822   7.023  12.083  0.00  0.00    +0.000 A 
ATOM      3  C   UNL     1      47.532   8.199  12.340  0.00  0.00    +0.000 A 
ATOM      4  C   UNL     1      46.797   9.385  12.364  0.00  0.00    +0.000 A 
ATOM      5  C   UNL     1      45.432   9.331  12.094  0.00  0.00    +0.000 A 
ATOM      6  N   UNL     1      44.749   8.190  11.845  0.00  0.00    +0.000 NA
ENDROOT
BRANCH   1  11
ATOM      7  C   UNL     1      44.131   3.770  10.397  0.00  0.00    +0.000 A 
ATOM      8  C   UNL     1      43.580   3.178  11.527  0.00  0.00    +0.000 A 
ATOM      9  C   UNL     1      43.541   3.881  12.733  0.00  0.00    +0.000 A 
ATOM     10  C   UNL     1      44.093   5.162  12.823  0.00  0.00    +0.000 A 
ATOM     11  C   UNL     1      44.694   5.769  11.711  0.00  0.00    +0.000 A 
ATOM     12  C   UNL     1      44.644   5.066  10.489  0.00  0.00    +0.000 A 
BRANCH   7  13
ATOM     13  O   UNL     1      44.257   3.198   9.159  0.00  0.00    +0.000 OA
BRANCH  13  15
ATOM     14  C   UNL     1      46.117   2.134   8.098  0.00  0.00    +0.000 C 
ATOM     15  C   UNL     1      44.983   1.972   9.096  0.00  0.00    +0.000 C 
ENDBRANCH  13  15
ENDBRANCH   7  13
ENDBRANCH   1  11
BRANCH   3  16
ATOM     16  C   UNL     1      49.030   8.192  12.598  0.00  0.00    +0.000 C 
BRANCH  16  17
ATOM     17  C   UNL     1      49.408   8.406  14.077  0.00  0.00    +0.000 C 
BRANCH  17  18
ATOM     18  N   UNL     1      50.191   7.317  14.637  0.00  0.00    +0.000 N 
ATOM     19  C   UNL     1      49.523   6.402  15.447  0.00  0.00    +0.000 A 
ATOM     20  C   UNL     1      48.198   5.982  15.247  0.00  0.00    +0.000 A 
ATOM     21  N   UNL     1      47.562   5.051  16.004  0.00  0.00    +0.000 NA
ATOM     22  C   UNL     1      48.329   4.512  16.985  0.00  0.00    +0.000 A 
ATOM     23  C   UNL     1      49.639   4.907  17.197  0.00  0.00    +0.000 A 
ATOM     24  N   UNL     1      50.253   5.861  16.444  0.00  0.00    +0.000 NA
ATOM     25  H   UNL     1      51.051   7.576  15.118  0.00  0.00    +0.000 HD
BRANCH  22  26
ATOM     26  C   UNL     1      47.712   3.454  17.829  0.00  0.00    +0.000 C 
ATOM     27  N   UNL     1      48.371   3.159  18.989  0.00  0.00    +0.000 N 
ATOM     28  O   UNL     1      46.675   2.885  17.510  0.00  0.00    +0.000 OA
ATOM     29  H   UNL     1      49.224   3.657  19.230  0.00  0.00    +0.000 HD
ATOM     30  H   UNL     1      47.996   2.464  19.616  0.00  0.00    +0.000 HD
ENDBRANCH  22  26
ENDBRANCH  17  18
ENDBRANCH  16  17
ENDBRANCH   3  16
BRANCH   5  31
ATOM     31  O   UNL     1      44.742  10.528  12.150  0.00  0.00    +0.000 OA
BRANCH  31  32
ATOM     32  C   UNL     1      43.967  10.760  10.970  0.00  0.00    +0.000 C 
ATOM     33  C   UNL     1      44.801  11.567   9.989  0.00  0.00    +0.000 C 
ENDBRANCH  31  32
ENDBRANCH   5  31
TORSDOF 9
ENDMDL
MODEL 5
REMARK VINA RESULT:    -6.509      3.492      8.107
REMARK INTER + INTRA:         -11.257
REMARK INTER:                 -10.266
REMARK INTRA:                  -0.991
REMARK UNBOUND:                -1.324
REMARK  Name = 
REMARK  11 active torsions:
REMARK  status: ('A' for Active; 'I' for Inactive)
REMARK    1  A    between atoms: C_1  and  C_2
REMARK    2  A    between atoms: C_2  and  O_3
REMARK    3  A    between atoms: O_3  and  C_4
REMARK    4  A    between atoms: C_8  and  C_9
REMARK    5  A    between atoms: C_11  and  C_12
REMARK    6  A    between atoms: C_12  and  C_13
REMARK    7  A    between atoms: C_13  and  N_14
REMARK    8  A    between atoms: C_18  and  C_19
REMARK    9  A    between atoms: C_25  and  O_26
REMARK   10  A    between atoms: O_26  and  C_27
REMARK   11  A    between atoms: C_27  and  C_28
REMARK                            x       y       z     vdW  Elec       q    Type
REMARK                         _______ _______ _______ _____ _____    ______ ____
ROOT
ATOM      1  C   UNL     1      46.338   6.745  12.608  0.00  0.00    +0.000 A 
ATOM      2  C   UNL     1      47.259   6.354  13.579  0.00  0.00    +0.000 A 
ATOM      3  C   UNL     1      48.191   7.251  14.110  0.00  0.00    +0.000 A 
ATOM      4  C   UNL     1      48.145   8.561  13.631  0.00  0.00    +0.000 A 
ATOM      5  C   UNL     1      47.218   8.880  12.643  0.00  0.00    +0.000 A 
ATOM      6  N   UNL     1      46.318   8.008  12.132  0.00  0.00    +0.000 NA
ENDROOT
BRANCH   1  11
ATOM      7  C   UNL     1      44.546   3.979  10.702  0.00  0.00    +0.000 A 
ATOM      8  C   UNL     1      43.425   3.786  11.501  0.00  0.00    +0.000 A 
ATOM      9  C   UNL     1      43.196   4.623  12.595  0.00  0.00    +0.000 A 
ATOM     10  C   UNL     1      44.113   5.627  12.920  0.00  0.00    +0.000 A 
ATOM     11  C   UNL     1      45.275   5.819  12.159  0.00  0.00    +0.000 A 
ATOM     12  C   UNL     1      45.435   5.011  11.014  0.00  0.00    +0.000 A 
BRANCH   7  13
ATOM     13  O   UNL     1      44.910   3.227   9.616  0.00  0.00    +0.000 OA
BRANCH  13  15
ATOM     14  C   UNL     1      45.783   3.447   7.402  0.00  0.00    +0.000 C 
ATOM     15  C   UNL     1      44.634   3.788   8.334  0.00  0.00    +0.000 C 
ENDBRANCH  13  15
ENDBRANCH   7  13
ENDBRANCH   1  11
BRANCH   3  16
ATOM     16  C   UNL     1      49.198   6.830  15.168  0.00  0.00    +0.000 C 
BRANCH  16  17
ATOM     17  C   UNL     1      48.594   6.691  16.580  0.00  0.00    +0.000 C 
BRANCH  17  18
ATOM     18  N   UNL     1      48.170   5.338  16.896  0.00  0.00    +0.000 N 
ATOM     19  C   UNL     1      49.167   4.375  17.037  0.00  0.00    +0.000 A 
ATOM     20  C   UNL     1      50.436   4.619  17.587  0.00  0.00    +0.000 A 
ATOM     21  N   UNL     1      51.390   3.670  17.774  0.00  0.00    +0.000 NA
ATOM     22  C   UNL     1      51.012   2.419  17.406  0.00  0.00    +0.000 A 
ATOM     23  C   UNL     1      49.764   2.155  16.867  0.00  0.00    +0.000 A 
ATOM     24  N   UNL     1      48.828   3.123  16.664  0.00  0.00    +0.000 NA
ATOM     25  H   UNL     1      47.445   4.938  16.304  0.00  0.00    +0.000 HD
BRANCH  22  26
ATOM     26  C   UNL     1      51.991   1.321  17.621  0.00  0.00    +0.000 C 
ATOM     27  N   UNL     1      51.484   0.167  18.148  0.00  0.00    +0.000 N 
ATOM     28  O   UNL     1      53.178   1.438  17.339  0.00  0.00    +0.000 OA
ATOM     29  H   UNL     1      50.492   0.098  18.361  0.00  0.00    +0.000 HD
ATOM     30  H   UNL     1      52.091  -0.624  18.301  0.00  0.00    +0.000 HD
ENDBRANCH  22  26
ENDBRANCH  17  18
ENDBRANCH  16  17
ENDBRANCH   3  16
BRANCH   5  31
ATOM     31  O   UNL     1      47.196  10.196  12.215  0.00  0.00    +0.000 OA
BRANCH  31  32
ATOM     32  C   UNL     1      48.506  10.767  12.159  0.00  0.00    +0.000 C 
ATOM     33  C   UNL     1      48.761  11.262  10.745  0.00  0.00    +0.000 C 
ENDBRANCH  31  32
ENDBRANCH   5  31
TORSDOF 9
ENDMDL
MODEL 6
REMARK VINA RESULT:    -6.435      3.774      6.955
REMARK INTER + INTRA:         -11.144
REMARK INTER:                  -9.851
REMARK INTRA:                  -1.294
REMARK UNBOUND:                -1.324
REMARK  Name = 
REMARK  11 active torsions:
REMARK  status: ('A' for Active; 'I' for Inactive)
REMARK    1  A    between atoms: C_1  and  C_2
REMARK    2  A    between atoms: C_2  and  O_3
REMARK    3  A    between atoms: O_3  and  C_4
REMARK    4  A    between atoms: C_8  and  C_9
REMARK    5  A    between atoms: C_11  and  C_12
REMARK    6  A    between atoms: C_12  and  C_13
REMARK    7  A    between atoms: C_13  and  N_14
REMARK    8  A    between atoms: C_18  and  C_19
REMARK    9  A    between atoms: C_25  and  O_26
REMARK   10  A    between atoms: O_26  and  C_27
REMARK   11  A    between atoms: C_27  and  C_28
REMARK                            x       y       z     vdW  Elec       q    Type
REMARK                         _______ _______ _______ _____ _____    ______ ____
ROOT
ATOM      1  C   UNL     1      46.423   5.600  12.901  0.00  0.00    +0.000 A 
ATOM      2  C   UNL     1      46.889   6.883  12.615  0.00  0.00    +0.000 A 
ATOM      3  C   UNL     1      47.842   7.514  13.420  0.00  0.00    +0.000 A 
ATOM      4  C   UNL     1      48.316   6.792  14.516  0.00  0.00    +0.000 A 
ATOM      5  C   UNL     1      47.791   5.526  14.761  0.00  0.00    +0.000 A 
ATOM      6  N   UNL     1      46.868   4.919  13.979  0.00  0.00    +0.000 NA
ENDROOT
BRANCH   1  11
ATOM      7  C   UNL     1      44.888   4.327   9.658  0.00  0.00    +0.000 A 
ATOM      8  C   UNL     1      44.071   3.307  10.130  0.00  0.00    +0.000 A 
ATOM      9  C   UNL     1      43.937   3.102  11.505  0.00  0.00    +0.000 A 
ATOM     10  C   UNL     1      44.654   3.889  12.410  0.00  0.00    +0.000 A 
ATOM     11  C   UNL     1      45.519   4.898  11.964  0.00  0.00    +0.000 A 
ATOM     12  C   UNL     1      45.570   5.133  10.573  0.00  0.00    +0.000 A 
BRANCH   7  13
ATOM     13  O   UNL     1      45.133   4.631   8.345  0.00  0.00    +0.000 OA
BRANCH  13  15
ATOM     14  C   UNL     1      46.244   3.193   6.790  0.00  0.00    +0.000 C 
ATOM     15  C   UNL     1      46.419   4.277   7.839  0.00  0.00    +0.000 C 
ENDBRANCH  13  15
ENDBRANCH   7  13
ENDBRANCH   1  11
BRANCH   3  16
ATOM     16  C   UNL     1      48.352   8.912  13.113  0.00  0.00    +0.000 C 
BRANCH  16  17
ATOM     17  C   UNL     1      47.814   9.494  11.790  0.00  0.00    +0.000 C 
BRANCH  17  18
ATOM     18  N   UNL     1      47.015  10.694  11.969  0.00  0.00    +0.000 N 
ATOM     19  C   UNL     1      45.689  10.646  11.545  0.00  0.00    +0.000 A 
ATOM     20  C   UNL     1      44.868   9.510  11.628  0.00  0.00    +0.000 A 
ATOM     21  N   UNL     1      43.560   9.475  11.264  0.00  0.00    +0.000 NA
ATOM     22  C   UNL     1      43.073  10.663  10.824  0.00  0.00    +0.000 A 
ATOM     23  C   UNL     1      43.863  11.797  10.739  0.00  0.00    +0.000 A 
ATOM     24  N   UNL     1      45.180  11.807  11.084  0.00  0.00    +0.000 NA
ATOM     25  H   UNL     1      47.414  11.563  11.618  0.00  0.00    +0.000 HD
BRANCH  22  26
ATOM     26  C   UNL     1      41.636  10.712  10.446  0.00  0.00    +0.000 C 
ATOM     27  N   UNL     1      40.855   9.710  10.950  0.00  0.00    +0.000 N 
ATOM     28  O   UNL     1      41.176  11.597   9.734  0.00  0.00    +0.000 OA
ATOM     29  H   UNL     1      41.264   8.997  11.547  0.00  0.00    +0.000 HD
ATOM     30  H   UNL     1      39.867   9.694  10.747  0.00  0.00    +0.000 HD
ENDBRANCH  22  26
ENDBRANCH  17  18
ENDBRANCH  16  17
ENDBRANCH   3  16
BRANCH   5  31
ATOM     31  O   UNL     1      48.306   4.840  15.846  0.00  0.00    +0.000 OA
BRANCH  31  32
ATOM     32  C   UNL     1      47.618   3.608  16.083  0.00  0.00    +0.000 C 
ATOM     33  C   UNL     1      47.339   3.483  17.571  0.00  0.00    +0.000 C 
ENDBRANCH  31  32
ENDBRANCH   5  31
TORSDOF 9
ENDMDL
MODEL 7
REMARK VINA RESULT:    -6.370      1.590      1.950
REMARK INTER + INTRA:         -11.046
REMARK INTER:                  -9.947
REMARK INTRA:                  -1.099
REMARK UNBOUND:                -1.324
REMARK  Name = 
REMARK  11 active torsions:
REMARK  status: ('A' for Active; 'I' for Inactive)
REMARK    1  A    between atoms: C_1  and  C_2
REMARK    2  A    between atoms: C_2  and  O_3
REMARK    3  A    between atoms: O_3  and  C_4
REMARK    4  A    between atoms: C_8  and  C_9
REMARK    5  A    between atoms: C_11  and  C_12
REMARK    6  A    between atoms: C_12  and  C_13
REMARK    7  A    between atoms: C_13  and  N_14
REMARK    8  A    between atoms: C_18  and  C_19
REMARK    9  A    between atoms: C_25  and  O_26
REMARK   10  A    between atoms: O_26  and  C_27
REMARK   11  A    between atoms: C_27  and  C_28
REMARK                            x       y       z     vdW  Elec       q    Type
REMARK                         _______ _______ _______ _____ _____    ______ ____
ROOT
ATOM      1  C   UNL     1      48.381   8.207  12.213  0.00  0.00    +0.000 A 
ATOM      2  C   UNL     1      47.066   8.016  11.791  0.00  0.00    +0.000 A 
ATOM      3  C   UNL     1      46.242   7.047  12.371  0.00  0.00    +0.000 A 
ATOM      4  C   UNL     1      46.795   6.289  13.403  0.00  0.00    +0.000 A 
ATOM      5  C   UNL     1      48.123   6.511  13.760  0.00  0.00    +0.000 A 
ATOM      6  N   UNL     1      48.916   7.450  13.194  0.00  0.00    +0.000 NA
ENDROOT
BRANCH   1  11
ATOM      7  C   UNL     1      51.332  10.164  10.814  0.00  0.00    +0.000 A 
ATOM      8  C   UNL     1      50.694  11.300  10.328  0.00  0.00    +0.000 A 
ATOM      9  C   UNL     1      49.327  11.479  10.549  0.00  0.00    +0.000 A 
ATOM     10  C   UNL     1      48.584  10.501  11.217  0.00  0.00    +0.000 A 
ATOM     11  C   UNL     1      49.190   9.325  11.682  0.00  0.00    +0.000 A 
ATOM     12  C   UNL     1      50.587   9.212  11.515  0.00  0.00    +0.000 A 
BRANCH   7  13
ATOM     13  O   UNL     1      52.654   9.844  10.656  0.00  0.00    +0.000 OA
BRANCH  13  15
ATOM     14  C   UNL     1      53.051   8.536   8.695  0.00  0.00    +0.000 C 
ATOM     15  C   UNL     1      53.171   9.910   9.329  0.00  0.00    +0.000 C 
ENDBRANCH  13  15
ENDBRANCH   7  13
ENDBRANCH   1  11
BRANCH   3  16
ATOM     16  C   UNL     1      44.808   6.835  11.915  0.00  0.00    +0.000 C 
BRANCH  16  17
ATOM     17  C   UNL     1      44.566   5.472  11.236  0.00  0.00    +0.000 C 
BRANCH  17  18
ATOM     18  N   UNL     1      44.793   5.493   9.801  0.00  0.00    +0.000 N 
ATOM     19  C   UNL     1      45.329   4.344   9.224  0.00  0.00    +0.000 A 
ATOM     20  C   UNL     1      45.040   3.035   9.642  0.00  0.00    +0.000 A 
ATOM     21  N   UNL     1      45.521   1.912   9.048  0.00  0.00    +0.000 NA
ATOM     22  C   UNL     1      46.305   2.147   7.965  0.00  0.00    +0.000 A 
ATOM     23  C   UNL     1      46.598   3.429   7.532  0.00  0.00    +0.000 A 
ATOM     24  N   UNL     1      46.128   4.544   8.155  0.00  0.00    +0.000 NA
ATOM     25  H   UNL     1      45.314   6.287   9.434  0.00  0.00    +0.000 HD
BRANCH  22  26
ATOM     26  C   UNL     1      46.833   0.963   7.237  0.00  0.00    +0.000 C 
ATOM     27  N   UNL     1      47.266   1.193   5.962  0.00  0.00    +0.000 N 
ATOM     28  O   UNL     1      46.883  -0.150   7.747  0.00  0.00    +0.000 OA
ATOM     29  H   UNL     1      47.221   2.131   5.571  0.00  0.00    +0.000 HD
ATOM     30  H   UNL     1      47.653   0.437   5.419  0.00  0.00    +0.000 HD
ENDBRANCH  22  26
ENDBRANCH  17  18
ENDBRANCH  16  17
ENDBRANCH   3  16
BRANCH   5  31
ATOM     31  O   UNL     1      48.621   5.750  14.802  0.00  0.00    +0.000 OA
BRANCH  31  32
ATOM     32  C   UNL     1      49.174   6.558  15.844  0.00  0.00    +0.000 C 
ATOM     33  C   UNL     1      49.366   5.695  17.080  0.00  0.00    +0.000 C 
ENDBRANCH  31  32
ENDBRANCH   5  31
TORSDOF 9
ENDMDL
MODEL 8
REMARK VINA RESULT:    -6.150      2.558      3.993
REMARK INTER + INTRA:         -10.709
REMARK INTER:                  -9.500
REMARK INTRA:                  -1.210
REMARK UNBOUND:                -1.324
REMARK  Name = 
REMARK  11 active torsions:
REMARK  status: ('A' for Active; 'I' for Inactive)
REMARK    1  A    between atoms: C_1  and  C_2
REMARK    2  A    between atoms: C_2  and  O_3
REMARK    3  A    between atoms: O_3  and  C_4
REMARK    4  A    between atoms: C_8  and  C_9
REMARK    5  A    between atoms: C_11  and  C_12
REMARK    6  A    between atoms: C_12  and  C_13
REMARK    7  A    between atoms: C_13  and  N_14
REMARK    8  A    between atoms: C_18  and  C_19
REMARK    9  A    between atoms: C_25  and  O_26
REMARK   10  A    between atoms: O_26  and  C_27
REMARK   11  A    between atoms: C_27  and  C_28
REMARK                            x       y       z     vdW  Elec       q    Type
REMARK                         _______ _______ _______ _____ _____    ______ ____
ROOT
ATOM      1  C   UNL     1      46.447   7.797  12.621  0.00  0.00    +0.000 A 
ATOM      2  C   UNL     1      45.558   6.722  12.621  0.00  0.00    +0.000 A 
ATOM      3  C   UNL     1      44.302   6.809  12.014  0.00  0.00    +0.000 A 
ATOM      4  C   UNL     1      43.986   8.018  11.394  0.00  0.00    +0.000 A 
ATOM      5  C   UNL     1      44.907   9.061  11.452  0.00  0.00    +0.000 A 
ATOM      6  N   UNL     1      46.122   8.972  12.042  0.00  0.00    +0.000 NA
ENDROOT
BRANCH   1  11
ATOM      7  C   UNL     1      50.182   8.323  13.138  0.00  0.00    +0.000 A 
ATOM      8  C   UNL     1      50.380   7.666  14.347  0.00  0.00    +0.000 A 
ATOM      9  C   UNL     1      49.328   6.964  14.939  0.00  0.00    +0.000 A 
ATOM     10  C   UNL     1      48.063   6.954  14.346  0.00  0.00    +0.000 A 
ATOM     11  C   UNL     1      47.820   7.642  13.149  0.00  0.00    +0.000 A 
ATOM     12  C   UNL     1      48.923   8.273  12.534  0.00  0.00    +0.000 A 
BRANCH   7  13
ATOM     13  O   UNL     1      51.108   9.065  12.454  0.00  0.00    +0.000 OA
BRANCH  13  15
ATOM     14  C   UNL     1      52.114   7.776  10.710  0.00  0.00    +0.000 C 
ATOM     15  C   UNL     1      51.141   8.894  11.039  0.00  0.00    +0.000 C 
ENDBRANCH  13  15
ENDBRANCH   7  13
ENDBRANCH   1  11
BRANCH   3  16
ATOM     16  C   UNL     1      43.330   5.640  12.011  0.00  0.00    +0.000 C 
BRANCH  16  17
ATOM     17  C   UNL     1      43.318   4.844  10.691  0.00  0.00    +0.000 C 
BRANCH  17  18
ATOM     18  N   UNL     1      44.168   3.666  10.720  0.00  0.00    +0.000 N 
ATOM     19  C   UNL     1      44.922   3.396   9.580  0.00  0.00    +0.000 A 
ATOM     20  C   UNL     1      45.494   4.377   8.755  0.00  0.00    +0.000 A 
ATOM     21  N   UNL     1      46.273   4.116   7.672  0.00  0.00    +0.000 NA
ATOM     22  C   UNL     1      46.493   2.795   7.450  0.00  0.00    +0.000 A 
ATOM     23  C   UNL     1      45.943   1.811   8.254  0.00  0.00    +0.000 A 
ATOM     24  N   UNL     1      45.143   2.090   9.320  0.00  0.00    +0.000 NA
ATOM     25  H   UNL     1      43.727   2.793  11.004  0.00  0.00    +0.000 HD
BRANCH  22  26
ATOM     26  C   UNL     1      47.372   2.434   6.306  0.00  0.00    +0.000 C 
ATOM     27  N   UNL     1      46.798   2.510   5.069  0.00  0.00    +0.000 N 
ATOM     28  O   UNL     1      48.539   2.095   6.459  0.00  0.00    +0.000 OA
ATOM     29  H   UNL     1      45.829   2.805   4.974  0.00  0.00    +0.000 HD
ATOM     30  H   UNL     1      47.344   2.296   4.249  0.00  0.00    +0.000 HD
ENDBRANCH  22  26
ENDBRANCH  17  18
ENDBRANCH  16  17
ENDBRANCH   3  16
BRANCH   5  31
ATOM     31  O   UNL     1      44.558  10.233  10.805  0.00  0.00    +0.000 OA
BRANCH  31  32
ATOM     32  C   UNL     1      43.293  10.130  10.146  0.00  0.00    +0.000 C 
ATOM     33  C   UNL     1      42.983  11.458   9.476  0.00  0.00    +0.000 C 
ENDBRANCH  31  32
ENDBRANCH   5  31
TORSDOF 9
ENDMDL
MODEL 9
REMARK VINA RESULT:    -6.124      3.964      7.780
REMARK INTER + INTRA:         -10.671
REMARK INTER:                  -9.631
REMARK INTRA:                  -1.040
REMARK UNBOUND:                -1.324
REMARK  Name = 
REMARK  11 active torsions:
REMARK  status: ('A' for Active; 'I' for Inactive)
REMARK    1  A    between atoms: C_1  and  C_2
REMARK    2  A    between atoms: C_2  and  O_3
REMARK    3  A    between atoms: O_3  and  C_4
REMARK    4  A    between atoms: C_8  and  C_9
REMARK    5  A    between atoms: C_11  and  C_12
REMARK    6  A    between atoms: C_12  and  C_13
REMARK    7  A    between atoms: C_13  and  N_14
REMARK    8  A    between atoms: C_18  and  C_19
REMARK    9  A    between atoms: C_25  and  O_26
REMARK   10  A    between atoms: O_26  and  C_27
REMARK   11  A    between atoms: C_27  and  C_28
REMARK                            x       y       z     vdW  Elec       q    Type
REMARK                         _______ _______ _______ _____ _____    ______ ____
ROOT
ATOM      1  C   UNL     1      45.070   6.447  11.952  0.00  0.00    +0.000 A 
ATOM      2  C   UNL     1      46.006   5.880  12.816  0.00  0.00    +0.000 A 
ATOM      3  C   UNL     1      46.137   4.494  12.948  0.00  0.00    +0.000 A 
ATOM      4  C   UNL     1      45.294   3.706  12.164  0.00  0.00    +0.000 A 
ATOM      5  C   UNL     1      44.363   4.335  11.342  0.00  0.00    +0.000 A 
ATOM      6  N   UNL     1      44.241   5.677  11.217  0.00  0.00    +0.000 NA
ENDROOT
BRANCH   1  11
ATOM      7  C   UNL     1      43.819   9.914  10.998  0.00  0.00    +0.000 A 
ATOM      8  C   UNL     1      44.774  10.720  11.606  0.00  0.00    +0.000 A 
ATOM      9  C   UNL     1      45.879  10.140  12.233  0.00  0.00    +0.000 A 
ATOM     10  C   UNL     1      46.008   8.750  12.292  0.00  0.00    +0.000 A 
ATOM     11  C   UNL     1      45.040   7.909  11.725  0.00  0.00    +0.000 A 
ATOM     12  C   UNL     1      43.979   8.527  11.029  0.00  0.00    +0.000 A 
BRANCH   7  13
ATOM     13  O   UNL     1      42.678  10.338  10.368  0.00  0.00    +0.000 OA
BRANCH  13  15
ATOM     14  C   UNL     1      43.347  10.866   8.135  0.00  0.00    +0.000 C 
ATOM     15  C   UNL     1      42.823  11.418   9.449  0.00  0.00    +0.000 C 
ENDBRANCH  13  15
ENDBRANCH   7  13
ENDBRANCH   1  11
BRANCH   3  16
ATOM     16  C   UNL     1      47.156   3.870  13.888  0.00  0.00    +0.000 C 
BRANCH  16  17
ATOM     17  C   UNL     1      46.906   4.189  15.375  0.00  0.00    +0.000 C 
BRANCH  17  18
ATOM     18  N   UNL     1      47.350   3.137  16.274  0.00  0.00    +0.000 N 
ATOM     19  C   UNL     1      48.687   3.155  16.664  0.00  0.00    +0.000 A 
ATOM     20  C   UNL     1      49.434   4.322  16.891  0.00  0.00    +0.000 A 
ATOM     21  N   UNL     1      50.722   4.342  17.323  0.00  0.00    +0.000 NA
ATOM     22  C   UNL     1      51.250   3.114  17.556  0.00  0.00    +0.000 A 
ATOM     23  C   UNL     1      50.530   1.950  17.345  0.00  0.00    +0.000 A 
ATOM     24  N   UNL     1      49.248   1.948  16.887  0.00  0.00    +0.000 NA
ATOM     25  H   UNL     1      47.128   2.181  16.001  0.00  0.00    +0.000 HD
BRANCH  22  26
ATOM     26  C   UNL     1      52.644   3.058  18.071  0.00  0.00    +0.000 C 
ATOM     27  N   UNL     1      53.329   1.907  17.808  0.00  0.00    +0.000 N 
ATOM     28  O   UNL     1      53.151   3.988  18.688  0.00  0.00    +0.000 OA
ATOM     29  H   UNL     1      52.884   1.158  17.284  0.00  0.00    +0.000 HD
ATOM     30  H   UNL     1      54.286   1.811  18.113  0.00  0.00    +0.000 HD
ENDBRANCH  22  26
ENDBRANCH  17  18
ENDBRANCH  16  17
ENDBRANCH   3  16
BRANCH   5  31
ATOM     31  O   UNL     1      43.564   3.513  10.567  0.00  0.00    +0.000 OA
BRANCH  31  32
ATOM     32  C   UNL     1      44.321   2.780   9.600  0.00  0.00    +0.000 C 
ATOM     33  C   UNL     1      44.711   3.720   8.472  0.00  0.00    +0.000 C 
ENDBRANCH  31  32
ENDBRANCH   5  31
TORSDOF 9
ENDMDL
