MODEL 1
REMARK VINA RESULT:    -8.214      0.000      0.000
REMARK INTER + INTRA:         -12.022
REMARK INTER:                 -11.095
REMARK INTRA:                  -0.927
REMARK UNBOUND:                -0.927
REMARK  Name = 
REMARK  6 active torsions:
REMARK  status: ('A' for Active; 'I' for Inactive)
REMARK    1  A    between atoms: C_4  and  C_5
REMARK    2  A    between atoms: C_9  and  C_10
REMARK    3  A    between atoms: C_10  and  O_11
REMARK    4  A    between atoms: O_11  and  C_12
REMARK    5  A    between atoms: C_16  and  C_17
REMARK    6  A    between atoms: C_24  and  C_25
REMARK                            x       y       z     vdW  Elec       q    Type
REMARK                         _______ _______ _______ _____ _____    ______ ____
ROOT
ATOM      1  C   UNL     1      46.154   6.029  12.453  0.00  0.00    +0.000 A 
ATOM      2  C   UNL     1      46.919   5.203  13.296  0.00  0.00    +0.000 A 
ATOM      3  C   UNL     1      46.612   3.849  13.473  0.00  0.00    +0.000 A 
ATOM      4  C   UNL     1      45.508   3.294  12.834  0.00  0.00    +0.000 A 
ATOM      5  C   UNL     1      44.701   4.088  12.015  0.00  0.00    +0.000 A 
ATOM      6  C   UNL     1      45.053   5.433  11.805  0.00  0.00    +0.000 A 
ENDROOT
BRANCH   1  10
ATOM      7  F   UNL     1      44.825  10.719  12.227  0.00  0.00    +0.000 F 
ATOM      8  C   UNL     1      45.801   9.803  12.162  0.00  0.00    +0.000 A 
ATOM      9  C   UNL     1      45.487   8.459  12.339  0.00  0.00    +0.000 A 
ATOM     10  C   UNL     1      46.480   7.466  12.266  0.00  0.00    +0.000 A 
ATOM     11  C   UNL     1      47.798   7.899  12.015  0.00  0.00    +0.000 A 
ATOM     12  C   UNL     1      48.126   9.260  11.856  0.00  0.00    +0.000 A 
ATOM     13  C   UNL     1      47.103  10.212  11.925  0.00  0.00    +0.000 A 
BRANCH  12  14
ATOM     14  C   UNL     1      49.548   9.699  11.618  0.00  0.00    +0.000 C 
ATOM     15  F   UNL     1      50.340   8.721  11.097  0.00  0.00    +0.000 F 
ATOM     16  F   UNL     1      49.631  10.750  10.757  0.00  0.00    +0.000 F 
ATOM     17  F   UNL     1      50.163  10.104  12.764  0.00  0.00    +0.000 F 
ENDBRANCH  12  14
ENDBRANCH   1  10
BRANCH   5  18
ATOM     18  C   UNL     1      43.468   3.513  11.362  0.00  0.00    +0.000 C 
BRANCH  18  19
ATOM     19  O   UNL     1      43.855   2.464  10.481  0.00  0.00    +0.000 OA
BRANCH  19  20
ATOM     20  C   UNL     1      44.596   2.822   9.389  0.00  0.00    +0.000 A 
ATOM     21  C   UNL     1      44.621   4.082   8.789  0.00  0.00    +0.000 A 
ATOM     22  C   UNL     1      45.432   4.315   7.675  0.00  0.00    +0.000 A 
ATOM     23  C   UNL     1      46.226   3.292   7.157  0.00  0.00    +0.000 A 
ATOM     24  C   UNL     1      46.216   2.022   7.749  0.00  0.00    +0.000 A 
ATOM     25  C   UNL     1      45.388   1.799   8.860  0.00  0.00    +0.000 A 
BRANCH  24  26
ATOM     26  C   UNL     1      47.081   0.905   7.223  0.00  0.00    +0.000 C 
ATOM     27  F   UNL     1      48.416   1.126   7.389  0.00  0.00    +0.000 F 
ATOM     28  F   UNL     1      46.824  -0.284   7.834  0.00  0.00    +0.000 F 
ATOM     29  F   UNL     1      46.905   0.688   5.890  0.00  0.00    +0.000 F 
ENDBRANCH  24  26
ENDBRANCH  19  20
ENDBRANCH  18  19
ENDBRANCH   5  18
TORSDOF 6
ENDMDL
MODEL 2
REMARK VINA RESULT:    -8.180      0.789      2.589
REMARK INTER + INTRA:         -11.976
REMARK INTER:                 -11.087
REMARK INTRA:                  -0.889
REMARK UNBOUND:                -0.927
REMARK  Name = 
REMARK  6 active torsions:
REMARK  status: ('A' for Active; 'I' for Inactive)
REMARK    1  A    between atoms: C_4  and  C_5
REMARK    2  A    between atoms: C_9  and  C_10
REMARK    3  A    between atoms: C_10  and  O_11
REMARK    4  A    between atoms: O_11  and  C_12
REMARK    5  A    between atoms: C_16  and  C_17
REMARK    6  A    between atoms: C_24  and  C_25
REMARK                            x       y       z     vdW  Elec       q    Type
REMARK                         _______ _______ _______ _____ _____    ______ ____
ROOT
ATOM      1  C   UNL     1      46.108   6.074  12.506  0.00  0.00    +0.000 A 
ATOM      2  C   UNL     1      46.887   5.212  13.299  0.00  0.00    +0.000 A 
ATOM      3  C   UNL     1      46.592   3.849  13.409  0.00  0.00    +0.000 A 
ATOM      4  C   UNL     1      45.487   3.318  12.752  0.00  0.00    +0.000 A 
ATOM      5  C   UNL     1      44.666   4.146  11.981  0.00  0.00    +0.000 A 
ATOM      6  C   UNL     1      45.006   5.503  11.838  0.00  0.00    +0.000 A 
ENDROOT
BRANCH   1  10
ATOM      7  F   UNL     1      49.235   9.809  12.798  0.00  0.00    +0.000 F 
ATOM      8  C   UNL     1      47.996   9.375  12.535  0.00  0.00    +0.000 A 
ATOM      9  C   UNL     1      47.712   8.016  12.646  0.00  0.00    +0.000 A 
ATOM     10  C   UNL     1      46.421   7.522  12.390  0.00  0.00    +0.000 A 
ATOM     11  C   UNL     1      45.440   8.461  12.013  0.00  0.00    +0.000 A 
ATOM     12  C   UNL     1      45.726   9.835  11.879  0.00  0.00    +0.000 A 
ATOM     13  C   UNL     1      47.022  10.284  12.154  0.00  0.00    +0.000 A 
BRANCH  12  14
ATOM     14  C   UNL     1      44.667  10.816  11.444  0.00  0.00    +0.000 C 
ATOM     15  F   UNL     1      44.433  10.806  10.103  0.00  0.00    +0.000 F 
ATOM     16  F   UNL     1      43.465  10.579  12.037  0.00  0.00    +0.000 F 
ATOM     17  F   UNL     1      44.993  12.101  11.756  0.00  0.00    +0.000 F 
ENDBRANCH  12  14
ENDBRANCH   1  10
BRANCH   5  18
ATOM     18  C   UNL     1      43.432   3.595  11.310  0.00  0.00    +0.000 C 
BRANCH  18  19
ATOM     19  O   UNL     1      43.812   2.543  10.429  0.00  0.00    +0.000 OA
BRANCH  19  20
ATOM     20  C   UNL     1      44.613   2.887   9.374  0.00  0.00    +0.000 A 
ATOM     21  C   UNL     1      44.733   4.158   8.811  0.00  0.00    +0.000 A 
ATOM     22  C   UNL     1      45.597   4.372   7.734  0.00  0.00    +0.000 A 
ATOM     23  C   UNL     1      46.350   3.319   7.216  0.00  0.00    +0.000 A 
ATOM     24  C   UNL     1      46.244   2.035   7.771  0.00  0.00    +0.000 A 
ATOM     25  C   UNL     1      45.364   1.833   8.846  0.00  0.00    +0.000 A 
BRANCH  24  26
ATOM     26  C   UNL     1      47.062   0.885   7.245  0.00  0.00    +0.000 C 
ATOM     27  F   UNL     1      46.843   0.619   5.926  0.00  0.00    +0.000 F 
ATOM     28  F   UNL     1      48.401   1.102   7.360  0.00  0.00    +0.000 F 
ATOM     29  F   UNL     1      46.813  -0.280   7.904  0.00  0.00    +0.000 F 
ENDBRANCH  24  26
ENDBRANCH  19  20
ENDBRANCH  18  19
ENDBRANCH   5  18
TORSDOF 6
ENDMDL
MODEL 3
REMARK VINA RESULT:    -7.968      4.412      8.000
REMARK INTER + INTRA:         -11.690
REMARK INTER:                 -10.465
REMARK INTRA:                  -1.224
REMARK UNBOUND:                -0.927
REMARK  Name = 
REMARK  6 active torsions:
REMARK  status: ('A' for Active; 'I' for Inactive)
REMARK    1  A    between atoms: C_4  and  C_5
REMARK    2  A    between atoms: C_9  and  C_10
REMARK    3  A    between atoms: C_10  and  O_11
REMARK    4  A    between atoms: O_11  and  C_12
REMARK    5  A    between atoms: C_16  and  C_17
REMARK    6  A    between atoms: C_24  and  C_25
REMARK                            x       y       z     vdW  Elec       q    Type
REMARK                         _______ _______ _______ _____ _____    ______ ____
ROOT
ATOM      1  C   UNL     1      45.856   6.406  12.201  0.00  0.00    +0.000 A 
ATOM      2  C   UNL     1      45.174   7.635  12.179  0.00  0.00    +0.000 A 
ATOM      3  C   UNL     1      45.692   8.774  12.805  0.00  0.00    +0.000 A 
ATOM      4  C   UNL     1      46.895   8.702  13.502  0.00  0.00    +0.000 A 
ATOM      5  C   UNL     1      47.588   7.491  13.578  0.00  0.00    +0.000 A 
ATOM      6  C   UNL     1      47.081   6.369  12.898  0.00  0.00    +0.000 A 
ENDROOT
BRANCH   1  10
ATOM      7  F   UNL     1      43.162   2.338  12.276  0.00  0.00    +0.000 F 
ATOM      8  C   UNL     1      43.952   3.172  11.589  0.00  0.00    +0.000 A 
ATOM      9  C   UNL     1      44.463   4.303  12.220  0.00  0.00    +0.000 A 
ATOM     10  C   UNL     1      45.306   5.197  11.536  0.00  0.00    +0.000 A 
ATOM     11  C   UNL     1      45.598   4.897  10.190  0.00  0.00    +0.000 A 
ATOM     12  C   UNL     1      45.066   3.764   9.539  0.00  0.00    +0.000 A 
ATOM     13  C   UNL     1      44.241   2.897  10.262  0.00  0.00    +0.000 A 
BRANCH  12  14
ATOM     14  C   UNL     1      45.370   3.482   8.090  0.00  0.00    +0.000 C 
ATOM     15  F   UNL     1      44.278   3.559   7.279  0.00  0.00    +0.000 F 
ATOM     16  F   UNL     1      46.285   4.346   7.572  0.00  0.00    +0.000 F 
ATOM     17  F   UNL     1      45.885   2.235   7.903  0.00  0.00    +0.000 F 
ENDBRANCH  12  14
ENDBRANCH   1  10
BRANCH   5  18
ATOM     18  C   UNL     1      48.863   7.385  14.377  0.00  0.00    +0.000 C 
BRANCH  18  19
ATOM     19  O   UNL     1      48.582   7.673  15.743  0.00  0.00    +0.000 OA
BRANCH  19  20
ATOM     20  C   UNL     1      48.863   6.687  16.648  0.00  0.00    +0.000 A 
ATOM     21  C   UNL     1      49.518   6.852  17.869  0.00  0.00    +0.000 A 
ATOM     22  C   UNL     1      49.737   5.754  18.705  0.00  0.00    +0.000 A 
ATOM     23  C   UNL     1      49.299   4.485  18.328  0.00  0.00    +0.000 A 
ATOM     24  C   UNL     1      48.636   4.300  17.107  0.00  0.00    +0.000 A 
ATOM     25  C   UNL     1      48.433   5.411  16.272  0.00  0.00    +0.000 A 
BRANCH  24  26
ATOM     26  C   UNL     1      48.132   2.945  16.686  0.00  0.00    +0.000 C 
ATOM     27  F   UNL     1      47.591   2.929  15.434  0.00  0.00    +0.000 F 
ATOM     28  F   UNL     1      49.115   2.003  16.675  0.00  0.00    +0.000 F 
ATOM     29  F   UNL     1      47.163   2.465  17.513  0.00  0.00    +0.000 F 
ENDBRANCH  24  26
ENDBRANCH  19  20
ENDBRANCH  18  19
ENDBRANCH   5  18
TORSDOF 6
ENDMDL
MODEL 4
REMARK VINA RESULT:    -7.829      3.758      5.064
REMARK INTER + INTRA:         -11.503
REMARK INTER:                 -10.333
REMARK INTRA:                  -1.170
REMARK UNBOUND:                -0.927
REMARK  Name = 
REMARK  6 active torsions:
REMARK  status: ('A' for Active; 'I' for Inactive)
REMARK    1  A    between atoms: C_4  and  C_5
REMARK    2  A    between atoms: C_9  and  C_10
REMARK    3  A    between atoms: C_10  and  O_11
REMARK    4  A    between atoms: O_11  and  C_12
REMARK    5  A    between atoms: C_16  and  C_17
REMARK    6  A    between atoms: C_24  and  C_25
REMARK                            x       y       z     vdW  Elec       q    Type
REMARK                         _______ _______ _______ _____ _____    ______ ____
ROOT
ATOM      1  C   UNL     1      47.530   5.861  14.068  0.00  0.00    +0.000 A 
ATOM      2  C   UNL     1      48.472   6.635  13.366  0.00  0.00    +0.000 A 
ATOM      3  C   UNL     1      48.192   7.162  12.101  0.00  0.00    +0.000 A 
ATOM      4  C   UNL     1      46.970   6.899  11.488  0.00  0.00    +0.000 A 
ATOM      5  C   UNL     1      46.019   6.106  12.136  0.00  0.00    +0.000 A 
ATOM      6  C   UNL     1      46.295   5.627  13.429  0.00  0.00    +0.000 A 
ENDROOT
BRANCH   1  10
ATOM      7  F   UNL     1      46.981   2.415  17.480  0.00  0.00    +0.000 F 
ATOM      8  C   UNL     1      47.547   3.569  17.102  0.00  0.00    +0.000 A 
ATOM      9  C   UNL     1      47.263   4.086  15.841  0.00  0.00    +0.000 A 
ATOM     10  C   UNL     1      47.827   5.300  15.411  0.00  0.00    +0.000 A 
ATOM     11  C   UNL     1      48.693   5.956  16.310  0.00  0.00    +0.000 A 
ATOM     12  C   UNL     1      49.001   5.426  17.580  0.00  0.00    +0.000 A 
ATOM     13  C   UNL     1      48.407   4.221  17.969  0.00  0.00    +0.000 A 
BRANCH  12  14
ATOM     14  C   UNL     1      49.953   6.133  18.511  0.00  0.00    +0.000 C 
ATOM     15  F   UNL     1      50.986   5.350  18.930  0.00  0.00    +0.000 F 
ATOM     16  F   UNL     1      50.520   7.231  17.941  0.00  0.00    +0.000 F 
ATOM     17  F   UNL     1      49.337   6.573  19.643  0.00  0.00    +0.000 F 
ENDBRANCH  12  14
ENDBRANCH   1  10
BRANCH   5  18
ATOM     18  C   UNL     1      44.714   5.765  11.460  0.00  0.00    +0.000 C 
BRANCH  18  19
ATOM     19  O   UNL     1      44.937   5.626  10.061  0.00  0.00    +0.000 OA
BRANCH  19  20
ATOM     20  C   UNL     1      45.046   4.350   9.581  0.00  0.00    +0.000 A 
ATOM     21  C   UNL     1      44.424   3.217  10.107  0.00  0.00    +0.000 A 
ATOM     22  C   UNL     1      44.618   1.967   9.513  0.00  0.00    +0.000 A 
ATOM     23  C   UNL     1      45.432   1.842   8.388  0.00  0.00    +0.000 A 
ATOM     24  C   UNL     1      46.063   2.970   7.844  0.00  0.00    +0.000 A 
ATOM     25  C   UNL     1      45.868   4.217   8.458  0.00  0.00    +0.000 A 
BRANCH  24  26
ATOM     26  C   UNL     1      46.929   2.867   6.616  0.00  0.00    +0.000 C 
ATOM     27  F   UNL     1      48.264   2.841   6.892  0.00  0.00    +0.000 F 
ATOM     28  F   UNL     1      46.679   1.740   5.894  0.00  0.00    +0.000 F 
ATOM     29  F   UNL     1      46.749   3.909   5.758  0.00  0.00    +0.000 F 
ENDBRANCH  24  26
ENDBRANCH  19  20
ENDBRANCH  18  19
ENDBRANCH   5  18
TORSDOF 6
ENDMDL
MODEL 5
REMARK VINA RESULT:    -7.668      3.870      5.286
REMARK INTER + INTRA:         -11.285
REMARK INTER:                 -10.040
REMARK INTRA:                  -1.245
REMARK UNBOUND:                -0.927
REMARK  Name = 
REMARK  6 active torsions:
REMARK  status: ('A' for Active; 'I' for Inactive)
REMARK    1  A    between atoms: C_4  and  C_5
REMARK    2  A    between atoms: C_9  and  C_10
REMARK    3  A    between atoms: C_10  and  O_11
REMARK    4  A    between atoms: O_11  and  C_12
REMARK    5  A    between atoms: C_16  and  C_17
REMARK    6  A    between atoms: C_24  and  C_25
REMARK                            x       y       z     vdW  Elec       q    Type
REMARK                         _______ _______ _______ _____ _____    ______ ____
ROOT
ATOM      1  C   UNL     1      47.228   6.373  13.842  0.00  0.00    +0.000 A 
ATOM      2  C   UNL     1      47.622   7.470  13.055  0.00  0.00    +0.000 A 
ATOM      3  C   UNL     1      46.856   7.909  11.970  0.00  0.00    +0.000 A 
ATOM      4  C   UNL     1      45.689   7.237  11.621  0.00  0.00    +0.000 A 
ATOM      5  C   UNL     1      45.278   6.121  12.355  0.00  0.00    +0.000 A 
ATOM      6  C   UNL     1      46.031   5.725  13.476  0.00  0.00    +0.000 A 
ENDROOT
BRANCH   1  10
ATOM      7  F   UNL     1      50.980   6.902  16.918  0.00  0.00    +0.000 F 
ATOM      8  C   UNL     1      49.916   6.189  16.525  0.00  0.00    +0.000 A 
ATOM      9  C   UNL     1      49.158   6.633  15.444  0.00  0.00    +0.000 A 
ATOM     10  C   UNL     1      48.041   5.908  14.994  0.00  0.00    +0.000 A 
ATOM     11  C   UNL     1      47.726   4.723  15.691  0.00  0.00    +0.000 A 
ATOM     12  C   UNL     1      48.476   4.279  16.799  0.00  0.00    +0.000 A 
ATOM     13  C   UNL     1      49.586   5.028  17.205  0.00  0.00    +0.000 A 
BRANCH  12  14
ATOM     14  C   UNL     1      48.100   3.025  17.545  0.00  0.00    +0.000 C 
ATOM     15  F   UNL     1      48.440   3.053  18.863  0.00  0.00    +0.000 F 
ATOM     16  F   UNL     1      46.763   2.778  17.507  0.00  0.00    +0.000 F 
ATOM     17  F   UNL     1      48.701   1.917  17.029  0.00  0.00    +0.000 F 
ENDBRANCH  12  14
ENDBRANCH   1  10
BRANCH   5  18
ATOM     18  C   UNL     1      44.046   5.348  11.955  0.00  0.00    +0.000 C 
BRANCH  18  19
ATOM     19  O   UNL     1      43.978   5.285  10.534  0.00  0.00    +0.000 OA
BRANCH  19  20
ATOM     20  C   UNL     1      44.406   4.123   9.952  0.00  0.00    +0.000 A 
ATOM     21  C   UNL     1      43.976   2.834  10.273  0.00  0.00    +0.000 A 
ATOM     22  C   UNL     1      44.495   1.730   9.592  0.00  0.00    +0.000 A 
ATOM     23  C   UNL     1      45.442   1.906   8.584  0.00  0.00    +0.000 A 
ATOM     24  C   UNL     1      45.884   3.193   8.247  0.00  0.00    +0.000 A 
ATOM     25  C   UNL     1      45.362   4.293   8.947  0.00  0.00    +0.000 A 
BRANCH  24  26
ATOM     26  C   UNL     1      46.889   3.413   7.147  0.00  0.00    +0.000 C 
ATOM     27  F   UNL     1      47.388   4.681   7.112  0.00  0.00    +0.000 F 
ATOM     28  F   UNL     1      47.971   2.594   7.259  0.00  0.00    +0.000 F 
ATOM     29  F   UNL     1      46.372   3.184   5.909  0.00  0.00    +0.000 F 
ENDBRANCH  24  26
ENDBRANCH  19  20
ENDBRANCH  18  19
ENDBRANCH   5  18
TORSDOF 6
ENDMDL
MODEL 6
REMARK VINA RESULT:    -7.598      4.728      7.965
REMARK INTER + INTRA:         -11.190
REMARK INTER:                  -9.951
REMARK INTRA:                  -1.239
REMARK UNBOUND:                -0.927
REMARK  Name = 
REMARK  6 active torsions:
REMARK  status: ('A' for Active; 'I' for Inactive)
REMARK    1  A    between atoms: C_4  and  C_5
REMARK    2  A    between atoms: C_9  and  C_10
REMARK    3  A    between atoms: C_10  and  O_11
REMARK    4  A    between atoms: O_11  and  C_12
REMARK    5  A    between atoms: C_16  and  C_17
REMARK    6  A    between atoms: C_24  and  C_25
REMARK                            x       y       z     vdW  Elec       q    Type
REMARK                         _______ _______ _______ _____ _____    ______ ____
ROOT
ATOM      1  C   UNL     1      46.797   7.347  12.668  0.00  0.00    +0.000 A 
ATOM      2  C   UNL     1      46.815   8.694  12.263  0.00  0.00    +0.000 A 
ATOM      3  C   UNL     1      47.777   9.591  12.741  0.00  0.00    +0.000 A 
ATOM      4  C   UNL     1      48.727   9.171  13.666  0.00  0.00    +0.000 A 
ATOM      5  C   UNL     1      48.723   7.849  14.121  0.00  0.00    +0.000 A 
ATOM      6  C   UNL     1      47.784   6.946  13.592  0.00  0.00    +0.000 A 
ENDROOT
BRANCH   1  10
ATOM      7  F   UNL     1      42.560   4.971  13.138  0.00  0.00    +0.000 F 
ATOM      8  C   UNL     1      43.656   5.221  12.409  0.00  0.00    +0.000 A 
ATOM      9  C   UNL     1      44.607   6.115  12.892  0.00  0.00    +0.000 A 
ATOM     10  C   UNL     1      45.776   6.395  12.162  0.00  0.00    +0.000 A 
ATOM     11  C   UNL     1      45.930   5.735  10.925  0.00  0.00    +0.000 A 
ATOM     12  C   UNL     1      44.960   4.845  10.421  0.00  0.00    +0.000 A 
ATOM     13  C   UNL     1      43.818   4.588  11.187  0.00  0.00    +0.000 A 
BRANCH  12  14
ATOM     14  C   UNL     1      45.135   4.175   9.082  0.00  0.00    +0.000 C 
ATOM     15  F   UNL     1      45.402   2.843   9.170  0.00  0.00    +0.000 F 
ATOM     16  F   UNL     1      44.029   4.286   8.297  0.00  0.00    +0.000 F 
ATOM     17  F   UNL     1      46.160   4.713   8.365  0.00  0.00    +0.000 F 
ENDBRANCH  12  14
ENDBRANCH   1  10
BRANCH   5  18
ATOM     18  C   UNL     1      49.711   7.394  15.167  0.00  0.00    +0.000 C 
BRANCH  18  19
ATOM     19  O   UNL     1      49.168   7.642  16.459  0.00  0.00    +0.000 OA
BRANCH  19  20
ATOM     20  C   UNL     1      49.123   6.578  17.319  0.00  0.00    +0.000 A 
ATOM     21  C   UNL     1      49.489   6.592  18.666  0.00  0.00    +0.000 A 
ATOM     22  C   UNL     1      49.388   5.430  19.435  0.00  0.00    +0.000 A 
ATOM     23  C   UNL     1      48.916   4.248  18.864  0.00  0.00    +0.000 A 
ATOM     24  C   UNL     1      48.541   4.216  17.514  0.00  0.00    +0.000 A 
ATOM     25  C   UNL     1      48.659   5.389  16.750  0.00  0.00    +0.000 A 
BRANCH  24  26
ATOM     26  C   UNL     1      48.008   2.959  16.878  0.00  0.00    +0.000 C 
ATOM     27  F   UNL     1      47.489   3.156  15.633  0.00  0.00    +0.000 F 
ATOM     28  F   UNL     1      48.966   2.002  16.732  0.00  0.00    +0.000 F 
ATOM     29  F   UNL     1      47.012   2.384  17.607  0.00  0.00    +0.000 F 
ENDBRANCH  24  26
ENDBRANCH  19  20
ENDBRANCH  18  19
ENDBRANCH   5  18
TORSDOF 6
ENDMDL
MODEL 7
REMARK VINA RESULT:    -7.575      4.282      5.879
REMARK INTER + INTRA:         -11.160
REMARK INTER:                  -9.949
REMARK INTRA:                  -1.210
REMARK UNBOUND:                -0.927
REMARK  Name = 
REMARK  6 active torsions:
REMARK  status: ('A' for Active; 'I' for Inactive)
REMARK    1  A    between atoms: C_4  and  C_5
REMARK    2  A    between atoms: C_9  and  C_10
REMARK    3  A    between atoms: C_10  and  O_11
REMARK    4  A    between atoms: O_11  and  C_12
REMARK    5  A    between atoms: C_16  and  C_17
REMARK    6  A    between atoms: C_24  and  C_25
REMARK                            x       y       z     vdW  Elec       q    Type
REMARK                         _______ _______ _______ _____ _____    ______ ____
ROOT
ATOM      1  C   UNL     1      48.447   6.863  14.280  0.00  0.00    +0.000 A 
ATOM      2  C   UNL     1      49.548   7.296  13.519  0.00  0.00    +0.000 A 
ATOM      3  C   UNL     1      49.399   7.750  12.205  0.00  0.00    +0.000 A 
ATOM      4  C   UNL     1      48.144   7.749  11.603  0.00  0.00    +0.000 A 
ATOM      5  C   UNL     1      47.029   7.295  12.311  0.00  0.00    +0.000 A 
ATOM      6  C   UNL     1      47.186   6.893  13.650  0.00  0.00    +0.000 A 
ENDROOT
BRANCH   1  10
ATOM      7  F   UNL     1      49.620   7.619  18.957  0.00  0.00    +0.000 F 
ATOM      8  C   UNL     1      49.189   6.777  18.008  0.00  0.00    +0.000 A 
ATOM      9  C   UNL     1      49.043   7.237  16.703  0.00  0.00    +0.000 A 
ATOM     10  C   UNL     1      48.605   6.382  15.676  0.00  0.00    +0.000 A 
ATOM     11  C   UNL     1      48.317   5.049  16.035  0.00  0.00    +0.000 A 
ATOM     12  C   UNL     1      48.443   4.583  17.360  0.00  0.00    +0.000 A 
ATOM     13  C   UNL     1      48.893   5.466  18.346  0.00  0.00    +0.000 A 
BRANCH  12  14
ATOM     14  C   UNL     1      48.100   3.160  17.723  0.00  0.00    +0.000 C 
ATOM     15  F   UNL     1      48.315   2.866  19.035  0.00  0.00    +0.000 F 
ATOM     16  F   UNL     1      46.795   2.861  17.478  0.00  0.00    +0.000 F 
ATOM     17  F   UNL     1      48.832   2.255  17.015  0.00  0.00    +0.000 F 
ENDBRANCH  12  14
ENDBRANCH   1  10
BRANCH   5  18
ATOM     18  C   UNL     1      45.672   7.236  11.653  0.00  0.00    +0.000 C 
BRANCH  18  19
ATOM     19  O   UNL     1      44.815   6.406  12.430  0.00  0.00    +0.000 OA
BRANCH  19  20
ATOM     20  C   UNL     1      44.502   5.183  11.902  0.00  0.00    +0.000 A 
ATOM     21  C   UNL     1      43.718   4.200  12.508  0.00  0.00    +0.000 A 
ATOM     22  C   UNL     1      43.472   2.992  11.851  0.00  0.00    +0.000 A 
ATOM     23  C   UNL     1      44.002   2.760  10.583  0.00  0.00    +0.000 A 
ATOM     24  C   UNL     1      44.789   3.737   9.957  0.00  0.00    +0.000 A 
ATOM     25  C   UNL     1      45.038   4.942  10.634  0.00  0.00    +0.000 A 
BRANCH  24  26
ATOM     26  C   UNL     1      45.356   3.522   8.578  0.00  0.00    +0.000 C 
ATOM     27  F   UNL     1      44.412   3.524   7.595  0.00  0.00    +0.000 F 
ATOM     28  F   UNL     1      46.256   4.482   8.228  0.00  0.00    +0.000 F 
ATOM     29  F   UNL     1      46.011   2.334   8.459  0.00  0.00    +0.000 F 
ENDBRANCH  24  26
ENDBRANCH  19  20
ENDBRANCH  18  19
ENDBRANCH   5  18
TORSDOF 6
ENDMDL
MODEL 8
REMARK VINA RESULT:    -7.541      4.137      8.757
REMARK INTER + INTRA:         -11.114
REMARK INTER:                  -9.929
REMARK INTRA:                  -1.185
REMARK UNBOUND:                -0.927
REMARK  Name = 
REMARK  6 active torsions:
REMARK  status: ('A' for Active; 'I' for Inactive)
REMARK    1  A    between atoms: C_4  and  C_5
REMARK    2  A    between atoms: C_9  and  C_10
REMARK    3  A    between atoms: C_10  and  O_11
REMARK    4  A    between atoms: O_11  and  C_12
REMARK    5  A    between atoms: C_16  and  C_17
REMARK    6  A    between atoms: C_24  and  C_25
REMARK                            x       y       z     vdW  Elec       q    Type
REMARK                         _______ _______ _______ _____ _____    ______ ____
ROOT
ATOM      1  C   UNL     1      45.786   6.442  12.119  0.00  0.00    +0.000 A 
ATOM      2  C   UNL     1      45.100   7.666  12.015  0.00  0.00    +0.000 A 
ATOM      3  C   UNL     1      45.565   8.824  12.647  0.00  0.00    +0.000 A 
ATOM      4  C   UNL     1      46.714   8.780  13.431  0.00  0.00    +0.000 A 
ATOM      5  C   UNL     1      47.407   7.576  13.589  0.00  0.00    +0.000 A 
ATOM      6  C   UNL     1      46.957   6.433  12.904  0.00  0.00    +0.000 A 
ENDROOT
BRANCH   1  10
ATOM      7  F   UNL     1      43.201   2.303  12.144  0.00  0.00    +0.000 F 
ATOM      8  C   UNL     1      43.992   3.152  11.475  0.00  0.00    +0.000 A 
ATOM      9  C   UNL     1      44.450   4.303  12.112  0.00  0.00    +0.000 A 
ATOM     10  C   UNL     1      45.292   5.213  11.448  0.00  0.00    +0.000 A 
ATOM     11  C   UNL     1      45.638   4.908  10.116  0.00  0.00    +0.000 A 
ATOM     12  C   UNL     1      45.161   3.755   9.459  0.00  0.00    +0.000 A 
ATOM     13  C   UNL     1      44.335   2.872  10.162  0.00  0.00    +0.000 A 
BRANCH  12  14
ATOM     14  C   UNL     1      45.522   3.468   8.024  0.00  0.00    +0.000 C 
ATOM     15  F   UNL     1      46.049   2.226   7.834  0.00  0.00    +0.000 F 
ATOM     16  F   UNL     1      44.450   3.553   7.190  0.00  0.00    +0.000 F 
ATOM     17  F   UNL     1      46.446   4.342   7.539  0.00  0.00    +0.000 F 
ENDBRANCH  12  14
ENDBRANCH   1  10
BRANCH   5  18
ATOM     18  C   UNL     1      48.622   7.500  14.481  0.00  0.00    +0.000 C 
BRANCH  18  19
ATOM     19  O   UNL     1      48.878   6.137  14.801  0.00  0.00    +0.000 OA
BRANCH  19  20
ATOM     20  C   UNL     1      48.356   5.675  15.979  0.00  0.00    +0.000 A 
ATOM     21  C   UNL     1      47.670   4.474  16.160  0.00  0.00    +0.000 A 
ATOM     22  C   UNL     1      47.192   4.120  17.424  0.00  0.00    +0.000 A 
ATOM     23  C   UNL     1      47.401   4.962  18.516  0.00  0.00    +0.000 A 
ATOM     24  C   UNL     1      48.091   6.172  18.353  0.00  0.00    +0.000 A 
ATOM     25  C   UNL     1      48.555   6.519  17.074  0.00  0.00    +0.000 A 
BRANCH  24  26
ATOM     26  C   UNL     1      48.350   7.089  19.519  0.00  0.00    +0.000 C 
ATOM     27  F   UNL     1      47.330   7.961  19.763  0.00  0.00    +0.000 F 
ATOM     28  F   UNL     1      48.541   6.411  20.684  0.00  0.00    +0.000 F 
ATOM     29  F   UNL     1      49.460   7.858  19.346  0.00  0.00    +0.000 F 
ENDBRANCH  24  26
ENDBRANCH  19  20
ENDBRANCH  18  19
ENDBRANCH   5  18
TORSDOF 6
ENDMDL
MODEL 9
REMARK VINA RESULT:    -7.426      4.635      8.226
REMARK INTER + INTRA:         -10.959
REMARK INTER:                  -9.861
REMARK INTRA:                  -1.098
REMARK UNBOUND:                -0.927
REMARK  Name = 
REMARK  6 active torsions:
REMARK  status: ('A' for Active; 'I' for Inactive)
REMARK    1  A    between atoms: C_4  and  C_5
REMARK    2  A    between atoms: C_9  and  C_10
REMARK    3  A    between atoms: C_10  and  O_11
REMARK    4  A    between atoms: O_11  and  C_12
REMARK    5  A    between atoms: C_16  and  C_17
REMARK    6  A    between atoms: C_24  and  C_25
REMARK                            x       y       z     vdW  Elec       q    Type
REMARK                         _______ _______ _______ _____ _____    ______ ____
ROOT
ATOM      1  C   UNL     1      47.117   6.446  12.460  0.00  0.00    +0.000 A 
ATOM      2  C   UNL     1      47.773   7.296  11.551  0.00  0.00    +0.000 A 
ATOM      3  C   UNL     1      48.918   8.013  11.913  0.00  0.00    +0.000 A 
ATOM      4  C   UNL     1      49.418   7.925  13.209  0.00  0.00    +0.000 A 
ATOM      5  C   UNL     1      48.776   7.119  14.153  0.00  0.00    +0.000 A 
ATOM      6  C   UNL     1      47.658   6.363  13.759  0.00  0.00    +0.000 A 
ENDROOT
BRANCH   1  10
ATOM      7  F   UNL     1      42.587   4.877  13.377  0.00  0.00    +0.000 F 
ATOM      8  C   UNL     1      43.637   4.915  12.546  0.00  0.00    +0.000 A 
ATOM      9  C   UNL     1      44.773   5.631  12.914  0.00  0.00    +0.000 A 
ATOM     10  C   UNL     1      45.900   5.685  12.075  0.00  0.00    +0.000 A 
ATOM     11  C   UNL     1      45.820   4.990  10.851  0.00  0.00    +0.000 A 
ATOM     12  C   UNL     1      44.665   4.281  10.464  0.00  0.00    +0.000 A 
ATOM     13  C   UNL     1      43.571   4.245  11.335  0.00  0.00    +0.000 A 
BRANCH  12  14
ATOM     14  C   UNL     1      44.593   3.570   9.136  0.00  0.00    +0.000 C 
ATOM     15  F   UNL     1      45.814   3.290   8.602  0.00  0.00    +0.000 F 
ATOM     16  F   UNL     1      43.936   2.381   9.217  0.00  0.00    +0.000 F 
ATOM     17  F   UNL     1      43.934   4.300   8.194  0.00  0.00    +0.000 F 
ENDBRANCH  12  14
ENDBRANCH   1  10
BRANCH   5  18
ATOM     18  C   UNL     1      49.274   7.057  15.576  0.00  0.00    +0.000 C 
BRANCH  18  19
ATOM     19  O   UNL     1      48.329   6.345  16.368  0.00  0.00    +0.000 OA
BRANCH  19  20
ATOM     20  C   UNL     1      48.655   5.059  16.703  0.00  0.00    +0.000 A 
ATOM     21  C   UNL     1      47.831   3.940  16.573  0.00  0.00    +0.000 A 
ATOM     22  C   UNL     1      48.295   2.677  16.950  0.00  0.00    +0.000 A 
ATOM     23  C   UNL     1      49.585   2.524  17.456  0.00  0.00    +0.000 A 
ATOM     24  C   UNL     1      50.428   3.636  17.591  0.00  0.00    +0.000 A 
ATOM     25  C   UNL     1      49.944   4.901  17.218  0.00  0.00    +0.000 A 
BRANCH  24  26
ATOM     26  C   UNL     1      51.834   3.495  18.113  0.00  0.00    +0.000 C 
ATOM     27  F   UNL     1      51.978   3.907  19.404  0.00  0.00    +0.000 F 
ATOM     28  F   UNL     1      52.274   2.207  18.084  0.00  0.00    +0.000 F 
ATOM     29  F   UNL     1      52.736   4.216  17.392  0.00  0.00    +0.000 F 
ENDBRANCH  24  26
ENDBRANCH  19  20
ENDBRANCH  18  19
ENDBRANCH   5  18
TORSDOF 6
ENDMDL
