MODEL 1
REMARK VINA RESULT:    -7.362      0.000      0.000
REMARK INTER + INTRA:         -12.032
REMARK INTER:                 -11.235
REMARK INTRA:                  -0.797
REMARK UNBOUND:                -0.797
REMARK  Name = 
REMARK  10 active torsions:
REMARK  status: ('A' for Active; 'I' for Inactive)
REMARK    1  A    between atoms: C_1  and  C_2
REMARK    2  A    between atoms: C_2  and  C_3
REMARK    3  A    between atoms: C_2  and  N_10
REMARK    4  A    between atoms: C_3  and  C_4
REMARK    5  A    between atoms: N_10  and  C_11
REMARK    6  A    between atoms: C_11  and  C_12
REMARK    7  A    between atoms: C_15  and  C_16
REMARK    8  A    between atoms: C_16  and  N_17
REMARK    9  A    between atoms: N_17  and  C_18
REMARK   10  A    between atoms: C_18  and  C_19
REMARK                            x       y       z     vdW  Elec       q    Type
REMARK                         _______ _______ _______ _____ _____    ______ ____
ROOT
ATOM      1  C   UNL     1      45.958   6.257  12.294  0.00  0.00    +0.000 A 
ATOM      2  C   UNL     1      46.948   7.248  12.334  0.00  0.00    +0.000 A 
ATOM      3  C   UNL     1      47.910   7.249  13.343  0.00  0.00    +0.000 A 
ATOM      4  C   UNL     1      47.888   6.277  14.353  0.00  0.00    +0.000 A 
ATOM      5  C   UNL     1      46.908   5.279  14.308  0.00  0.00    +0.000 A 
ATOM      6  C   UNL     1      45.955   5.268  13.287  0.00  0.00    +0.000 A 
ENDROOT
BRANCH   1   7
ATOM      7  C   UNL     1      44.894   6.270  11.220  0.00  0.00    +0.000 C 
BRANCH   7   8
ATOM      8  N   UNL     1      45.362   5.602  10.008  0.00  0.00    +0.000 NA
ATOM      9  H   UNL     1      45.055   6.136   9.197  0.00  0.00    +0.000 HD
BRANCH   8  11
ATOM     10  C   UNL     1      43.583   4.114  10.620  0.00  0.00    +0.000 C 
ATOM     11  C   UNL     1      44.916   4.206   9.864  0.00  0.00    +0.000 C 
BRANCH  11  12
ATOM     12  C   UNL     1      44.767   3.803   8.378  0.00  0.00    +0.000 C 
BRANCH  12  13
ATOM     13  C   UNL     1      45.849   2.912   7.821  0.00  0.00    +0.000 A 
ATOM     14  C   UNL     1      46.824   3.448   6.976  0.00  0.00    +0.000 A 
ATOM     15  C   UNL     1      47.834   2.618   6.510  0.00  0.00    +0.000 A 
ATOM     16  N   UNL     1      47.936   1.312   6.829  0.00  0.00    +0.000 NA
ATOM     17  C   UNL     1      46.989   0.814   7.652  0.00  0.00    +0.000 A 
ATOM     18  C   UNL     1      45.941   1.563   8.170  0.00  0.00    +0.000 A 
ENDBRANCH  12  13
ENDBRANCH  11  12
ENDBRANCH   8  11
ENDBRANCH   7   8
ENDBRANCH   1   7
BRANCH   4  19
ATOM     19  C   UNL     1      48.896   6.328  15.475  0.00  0.00    +0.000 C 
BRANCH  19  20
ATOM     20  N   UNL     1      48.228   6.134  16.759  0.00  0.00    +0.000 NA
ATOM     21  H   UNL     1      47.463   5.470  16.629  0.00  0.00    +0.000 HD
BRANCH  20  22
ATOM     22  C   UNL     1      49.146   5.594  17.765  0.00  0.00    +0.000 C 
BRANCH  22  23
ATOM     23  C   UNL     1      49.601   4.194  17.405  0.00  0.00    +0.000 A 
ATOM     24  C   UNL     1      50.896   3.787  17.676  0.00  0.00    +0.000 A 
ATOM     25  C   UNL     1      51.214   2.492  17.337  0.00  0.00    +0.000 A 
ATOM     26  N   UNL     1      50.345   1.640  16.764  0.00  0.00    +0.000 NA
ATOM     27  C   UNL     1      49.116   2.129  16.543  0.00  0.00    +0.000 A 
ATOM     28  N   UNL     1      48.692   3.369  16.836  0.00  0.00    +0.000 NA
ENDBRANCH  22  23
ENDBRANCH  20  22
ENDBRANCH  19  20
ENDBRANCH   4  19
TORSDOF 9
ENDMDL
MODEL 2
REMARK VINA RESULT:    -7.296      1.375      8.380
REMARK INTER + INTRA:         -11.932
REMARK INTER:                 -10.803
REMARK INTRA:                  -1.130
REMARK UNBOUND:                -0.797
REMARK  Name = 
REMARK  10 active torsions:
REMARK  status: ('A' for Active; 'I' for Inactive)
REMARK    1  A    between atoms: C_1  and  C_2
REMARK    2  A    between atoms: C_2  and  C_3
REMARK    3  A    between atoms: C_2  and  N_10
REMARK    4  A    between atoms: C_3  and  C_4
REMARK    5  A    between atoms: N_10  and  C_11
REMARK    6  A    between atoms: C_11  and  C_12
REMARK    7  A    between atoms: C_15  and  C_16
REMARK    8  A    between atoms: C_16  and  N_17
REMARK    9  A    between atoms: N_17  and  C_18
REMARK   10  A    between atoms: C_18  and  C_19
REMARK                            x       y       z     vdW  Elec       q    Type
REMARK                         _______ _______ _______ _____ _____    ______ ____
ROOT
ATOM      1  C   UNL     1      47.179   6.204  12.886  0.00  0.00    +0.000 A 
ATOM      2  C   UNL     1      46.738   5.088  13.610  0.00  0.00    +0.000 A 
ATOM      3  C   UNL     1      45.775   4.233  13.077  0.00  0.00    +0.000 A 
ATOM      4  C   UNL     1      45.208   4.489  11.820  0.00  0.00    +0.000 A 
ATOM      5  C   UNL     1      45.656   5.596  11.090  0.00  0.00    +0.000 A 
ATOM      6  C   UNL     1      46.634   6.443  11.617  0.00  0.00    +0.000 A 
ENDROOT
BRANCH   1   7
ATOM      7  C   UNL     1      48.200   7.152  13.474  0.00  0.00    +0.000 C 
BRANCH   7   8
ATOM      8  N   UNL     1      48.961   6.509  14.542  0.00  0.00    +0.000 NA
ATOM      9  H   UNL     1      48.470   5.666  14.835  0.00  0.00    +0.000 HD
BRANCH   8  11
ATOM     10  C   UNL     1      48.384   8.635  15.492  0.00  0.00    +0.000 C 
ATOM     11  C   UNL     1      49.204   7.358  15.721  0.00  0.00    +0.000 C 
BRANCH  11  12
ATOM     12  C   UNL     1      48.808   6.643  17.034  0.00  0.00    +0.000 C 
BRANCH  12  13
ATOM     13  C   UNL     1      49.065   5.157  17.083  0.00  0.00    +0.000 A 
ATOM     14  C   UNL     1      50.328   4.682  17.443  0.00  0.00    +0.000 A 
ATOM     15  C   UNL     1      50.528   3.311  17.524  0.00  0.00    +0.000 A 
ATOM     16  N   UNL     1      49.566   2.399  17.275  0.00  0.00    +0.000 NA
ATOM     17  C   UNL     1      48.351   2.878  16.936  0.00  0.00    +0.000 A 
ATOM     18  C   UNL     1      48.052   4.229  16.830  0.00  0.00    +0.000 A 
ENDBRANCH  12  13
ENDBRANCH  11  12
ENDBRANCH   8  11
ENDBRANCH   7   8
ENDBRANCH   1   7
BRANCH   4  19
ATOM     19  C   UNL     1      44.121   3.591  11.282  0.00  0.00    +0.000 C 
BRANCH  19  20
ATOM     20  N   UNL     1      44.704   2.539  10.453  0.00  0.00    +0.000 NA
ATOM     21  H   UNL     1      44.232   1.659  10.669  0.00  0.00    +0.000 HD
BRANCH  20  22
ATOM     22  C   UNL     1      44.527   2.823   9.026  0.00  0.00    +0.000 C 
BRANCH  22  23
ATOM     23  C   UNL     1      45.739   2.397   8.222  0.00  0.00    +0.000 A 
ATOM     24  C   UNL     1      46.466   3.331   7.504  0.00  0.00    +0.000 A 
ATOM     25  C   UNL     1      47.564   2.858   6.823  0.00  0.00    +0.000 A 
ATOM     26  N   UNL     1      47.939   1.567   6.823  0.00  0.00    +0.000 NA
ATOM     27  C   UNL     1      47.170   0.742   7.550  0.00  0.00    +0.000 A 
ATOM     28  N   UNL     1      46.083   1.089   8.256  0.00  0.00    +0.000 NA
ENDBRANCH  22  23
ENDBRANCH  20  22
ENDBRANCH  19  20
ENDBRANCH   4  19
TORSDOF 9
ENDMDL
MODEL 3
REMARK VINA RESULT:    -7.254      1.225      8.660
REMARK INTER + INTRA:         -11.867
REMARK INTER:                 -10.982
REMARK INTRA:                  -0.885
REMARK UNBOUND:                -0.797
REMARK  Name = 
REMARK  10 active torsions:
REMARK  status: ('A' for Active; 'I' for Inactive)
REMARK    1  A    between atoms: C_1  and  C_2
REMARK    2  A    between atoms: C_2  and  C_3
REMARK    3  A    between atoms: C_2  and  N_10
REMARK    4  A    between atoms: C_3  and  C_4
REMARK    5  A    between atoms: N_10  and  C_11
REMARK    6  A    between atoms: C_11  and  C_12
REMARK    7  A    between atoms: C_15  and  C_16
REMARK    8  A    between atoms: C_16  and  N_17
REMARK    9  A    between atoms: N_17  and  C_18
REMARK   10  A    between atoms: C_18  and  C_19
REMARK                            x       y       z     vdW  Elec       q    Type
REMARK                         _______ _______ _______ _____ _____    ______ ____
ROOT
ATOM      1  C   UNL     1      46.885   5.932  13.050  0.00  0.00    +0.000 A 
ATOM      2  C   UNL     1      45.883   5.053  13.480  0.00  0.00    +0.000 A 
ATOM      3  C   UNL     1      44.847   4.685  12.623  0.00  0.00    +0.000 A 
ATOM      4  C   UNL     1      44.774   5.208  11.324  0.00  0.00    +0.000 A 
ATOM      5  C   UNL     1      45.781   6.076  10.888  0.00  0.00    +0.000 A 
ATOM      6  C   UNL     1      46.828   6.432  11.742  0.00  0.00    +0.000 A 
ENDROOT
BRANCH   1   7
ATOM      7  C   UNL     1      47.993   6.360  13.987  0.00  0.00    +0.000 C 
BRANCH   7   8
ATOM      8  N   UNL     1      47.687   5.988  15.366  0.00  0.00    +0.000 NA
ATOM      9  H   UNL     1      47.039   6.671  15.756  0.00  0.00    +0.000 HD
BRANCH   8  11
ATOM     10  C   UNL     1      48.972   7.235  16.963  0.00  0.00    +0.000 C 
ATOM     11  C   UNL     1      48.861   5.880  16.249  0.00  0.00    +0.000 C 
BRANCH  11  12
ATOM     12  C   UNL     1      48.721   4.708  17.248  0.00  0.00    +0.000 C 
BRANCH  12  13
ATOM     13  C   UNL     1      49.925   3.812  17.393  0.00  0.00    +0.000 A 
ATOM     14  C   UNL     1      51.130   4.338  17.863  0.00  0.00    +0.000 A 
ATOM     15  C   UNL     1      52.212   3.485  18.029  0.00  0.00    +0.000 A 
ATOM     16  N   UNL     1      52.170   2.163  17.763  0.00  0.00    +0.000 NA
ATOM     17  C   UNL     1      50.995   1.672  17.316  0.00  0.00    +0.000 A 
ATOM     18  C   UNL     1      49.858   2.444  17.119  0.00  0.00    +0.000 A 
ENDBRANCH  12  13
ENDBRANCH  11  12
ENDBRANCH   8  11
ENDBRANCH   7   8
ENDBRANCH   1   7
BRANCH   4  19
ATOM     19  C   UNL     1      43.613   4.851  10.428  0.00  0.00    +0.000 C 
BRANCH  19  20
ATOM     20  N   UNL     1      44.104   4.302   9.166  0.00  0.00    +0.000 NA
ATOM     21  H   UNL     1      44.967   4.788   8.917  0.00  0.00    +0.000 HD
BRANCH  20  22
ATOM     22  C   UNL     1      44.394   2.870   9.282  0.00  0.00    +0.000 C 
BRANCH  22  23
ATOM     23  C   UNL     1      45.560   2.468   8.401  0.00  0.00    +0.000 A 
ATOM     24  C   UNL     1      46.238   3.420   7.659  0.00  0.00    +0.000 A 
ATOM     25  C   UNL     1      47.298   2.969   6.908  0.00  0.00    +0.000 A 
ATOM     26  N   UNL     1      47.681   1.680   6.862  0.00  0.00    +0.000 NA
ATOM     27  C   UNL     1      46.960   0.837   7.616  0.00  0.00    +0.000 A 
ATOM     28  N   UNL     1      45.914   1.163   8.391  0.00  0.00    +0.000 NA
ENDBRANCH  22  23
ENDBRANCH  20  22
ENDBRANCH  19  20
ENDBRANCH   4  19
TORSDOF 9
ENDMDL
MODEL 4
REMARK VINA RESULT:    -7.163      3.719      7.299
REMARK INTER + INTRA:         -11.729
REMARK INTER:                 -10.774
REMARK INTRA:                  -0.955
REMARK UNBOUND:                -0.797
REMARK  Name = 
REMARK  10 active torsions:
REMARK  status: ('A' for Active; 'I' for Inactive)
REMARK    1  A    between atoms: C_1  and  C_2
REMARK    2  A    between atoms: C_2  and  C_3
REMARK    3  A    between atoms: C_2  and  N_10
REMARK    4  A    between atoms: C_3  and  C_4
REMARK    5  A    between atoms: N_10  and  C_11
REMARK    6  A    between atoms: C_11  and  C_12
REMARK    7  A    between atoms: C_15  and  C_16
REMARK    8  A    between atoms: C_16  and  N_17
REMARK    9  A    between atoms: N_17  and  C_18
REMARK   10  A    between atoms: C_18  and  C_19
REMARK                            x       y       z     vdW  Elec       q    Type
REMARK                         _______ _______ _______ _____ _____    ______ ____
ROOT
ATOM      1  C   UNL     1      46.950   1.701   6.488  0.00  0.00    +0.000 A 
ATOM      2  C   UNL     1      46.490   3.018   6.354  0.00  0.00    +0.000 A 
ATOM      3  C   UNL     1      45.683   3.590   7.336  0.00  0.00    +0.000 A 
ATOM      4  C   UNL     1      45.294   2.852   8.463  0.00  0.00    +0.000 A 
ATOM      5  C   UNL     1      45.763   1.541   8.605  0.00  0.00    +0.000 A 
ATOM      6  C   UNL     1      46.585   0.973   7.629  0.00  0.00    +0.000 A 
ENDROOT
BRANCH   1   7
ATOM      7  C   UNL     1      47.798   1.065   5.410  0.00  0.00    +0.000 C 
BRANCH   7   8
ATOM      8  N   UNL     1      47.255   1.341   4.083  0.00  0.00    +0.000 NA
ATOM      9  H   UNL     1      46.684   2.183   4.128  0.00  0.00    +0.000 HD
BRANCH   8  11
ATOM     10  C   UNL     1      45.388   0.925   2.636  0.00  0.00    +0.000 C 
ATOM     11  C   UNL     1      46.455   0.247   3.506  0.00  0.00    +0.000 C 
BRANCH  11  12
ATOM     12  C   UNL     1      47.330  -0.734   2.691  0.00  0.00    +0.000 C 
BRANCH  12  13
ATOM     13  C   UNL     1      47.304  -2.174   3.138  0.00  0.00    +0.000 A 
ATOM     14  C   UNL     1      48.104  -3.118   2.487  0.00  0.00    +0.000 A 
ATOM     15  C   UNL     1      48.096  -4.428   2.944  0.00  0.00    +0.000 A 
ATOM     16  N   UNL     1      47.358  -4.851   3.991  0.00  0.00    +0.000 NA
ATOM     17  C   UNL     1      46.598  -3.924   4.610  0.00  0.00    +0.000 A 
ATOM     18  C   UNL     1      46.539  -2.590   4.229  0.00  0.00    +0.000 A 
ENDBRANCH  12  13
ENDBRANCH  11  12
ENDBRANCH   8  11
ENDBRANCH   7   8
ENDBRANCH   1   7
BRANCH   4  19
ATOM     19  C   UNL     1      44.369   3.463   9.487  0.00  0.00    +0.000 C 
BRANCH  19  20
ATOM     20  N   UNL     1      44.019   2.471  10.501  0.00  0.00    +0.000 NA
ATOM     21  H   UNL     1      44.853   1.921  10.717  0.00  0.00    +0.000 HD
BRANCH  20  22
ATOM     22  C   UNL     1      43.553   3.110  11.735  0.00  0.00    +0.000 C 
BRANCH  22  23
ATOM     23  C   UNL     1      44.676   3.846  12.437  0.00  0.00    +0.000 A 
ATOM     24  C   UNL     1      44.605   5.216  12.624  0.00  0.00    +0.000 A 
ATOM     25  C   UNL     1      45.658   5.797  13.292  0.00  0.00    +0.000 A 
ATOM     26  N   UNL     1      46.719   5.109  13.747  0.00  0.00    +0.000 NA
ATOM     27  C   UNL     1      46.693   3.787  13.516  0.00  0.00    +0.000 A 
ATOM     28  N   UNL     1      45.721   3.112  12.883  0.00  0.00    +0.000 NA
ENDBRANCH  22  23
ENDBRANCH  20  22
ENDBRANCH  19  20
ENDBRANCH   4  19
TORSDOF 9
ENDMDL
MODEL 5
REMARK VINA RESULT:    -7.144      1.309      8.378
REMARK INTER + INTRA:         -11.701
REMARK INTER:                 -10.519
REMARK INTRA:                  -1.181
REMARK UNBOUND:                -0.797
REMARK  Name = 
REMARK  10 active torsions:
REMARK  status: ('A' for Active; 'I' for Inactive)
REMARK    1  A    between atoms: C_1  and  C_2
REMARK    2  A    between atoms: C_2  and  C_3
REMARK    3  A    between atoms: C_2  and  N_10
REMARK    4  A    between atoms: C_3  and  C_4
REMARK    5  A    between atoms: N_10  and  C_11
REMARK    6  A    between atoms: C_11  and  C_12
REMARK    7  A    between atoms: C_15  and  C_16
REMARK    8  A    between atoms: C_16  and  N_17
REMARK    9  A    between atoms: N_17  and  C_18
REMARK   10  A    between atoms: C_18  and  C_19
REMARK                            x       y       z     vdW  Elec       q    Type
REMARK                         _______ _______ _______ _____ _____    ______ ____
ROOT
ATOM      1  C   UNL     1      47.087   6.214  12.779  0.00  0.00    +0.000 A 
ATOM      2  C   UNL     1      46.637   6.496  11.482  0.00  0.00    +0.000 A 
ATOM      3  C   UNL     1      45.612   5.745  10.909  0.00  0.00    +0.000 A 
ATOM      4  C   UNL     1      45.031   4.677  11.607  0.00  0.00    +0.000 A 
ATOM      5  C   UNL     1      45.469   4.402  12.908  0.00  0.00    +0.000 A 
ATOM      6  C   UNL     1      46.485   5.166  13.489  0.00  0.00    +0.000 A 
ENDROOT
BRANCH   1   7
ATOM      7  C   UNL     1      48.220   7.005  13.393  0.00  0.00    +0.000 C 
BRANCH   7   8
ATOM      8  N   UNL     1      47.880   7.449  14.743  0.00  0.00    +0.000 NA
ATOM      9  H   UNL     1      47.606   8.429  14.708  0.00  0.00    +0.000 HD
BRANCH   8  11
ATOM     10  C   UNL     1      49.409   8.707  16.098  0.00  0.00    +0.000 C 
ATOM     11  C   UNL     1      48.958   7.285  15.734  0.00  0.00    +0.000 C 
BRANCH  11  12
ATOM     12  C   UNL     1      48.480   6.493  16.973  0.00  0.00    +0.000 C 
BRANCH  12  13
ATOM     13  C   UNL     1      48.912   5.050  17.045  0.00  0.00    +0.000 A 
ATOM     14  C   UNL     1      48.021   4.039  16.678  0.00  0.00    +0.000 A 
ATOM     15  C   UNL     1      48.455   2.722  16.711  0.00  0.00    +0.000 A 
ATOM     16  N   UNL     1      49.699   2.353  17.079  0.00  0.00    +0.000 NA
ATOM     17  C   UNL     1      50.547   3.344  17.424  0.00  0.00    +0.000 A 
ATOM     18  C   UNL     1      50.208   4.690  17.422  0.00  0.00    +0.000 A 
ENDBRANCH  12  13
ENDBRANCH  11  12
ENDBRANCH   8  11
ENDBRANCH   7   8
ENDBRANCH   1   7
BRANCH   4  19
ATOM     19  C   UNL     1      43.966   3.833  10.951  0.00  0.00    +0.000 C 
BRANCH  19  20
ATOM     20  N   UNL     1      44.271   3.656   9.532  0.00  0.00    +0.000 NA
ATOM     21  H   UNL     1      45.095   4.215   9.307  0.00  0.00    +0.000 HD
BRANCH  20  22
ATOM     22  C   UNL     1      44.560   2.255   9.218  0.00  0.00    +0.000 C 
BRANCH  22  23
ATOM     23  C   UNL     1      45.766   2.128   8.309  0.00  0.00    +0.000 A 
ATOM     24  C   UNL     1      46.302   3.248   7.698  0.00  0.00    +0.000 A 
ATOM     25  C   UNL     1      47.411   3.043   6.910  0.00  0.00    +0.000 A 
ATOM     26  N   UNL     1      47.969   1.835   6.712  0.00  0.00    +0.000 NA
ATOM     27  C   UNL     1      47.376   0.814   7.349  0.00  0.00    +0.000 A 
ATOM     28  N   UNL     1      46.298   0.895   8.145  0.00  0.00    +0.000 NA
ENDBRANCH  22  23
ENDBRANCH  20  22
ENDBRANCH  19  20
ENDBRANCH   4  19
TORSDOF 9
ENDMDL
MODEL 6
REMARK VINA RESULT:    -7.133      3.187      8.249
REMARK INTER + INTRA:         -11.683
REMARK INTER:                 -10.328
REMARK INTRA:                  -1.355
REMARK UNBOUND:                -0.797
REMARK  Name = 
REMARK  10 active torsions:
REMARK  status: ('A' for Active; 'I' for Inactive)
REMARK    1  A    between atoms: C_1  and  C_2
REMARK    2  A    between atoms: C_2  and  C_3
REMARK    3  A    between atoms: C_2  and  N_10
REMARK    4  A    between atoms: C_3  and  C_4
REMARK    5  A    between atoms: N_10  and  C_11
REMARK    6  A    between atoms: C_11  and  C_12
REMARK    7  A    between atoms: C_15  and  C_16
REMARK    8  A    between atoms: C_16  and  N_17
REMARK    9  A    between atoms: N_17  and  C_18
REMARK   10  A    between atoms: C_18  and  C_19
REMARK                            x       y       z     vdW  Elec       q    Type
REMARK                         _______ _______ _______ _____ _____    ______ ____
ROOT
ATOM      1  C   UNL     1      46.632   5.835  12.980  0.00  0.00    +0.000 A 
ATOM      2  C   UNL     1      46.473   6.079  11.609  0.00  0.00    +0.000 A 
ATOM      3  C   UNL     1      45.468   5.438  10.887  0.00  0.00    +0.000 A 
ATOM      4  C   UNL     1      44.615   4.517  11.512  0.00  0.00    +0.000 A 
ATOM      5  C   UNL     1      44.764   4.281  12.883  0.00  0.00    +0.000 A 
ATOM      6  C   UNL     1      45.761   4.936  13.610  0.00  0.00    +0.000 A 
ENDROOT
BRANCH   1   7
ATOM      7  C   UNL     1      47.742   6.504  13.760  0.00  0.00    +0.000 C 
BRANCH   7   8
ATOM      8  N   UNL     1      47.398   7.886  14.083  0.00  0.00    +0.000 NA
ATOM      9  H   UNL     1      46.460   8.082  13.738  0.00  0.00    +0.000 HD
BRANCH   8  11
ATOM     10  C   UNL     1      49.724   8.257  13.626  0.00  0.00    +0.000 C 
ATOM     11  C   UNL     1      48.329   8.893  13.544  0.00  0.00    +0.000 C 
BRANCH  11  12
ATOM     12  C   UNL     1      47.961   9.297  12.097  0.00  0.00    +0.000 C 
BRANCH  12  13
ATOM     13  C   UNL     1      46.732  10.158  11.941  0.00  0.00    +0.000 A 
ATOM     14  C   UNL     1      45.468   9.564  11.899  0.00  0.00    +0.000 A 
ATOM     15  C   UNL     1      44.350  10.379  11.799  0.00  0.00    +0.000 A 
ATOM     16  N   UNL     1      44.408  11.725  11.740  0.00  0.00    +0.000 NA
ATOM     17  C   UNL     1      45.637  12.281  11.788  0.00  0.00    +0.000 A 
ATOM     18  C   UNL     1      46.814  11.551  11.890  0.00  0.00    +0.000 A 
ENDBRANCH  12  13
ENDBRANCH  11  12
ENDBRANCH   8  11
ENDBRANCH   7   8
ENDBRANCH   1   7
BRANCH   4  19
ATOM     19  C   UNL     1      43.572   3.783  10.705  0.00  0.00    +0.000 C 
BRANCH  19  20
ATOM     20  N   UNL     1      44.091   3.479   9.373  0.00  0.00    +0.000 NA
ATOM     21  H   UNL     1      44.839   4.141   9.159  0.00  0.00    +0.000 HD
BRANCH  20  22
ATOM     22  C   UNL     1      44.640   2.122   9.309  0.00  0.00    +0.000 C 
BRANCH  22  23
ATOM     23  C   UNL     1      45.810   2.043   8.348  0.00  0.00    +0.000 A 
ATOM     24  C   UNL     1      46.308   3.190   7.755  0.00  0.00    +0.000 A 
ATOM     25  C   UNL     1      47.386   3.026   6.916  0.00  0.00    +0.000 A 
ATOM     26  N   UNL     1      47.948   1.833   6.654  0.00  0.00    +0.000 NA
ATOM     27  C   UNL     1      47.393   0.783   7.278  0.00  0.00    +0.000 A 
ATOM     28  N   UNL     1      46.347   0.823   8.119  0.00  0.00    +0.000 NA
ENDBRANCH  22  23
ENDBRANCH  20  22
ENDBRANCH  19  20
ENDBRANCH   4  19
TORSDOF 9
ENDMDL
MODEL 7
REMARK VINA RESULT:    -6.941      1.665      8.150
REMARK INTER + INTRA:         -11.390
REMARK INTER:                  -9.939
REMARK INTRA:                  -1.452
REMARK UNBOUND:                -0.797
REMARK  Name = 
REMARK  10 active torsions:
REMARK  status: ('A' for Active; 'I' for Inactive)
REMARK    1  A    between atoms: C_1  and  C_2
REMARK    2  A    between atoms: C_2  and  C_3
REMARK    3  A    between atoms: C_2  and  N_10
REMARK    4  A    between atoms: C_3  and  C_4
REMARK    5  A    between atoms: N_10  and  C_11
REMARK    6  A    between atoms: C_11  and  C_12
REMARK    7  A    between atoms: C_15  and  C_16
REMARK    8  A    between atoms: C_16  and  N_17
REMARK    9  A    between atoms: N_17  and  C_18
REMARK   10  A    between atoms: C_18  and  C_19
REMARK                            x       y       z     vdW  Elec       q    Type
REMARK                         _______ _______ _______ _____ _____    ______ ____
ROOT
ATOM      1  C   UNL     1      47.078   6.432  13.079  0.00  0.00    +0.000 A 
ATOM      2  C   UNL     1      47.002   5.074  13.416  0.00  0.00    +0.000 A 
ATOM      3  C   UNL     1      45.786   4.395  13.353  0.00  0.00    +0.000 A 
ATOM      4  C   UNL     1      44.612   5.064  12.979  0.00  0.00    +0.000 A 
ATOM      5  C   UNL     1      44.688   6.417  12.629  0.00  0.00    +0.000 A 
ATOM      6  C   UNL     1      45.910   7.093  12.676  0.00  0.00    +0.000 A 
ENDROOT
BRANCH   1   7
ATOM      7  C   UNL     1      48.389   7.180  13.176  0.00  0.00    +0.000 C 
BRANCH   7   8
ATOM      8  N   UNL     1      49.292   6.537  14.127  0.00  0.00    +0.000 NA
ATOM      9  H   UNL     1      48.866   5.671  14.453  0.00  0.00    +0.000 HD
BRANCH   8  11
ATOM     10  C   UNL     1      49.325   8.810  14.891  0.00  0.00    +0.000 C 
ATOM     11  C   UNL     1      49.652   7.364  15.291  0.00  0.00    +0.000 C 
BRANCH  11  12
ATOM     12  C   UNL     1      48.888   6.928  16.562  0.00  0.00    +0.000 C 
BRANCH  12  13
ATOM     13  C   UNL     1      48.946   5.459  16.900  0.00  0.00    +0.000 A 
ATOM     14  C   UNL     1      50.148   4.892  17.331  0.00  0.00    +0.000 A 
ATOM     15  C   UNL     1      50.167   3.548  17.677  0.00  0.00    +0.000 A 
ATOM     16  N   UNL     1      49.083   2.747  17.623  0.00  0.00    +0.000 NA
ATOM     17  C   UNL     1      47.930   3.314  17.211  0.00  0.00    +0.000 A 
ATOM     18  C   UNL     1      47.810   4.648  16.845  0.00  0.00    +0.000 A 
ENDBRANCH  12  13
ENDBRANCH  11  12
ENDBRANCH   8  11
ENDBRANCH   7   8
ENDBRANCH   1   7
BRANCH   4  19
ATOM     19  C   UNL     1      43.292   4.333  12.976  0.00  0.00    +0.000 C 
BRANCH  19  20
ATOM     20  N   UNL     1      42.896   4.018  11.606  0.00  0.00    +0.000 NA
ATOM     21  H   UNL     1      43.200   4.780  10.998  0.00  0.00    +0.000 HD
BRANCH  20  22
ATOM     22  C   UNL     1      43.520   2.777  11.140  0.00  0.00    +0.000 C 
BRANCH  22  23
ATOM     23  C   UNL     1      44.438   3.026   9.961  0.00  0.00    +0.000 A 
ATOM     24  C   UNL     1      44.966   1.963   9.247  0.00  0.00    +0.000 A 
ATOM     25  C   UNL     1      45.770   2.284   8.178  0.00  0.00    +0.000 A 
ATOM     26  N   UNL     1      46.058   3.547   7.818  0.00  0.00    +0.000 NA
ATOM     27  C   UNL     1      45.499   4.505   8.572  0.00  0.00    +0.000 A 
ATOM     28  N   UNL     1      44.696   4.312   9.631  0.00  0.00    +0.000 NA
ENDBRANCH  22  23
ENDBRANCH  20  22
ENDBRANCH  19  20
ENDBRANCH   4  19
TORSDOF 9
ENDMDL
MODEL 8
REMARK VINA RESULT:    -6.424      2.053      2.647
REMARK INTER + INTRA:         -10.601
REMARK INTER:                  -9.953
REMARK INTRA:                  -0.648
REMARK UNBOUND:                -0.797
REMARK  Name = 
REMARK  10 active torsions:
REMARK  status: ('A' for Active; 'I' for Inactive)
REMARK    1  A    between atoms: C_1  and  C_2
REMARK    2  A    between atoms: C_2  and  C_3
REMARK    3  A    between atoms: C_2  and  N_10
REMARK    4  A    between atoms: C_3  and  C_4
REMARK    5  A    between atoms: N_10  and  C_11
REMARK    6  A    between atoms: C_11  and  C_12
REMARK    7  A    between atoms: C_15  and  C_16
REMARK    8  A    between atoms: C_16  and  N_17
REMARK    9  A    between atoms: N_17  and  C_18
REMARK   10  A    between atoms: C_18  and  C_19
REMARK                            x       y       z     vdW  Elec       q    Type
REMARK                         _______ _______ _______ _____ _____    ______ ____
ROOT
ATOM      1  C   UNL     1      44.923   5.771  12.117  0.00  0.00    +0.000 A 
ATOM      2  C   UNL     1      45.632   6.919  11.738  0.00  0.00    +0.000 A 
ATOM      3  C   UNL     1      46.845   7.236  12.346  0.00  0.00    +0.000 A 
ATOM      4  C   UNL     1      47.366   6.429  13.368  0.00  0.00    +0.000 A 
ATOM      5  C   UNL     1      46.666   5.275  13.739  0.00  0.00    +0.000 A 
ATOM      6  C   UNL     1      45.459   4.948  13.117  0.00  0.00    +0.000 A 
ENDROOT
BRANCH   1   7
ATOM      7  C   UNL     1      43.591   5.439  11.482  0.00  0.00    +0.000 C 
BRANCH   7   8
ATOM      8  N   UNL     1      43.745   5.151  10.059  0.00  0.00    +0.000 NA
ATOM      9  H   UNL     1      42.822   5.027   9.646  0.00  0.00    +0.000 HD
BRANCH   8  11
ATOM     10  C   UNL     1      43.911   2.798  10.495  0.00  0.00    +0.000 C 
ATOM     11  C   UNL     1      44.571   3.971   9.756  0.00  0.00    +0.000 C 
BRANCH  11  12
ATOM     12  C   UNL     1      44.669   3.715   8.233  0.00  0.00    +0.000 C 
BRANCH  12  13
ATOM     13  C   UNL     1      45.870   2.932   7.767  0.00  0.00    +0.000 A 
ATOM     14  C   UNL     1      45.995   1.582   8.108  0.00  0.00    +0.000 A 
ATOM     15  C   UNL     1      47.087   0.871   7.631  0.00  0.00    +0.000 A 
ATOM     16  N   UNL     1      48.046   1.409   6.850  0.00  0.00    +0.000 NA
ATOM     17  C   UNL     1      47.905   2.711   6.527  0.00  0.00    +0.000 A 
ATOM     18  C   UNL     1      46.849   3.505   6.952  0.00  0.00    +0.000 A 
ENDBRANCH  12  13
ENDBRANCH  11  12
ENDBRANCH   8  11
ENDBRANCH   7   8
ENDBRANCH   1   7
BRANCH   4  19
ATOM     19  C   UNL     1      48.648   6.819  14.061  0.00  0.00    +0.000 C 
BRANCH  19  20
ATOM     20  N   UNL     1      48.387   7.114  15.468  0.00  0.00    +0.000 NA
ATOM     21  H   UNL     1      47.376   7.131  15.613  0.00  0.00    +0.000 HD
BRANCH  20  22
ATOM     22  C   UNL     1      48.964   6.092  16.346  0.00  0.00    +0.000 C 
BRANCH  22  23
ATOM     23  C   UNL     1      50.206   6.603  17.049  0.00  0.00    +0.000 A 
ATOM     24  C   UNL     1      51.464   6.232  16.605  0.00  0.00    +0.000 A 
ATOM     25  C   UNL     1      52.534   6.762  17.289  0.00  0.00    +0.000 A 
ATOM     26  N   UNL     1      52.407   7.590  18.340  0.00  0.00    +0.000 NA
ATOM     27  C   UNL     1      51.147   7.889  18.692  0.00  0.00    +0.000 A 
ATOM     28  N   UNL     1      50.030   7.438  18.098  0.00  0.00    +0.000 NA
ENDBRANCH  22  23
ENDBRANCH  20  22
ENDBRANCH  19  20
ENDBRANCH   4  19
TORSDOF 9
ENDMDL
MODEL 9
REMARK VINA RESULT:    -6.256      2.996      4.596
REMARK INTER + INTRA:         -10.345
REMARK INTER:                  -9.497
REMARK INTRA:                  -0.848
REMARK UNBOUND:                -0.797
REMARK  Name = 
REMARK  10 active torsions:
REMARK  status: ('A' for Active; 'I' for Inactive)
REMARK    1  A    between atoms: C_1  and  C_2
REMARK    2  A    between atoms: C_2  and  C_3
REMARK    3  A    between atoms: C_2  and  N_10
REMARK    4  A    between atoms: C_3  and  C_4
REMARK    5  A    between atoms: N_10  and  C_11
REMARK    6  A    between atoms: C_11  and  C_12
REMARK    7  A    between atoms: C_15  and  C_16
REMARK    8  A    between atoms: C_16  and  N_17
REMARK    9  A    between atoms: N_17  and  C_18
REMARK   10  A    between atoms: C_18  and  C_19
REMARK                            x       y       z     vdW  Elec       q    Type
REMARK                         _______ _______ _______ _____ _____    ______ ____
ROOT
ATOM      1  C   UNL     1      45.082   5.933  12.261  0.00  0.00    +0.000 A 
ATOM      2  C   UNL     1      45.730   7.124  11.908  0.00  0.00    +0.000 A 
ATOM      3  C   UNL     1      46.956   7.460  12.479  0.00  0.00    +0.000 A 
ATOM      4  C   UNL     1      47.551   6.628  13.438  0.00  0.00    +0.000 A 
ATOM      5  C   UNL     1      46.912   5.431  13.783  0.00  0.00    +0.000 A 
ATOM      6  C   UNL     1      45.691   5.086  13.197  0.00  0.00    +0.000 A 
ENDROOT
BRANCH   1   7
ATOM      7  C   UNL     1      43.736   5.579  11.668  0.00  0.00    +0.000 C 
BRANCH   7   8
ATOM      8  N   UNL     1      43.853   5.278  10.244  0.00  0.00    +0.000 NA
ATOM      9  H   UNL     1      42.919   5.225   9.840  0.00  0.00    +0.000 HD
BRANCH   8  11
ATOM     10  C   UNL     1      43.844   2.921  10.692  0.00  0.00    +0.000 C 
ATOM     11  C   UNL     1      44.582   4.035   9.936  0.00  0.00    +0.000 C 
BRANCH  11  12
ATOM     12  C   UNL     1      44.636   3.765   8.414  0.00  0.00    +0.000 C 
BRANCH  12  13
ATOM     13  C   UNL     1      45.808   2.951   7.926  0.00  0.00    +0.000 A 
ATOM     14  C   UNL     1      45.872   1.585   8.214  0.00  0.00    +0.000 A 
ATOM     15  C   UNL     1      46.937   0.847   7.717  0.00  0.00    +0.000 A 
ATOM     16  N   UNL     1      47.925   1.374   6.964  0.00  0.00    +0.000 NA
ATOM     17  C   UNL     1      47.842   2.693   6.692  0.00  0.00    +0.000 A 
ATOM     18  C   UNL     1      46.816   3.513   7.141  0.00  0.00    +0.000 A 
ENDBRANCH  12  13
ENDBRANCH  11  12
ENDBRANCH   8  11
ENDBRANCH   7   8
ENDBRANCH   1   7
BRANCH   4  19
ATOM     19  C   UNL     1      48.847   7.035  14.095  0.00  0.00    +0.000 C 
BRANCH  19  20
ATOM     20  N   UNL     1      48.873   8.482  14.298  0.00  0.00    +0.000 NA
ATOM     21  H   UNL     1      48.435   8.690  15.196  0.00  0.00    +0.000 HD
BRANCH  20  22
ATOM     22  C   UNL     1      50.246   8.994  14.320  0.00  0.00    +0.000 C 
BRANCH  22  23
ATOM     23  C   UNL     1      50.723   9.362  12.930  0.00  0.00    +0.000 A 
ATOM     24  C   UNL     1      51.553   8.507  12.226  0.00  0.00    +0.000 A 
ATOM     25  C   UNL     1      51.918   8.911  10.962  0.00  0.00    +0.000 A 
ATOM     26  N   UNL     1      51.518  10.069  10.409  0.00  0.00    +0.000 NA
ATOM     27  C   UNL     1      50.715  10.827  11.172  0.00  0.00    +0.000 A 
ATOM     28  N   UNL     1      50.291  10.534  12.411  0.00  0.00    +0.000 NA
ENDBRANCH  22  23
ENDBRANCH  20  22
ENDBRANCH  19  20
ENDBRANCH   4  19
TORSDOF 9
ENDMDL
