MODEL 1
REMARK VINA RESULT:    -6.700      0.000      0.000
REMARK INTER + INTRA:         -10.272
REMARK INTER:                  -9.442
REMARK INTRA:                  -0.830
REMARK UNBOUND:                -0.830
REMARK  Name = 
REMARK  10 active torsions:
REMARK  status: ('A' for Active; 'I' for Inactive)
REMARK    1  A    between atoms: C_1  and  O_2
REMARK    2  A    between atoms: O_2  and  C_3
REMARK    3  A    between atoms: C_8  and  C_9
REMARK    4  A    between atoms: N_11  and  C_12
REMARK    5  A    between atoms: C_12  and  C_13
REMARK    6  A    between atoms: C_16  and  C_17
REMARK    7  A    between atoms: C_17  and  S_18
REMARK    8  A    between atoms: S_18  and  C_19
REMARK    9  A    between atoms: C_19  and  C_20
REMARK   10  A    between atoms: C_19  and  C_21
REMARK                            x       y       z     vdW  Elec       q    Type
REMARK                         _______ _______ _______ _____ _____    ______ ____
ROOT
ATOM      1  C   UNL     1      46.194   4.446  13.587  0.00  0.00    +0.000 C 
ATOM      2  O   UNL     1      46.327   3.225  13.566  0.00  0.00    +0.000 OA
ATOM      3  N   UNL     1      45.079   5.069  13.085  0.00  0.00    +0.000 N 
ATOM      4  H   UNL     1      44.977   6.067  13.199  0.00  0.00    +0.000 HD
ENDROOT
BRANCH   1  10
ATOM      5  C   UNL     1      49.773   7.851  14.559  0.00  0.00    +0.000 A 
ATOM      6  N   UNL     1      49.947   8.406  13.340  0.00  0.00    +0.000 NA
ATOM      7  C   UNL     1      49.214   7.942  12.308  0.00  0.00    +0.000 A 
ATOM      8  C   UNL     1      48.264   6.929  12.392  0.00  0.00    +0.000 A 
ATOM      9  C   UNL     1      48.044   6.357  13.659  0.00  0.00    +0.000 A 
ATOM     10  C   UNL     1      47.198   5.318  14.198  0.00  0.00    +0.000 A 
ATOM     11  C   UNL     1      47.526   5.214  15.543  0.00  0.00    +0.000 A 
ATOM     12  N   UNL     1      48.492   6.130  15.839  0.00  0.00    +0.000 N 
ATOM     13  C   UNL     1      48.828   6.840  14.713  0.00  0.00    +0.000 A 
ATOM     14  H   UNL     1      48.919   6.270  16.745  0.00  0.00    +0.000 HD
BRANCH   5  16
ATOM     15  C   UNL     1      51.837   7.697  15.639  0.00  0.00    +0.000 C 
ATOM     16  O   UNL     1      50.529   8.261  15.639  0.00  0.00    +0.000 OA
ENDBRANCH   5  16
ENDBRANCH   1  10
BRANCH   3  17
ATOM     17  C   UNL     1      43.999   4.328  12.461  0.00  0.00    +0.000 C 
BRANCH  17  18
ATOM     18  C   UNL     1      44.325   4.047  11.024  0.00  0.00    +0.000 A 
ATOM     19  C   UNL     1      44.048   2.798  10.464  0.00  0.00    +0.000 A 
ATOM     20  C   UNL     1      44.421   2.525   9.155  0.00  0.00    +0.000 A 
ATOM     21  C   UNL     1      45.049   3.521   8.408  0.00  0.00    +0.000 A 
ATOM     22  N   UNL     1      45.289   4.757   8.919  0.00  0.00    +0.000 NA
ATOM     23  C   UNL     1      44.920   4.995  10.199  0.00  0.00    +0.000 A 
BRANCH  21  24
ATOM     24  C   UNL     1      45.581   3.234   7.025  0.00  0.00    +0.000 C 
BRANCH  24  25
ATOM     25  S   UNL     1      47.393   3.200   6.863  0.00  0.00    +0.000 S 
BRANCH  25  26
ATOM     26  C   UNL     1      47.716   1.430   6.493  0.00  0.00    +0.000 C 
ATOM     27  C   UNL     1      46.969   0.482   7.426  0.00  0.00    +0.000 C 
ATOM     28  C   UNL     1      47.262   1.206   5.049  0.00  0.00    +0.000 C 
ENDBRANCH  25  26
ENDBRANCH  24  25
ENDBRANCH  21  24
ENDBRANCH  17  18
ENDBRANCH   3  17
TORSDOF 7
ENDMDL
MODEL 2
REMARK VINA RESULT:    -6.683      1.565      2.623
REMARK INTER + INTRA:         -10.248
REMARK INTER:                  -9.854
REMARK INTRA:                  -0.394
REMARK UNBOUND:                -0.830
REMARK  Name = 
REMARK  10 active torsions:
REMARK  status: ('A' for Active; 'I' for Inactive)
REMARK    1  A    between atoms: C_1  and  O_2
REMARK    2  A    between atoms: O_2  and  C_3
REMARK    3  A    between atoms: C_8  and  C_9
REMARK    4  A    between atoms: N_11  and  C_12
REMARK    5  A    between atoms: C_12  and  C_13
REMARK    6  A    between atoms: C_16  and  C_17
REMARK    7  A    between atoms: C_17  and  S_18
REMARK    8  A    between atoms: S_18  and  C_19
REMARK    9  A    between atoms: C_19  and  C_20
REMARK   10  A    between atoms: C_19  and  C_21
REMARK                            x       y       z     vdW  Elec       q    Type
REMARK                         _______ _______ _______ _____ _____    ______ ____
ROOT
ATOM      1  C   UNL     1      45.932   4.304  13.552  0.00  0.00    +0.000 C 
ATOM      2  O   UNL     1      45.989   3.110  13.270  0.00  0.00    +0.000 OA
ATOM      3  N   UNL     1      44.895   5.103  13.143  0.00  0.00    +0.000 N 
ATOM      4  H   UNL     1      44.849   6.058  13.469  0.00  0.00    +0.000 HD
ENDROOT
BRANCH   1  10
ATOM      5  C   UNL     1      49.160   5.599  17.194  0.00  0.00    +0.000 A 
ATOM      6  N   UNL     1      48.974   4.595  18.079  0.00  0.00    +0.000 NA
ATOM      7  C   UNL     1      48.068   3.639  17.792  0.00  0.00    +0.000 A 
ATOM      8  C   UNL     1      47.300   3.585  16.633  0.00  0.00    +0.000 A 
ATOM      9  C   UNL     1      47.500   4.603  15.682  0.00  0.00    +0.000 A 
ATOM     10  C   UNL     1      46.946   4.943  14.392  0.00  0.00    +0.000 A 
ATOM     11  C   UNL     1      47.557   6.131  14.013  0.00  0.00    +0.000 A 
ATOM     12  N   UNL     1      48.444   6.505  14.979  0.00  0.00    +0.000 N 
ATOM     13  C   UNL     1      48.431   5.596  16.007  0.00  0.00    +0.000 A 
ATOM     14  H   UNL     1      49.024   7.334  14.963  0.00  0.00    +0.000 HD
BRANCH   5  16
ATOM     15  C   UNL     1      49.571   7.508  18.472  0.00  0.00    +0.000 C 
ATOM     16  O   UNL     1      50.044   6.624  17.460  0.00  0.00    +0.000 OA
ENDBRANCH   5  16
ENDBRANCH   1  10
BRANCH   3  17
ATOM     17  C   UNL     1      43.815   4.600  12.316  0.00  0.00    +0.000 C 
BRANCH  17  18
ATOM     18  C   UNL     1      44.334   4.218  10.961  0.00  0.00    +0.000 A 
ATOM     19  C   UNL     1      44.145   2.925  10.468  0.00  0.00    +0.000 A 
ATOM     20  C   UNL     1      44.693   2.561   9.245  0.00  0.00    +0.000 A 
ATOM     21  C   UNL     1      45.408   3.510   8.514  0.00  0.00    +0.000 A 
ATOM     22  N   UNL     1      45.566   4.785   8.956  0.00  0.00    +0.000 NA
ATOM     23  C   UNL     1      45.027   5.111  10.153  0.00  0.00    +0.000 A 
BRANCH  21  24
ATOM     24  C   UNL     1      46.123   3.129   7.241  0.00  0.00    +0.000 C 
BRANCH  24  25
ATOM     25  S   UNL     1      47.059   1.569   7.292  0.00  0.00    +0.000 S 
BRANCH  25  26
ATOM     26  C   UNL     1      47.655   1.418   5.562  0.00  0.00    +0.000 C 
ATOM     27  C   UNL     1      47.110   0.183   4.851  0.00  0.00    +0.000 C 
ATOM     28  C   UNL     1      47.190   2.683   4.838  0.00  0.00    +0.000 C 
ENDBRANCH  25  26
ENDBRANCH  24  25
ENDBRANCH  21  24
ENDBRANCH  17  18
ENDBRANCH   3  17
TORSDOF 7
ENDMDL
MODEL 3
REMARK VINA RESULT:    -6.459      1.954      2.705
REMARK INTER + INTRA:          -9.932
REMARK INTER:                  -9.208
REMARK INTRA:                  -0.725
REMARK UNBOUND:                -0.830
REMARK  Name = 
REMARK  10 active torsions:
REMARK  status: ('A' for Active; 'I' for Inactive)
REMARK    1  A    between atoms: C_1  and  O_2
REMARK    2  A    between atoms: O_2  and  C_3
REMARK    3  A    between atoms: C_8  and  C_9
REMARK    4  A    between atoms: N_11  and  C_12
REMARK    5  A    between atoms: C_12  and  C_13
REMARK    6  A    between atoms: C_16  and  C_17
REMARK    7  A    between atoms: C_17  and  S_18
REMARK    8  A    between atoms: S_18  and  C_19
REMARK    9  A    between atoms: C_19  and  C_20
REMARK   10  A    between atoms: C_19  and  C_21
REMARK                            x       y       z     vdW  Elec       q    Type
REMARK                         _______ _______ _______ _____ _____    ______ ____
ROOT
ATOM      1  C   UNL     1      45.279   5.083  11.594  0.00  0.00    +0.000 C 
ATOM      2  O   UNL     1      44.668   5.949  10.972  0.00  0.00    +0.000 OA
ATOM      3  N   UNL     1      45.195   3.753  11.270  0.00  0.00    +0.000 N 
ATOM      4  H   UNL     1      45.779   3.087  11.756  0.00  0.00    +0.000 HD
ENDROOT
BRANCH   1  10
ATOM      5  C   UNL     1      48.877   6.983  14.560  0.00  0.00    +0.000 A 
ATOM      6  N   UNL     1      49.461   7.873  13.728  0.00  0.00    +0.000 NA
ATOM      7  C   UNL     1      48.992   7.987  12.469  0.00  0.00    +0.000 A 
ATOM      8  C   UNL     1      47.926   7.263  11.944  0.00  0.00    +0.000 A 
ATOM      9  C   UNL     1      47.281   6.353  12.803  0.00  0.00    +0.000 A 
ATOM     10  C   UNL     1      46.182   5.422  12.695  0.00  0.00    +0.000 A 
ATOM     11  C   UNL     1      46.101   4.779  13.923  0.00  0.00    +0.000 A 
ATOM     12  N   UNL     1      47.061   5.278  14.752  0.00  0.00    +0.000 N 
ATOM     13  C   UNL     1      47.796   6.237  14.099  0.00  0.00    +0.000 A 
ATOM     14  H   UNL     1      47.231   4.988  15.706  0.00  0.00    +0.000 HD
BRANCH   5  16
ATOM     15  C   UNL     1      48.795   7.730  16.770  0.00  0.00    +0.000 C 
ATOM     16  O   UNL     1      49.347   6.799  15.844  0.00  0.00    +0.000 OA
ENDBRANCH   5  16
ENDBRANCH   1  10
BRANCH   3  17
ATOM     17  C   UNL     1      44.347   3.274  10.194  0.00  0.00    +0.000 C 
BRANCH  17  18
ATOM     18  C   UNL     1      45.175   2.950   8.986  0.00  0.00    +0.000 A 
ATOM     19  C   UNL     1      45.508   3.945   8.065  0.00  0.00    +0.000 A 
ATOM     20  C   UNL     1      46.211   3.619   6.913  0.00  0.00    +0.000 A 
ATOM     21  C   UNL     1      46.599   2.295   6.709  0.00  0.00    +0.000 A 
ATOM     22  N   UNL     1      46.324   1.319   7.613  0.00  0.00    +0.000 NA
ATOM     23  C   UNL     1      45.632   1.663   8.724  0.00  0.00    +0.000 A 
BRANCH  21  24
ATOM     24  C   UNL     1      47.258   1.872   5.418  0.00  0.00    +0.000 C 
BRANCH  24  25
ATOM     25  S   UNL     1      47.231   0.088   5.061  0.00  0.00    +0.000 S 
BRANCH  25  26
ATOM     26  C   UNL     1      46.881   0.059   3.259  0.00  0.00    +0.000 C 
ATOM     27  C   UNL     1      46.404  -1.304   2.768  0.00  0.00    +0.000 C 
ATOM     28  C   UNL     1      45.794   1.109   3.018  0.00  0.00    +0.000 C 
ENDBRANCH  25  26
ENDBRANCH  24  25
ENDBRANCH  21  24
ENDBRANCH  17  18
ENDBRANCH   3  17
TORSDOF 7
ENDMDL
MODEL 4
REMARK VINA RESULT:    -6.411      1.122      1.437
REMARK INTER + INTRA:          -9.865
REMARK INTER:                  -9.078
REMARK INTRA:                  -0.787
REMARK UNBOUND:                -0.830
REMARK  Name = 
REMARK  10 active torsions:
REMARK  status: ('A' for Active; 'I' for Inactive)
REMARK    1  A    between atoms: C_1  and  O_2
REMARK    2  A    between atoms: O_2  and  C_3
REMARK    3  A    between atoms: C_8  and  C_9
REMARK    4  A    between atoms: N_11  and  C_12
REMARK    5  A    between atoms: C_12  and  C_13
REMARK    6  A    between atoms: C_16  and  C_17
REMARK    7  A    between atoms: C_17  and  S_18
REMARK    8  A    between atoms: S_18  and  C_19
REMARK    9  A    between atoms: C_19  and  C_20
REMARK   10  A    between atoms: C_19  and  C_21
REMARK                            x       y       z     vdW  Elec       q    Type
REMARK                         _______ _______ _______ _____ _____    ______ ____
ROOT
ATOM      1  C   UNL     1      46.893   5.031  14.385  0.00  0.00    +0.000 C 
ATOM      2  O   UNL     1      46.822   3.841  14.681  0.00  0.00    +0.000 OA
ATOM      3  N   UNL     1      45.908   5.669  13.677  0.00  0.00    +0.000 N 
ATOM      4  H   UNL     1      45.971   6.667  13.529  0.00  0.00    +0.000 HD
ENDROOT
BRANCH   1  10
ATOM      5  C   UNL     1      50.798   8.194  14.704  0.00  0.00    +0.000 A 
ATOM      6  N   UNL     1      50.888   8.631  13.429  0.00  0.00    +0.000 NA
ATOM      7  C   UNL     1      50.022   8.146  12.517  0.00  0.00    +0.000 A 
ATOM      8  C   UNL     1      49.012   7.226  12.781  0.00  0.00    +0.000 A 
ATOM      9  C   UNL     1      48.880   6.781  14.110  0.00  0.00    +0.000 A 
ATOM     10  C   UNL     1      48.018   5.863  14.818  0.00  0.00    +0.000 A 
ATOM     11  C   UNL     1      48.472   5.843  16.129  0.00  0.00    +0.000 A 
ATOM     12  N   UNL     1      49.528   6.697  16.249  0.00  0.00    +0.000 N 
ATOM     13  C   UNL     1      49.801   7.282  15.037  0.00  0.00    +0.000 A 
ATOM     14  H   UNL     1      50.054   6.875  17.095  0.00  0.00    +0.000 HD
BRANCH   5  16
ATOM     15  C   UNL     1      51.591  10.026  15.913  0.00  0.00    +0.000 C 
ATOM     16  O   UNL     1      51.688   8.627  15.666  0.00  0.00    +0.000 OA
ENDBRANCH   5  16
ENDBRANCH   1  10
BRANCH   3  17
ATOM     17  C   UNL     1      44.731   4.970  13.194  0.00  0.00    +0.000 C 
BRANCH  17  18
ATOM     18  C   UNL     1      44.942   4.513  11.782  0.00  0.00    +0.000 A 
ATOM     19  C   UNL     1      45.360   5.413  10.799  0.00  0.00    +0.000 A 
ATOM     20  C   UNL     1      45.481   4.996   9.480  0.00  0.00    +0.000 A 
ATOM     21  C   UNL     1      45.204   3.667   9.163  0.00  0.00    +0.000 A 
ATOM     22  N   UNL     1      44.838   2.764  10.110  0.00  0.00    +0.000 NA
ATOM     23  C   UNL     1      44.722   3.199  11.386  0.00  0.00    +0.000 A 
BRANCH  21  24
ATOM     24  C   UNL     1      45.204   3.197   7.728  0.00  0.00    +0.000 C 
BRANCH  24  25
ATOM     25  S   UNL     1      46.740   3.487   6.797  0.00  0.00    +0.000 S 
BRANCH  25  26
ATOM     26  C   UNL     1      47.521   1.825   6.810  0.00  0.00    +0.000 C 
ATOM     27  C   UNL     1      46.801   0.837   7.723  0.00  0.00    +0.000 C 
ATOM     28  C   UNL     1      47.482   1.324   5.365  0.00  0.00    +0.000 C 
ENDBRANCH  25  26
ENDBRANCH  24  25
ENDBRANCH  21  24
ENDBRANCH  17  18
ENDBRANCH   3  17
TORSDOF 7
ENDMDL
MODEL 5
REMARK VINA RESULT:    -6.400      1.265      2.118
REMARK INTER + INTRA:          -9.850
REMARK INTER:                  -9.105
REMARK INTRA:                  -0.744
REMARK UNBOUND:                -0.830
REMARK  Name = 
REMARK  10 active torsions:
REMARK  status: ('A' for Active; 'I' for Inactive)
REMARK    1  A    between atoms: C_1  and  O_2
REMARK    2  A    between atoms: O_2  and  C_3
REMARK    3  A    between atoms: C_8  and  C_9
REMARK    4  A    between atoms: N_11  and  C_12
REMARK    5  A    between atoms: C_12  and  C_13
REMARK    6  A    between atoms: C_16  and  C_17
REMARK    7  A    between atoms: C_17  and  S_18
REMARK    8  A    between atoms: S_18  and  C_19
REMARK    9  A    between atoms: C_19  and  C_20
REMARK   10  A    between atoms: C_19  and  C_21
REMARK                            x       y       z     vdW  Elec       q    Type
REMARK                         _______ _______ _______ _____ _____    ______ ____
ROOT
ATOM      1  C   UNL     1      46.801   5.355  13.988  0.00  0.00    +0.000 C 
ATOM      2  O   UNL     1      46.640   4.179  14.304  0.00  0.00    +0.000 OA
ATOM      3  N   UNL     1      45.827   6.082  13.352  0.00  0.00    +0.000 N 
ATOM      4  H   UNL     1      45.974   7.068  13.186  0.00  0.00    +0.000 HD
ENDROOT
BRANCH   1  10
ATOM      5  C   UNL     1      50.742   7.525  16.249  0.00  0.00    +0.000 A 
ATOM      6  N   UNL     1      50.527   7.182  17.539  0.00  0.00    +0.000 NA
ATOM      7  C   UNL     1      49.435   6.452  17.840  0.00  0.00    +0.000 A 
ATOM      8  C   UNL     1      48.495   5.999  16.920  0.00  0.00    +0.000 A 
ATOM      9  C   UNL     1      48.716   6.318  15.566  0.00  0.00    +0.000 A 
ATOM     10  C   UNL     1      48.032   6.076  14.317  0.00  0.00    +0.000 A 
ATOM     11  C   UNL     1      48.772   6.730  13.341  0.00  0.00    +0.000 A 
ATOM     12  N   UNL     1      49.852   7.324  13.924  0.00  0.00    +0.000 N 
ATOM     13  C   UNL     1      49.845   7.092  15.277  0.00  0.00    +0.000 A 
ATOM     14  H   UNL     1      50.558   7.871  13.447  0.00  0.00    +0.000 HD
BRANCH   5  16
ATOM     15  C   UNL     1      53.020   7.551  15.742  0.00  0.00    +0.000 C 
ATOM     16  O   UNL     1      51.822   8.307  15.895  0.00  0.00    +0.000 OA
ENDBRANCH   5  16
ENDBRANCH   1  10
BRANCH   3  17
ATOM     17  C   UNL     1      44.553   5.499  12.975  0.00  0.00    +0.000 C 
BRANCH  17  18
ATOM     18  C   UNL     1      44.644   4.895  11.605  0.00  0.00    +0.000 A 
ATOM     19  C   UNL     1      44.058   3.657  11.334  0.00  0.00    +0.000 A 
ATOM     20  C   UNL     1      44.212   3.074  10.084  0.00  0.00    +0.000 A 
ATOM     21  C   UNL     1      44.935   3.753   9.104  0.00  0.00    +0.000 A 
ATOM     22  N   UNL     1      45.477   4.978   9.332  0.00  0.00    +0.000 NA
ATOM     23  C   UNL     1      45.317   5.521  10.562  0.00  0.00    +0.000 A 
BRANCH  21  24
ATOM     24  C   UNL     1      45.231   3.108   7.772  0.00  0.00    +0.000 C 
BRANCH  24  25
ATOM     25  S   UNL     1      46.872   3.456   7.069  0.00  0.00    +0.000 S 
BRANCH  25  26
ATOM     26  C   UNL     1      47.568   1.770   6.855  0.00  0.00    +0.000 C 
ATOM     27  C   UNL     1      46.840   0.717   7.684  0.00  0.00    +0.000 C 
ATOM     28  C   UNL     1      47.440   1.440   5.366  0.00  0.00    +0.000 C 
ENDBRANCH  25  26
ENDBRANCH  24  25
ENDBRANCH  21  24
ENDBRANCH  17  18
ENDBRANCH   3  17
TORSDOF 7
ENDMDL
MODEL 6
REMARK VINA RESULT:    -6.200      2.844      4.619
REMARK INTER + INTRA:          -9.567
REMARK INTER:                  -8.858
REMARK INTRA:                  -0.710
REMARK UNBOUND:                -0.830
REMARK  Name = 
REMARK  10 active torsions:
REMARK  status: ('A' for Active; 'I' for Inactive)
REMARK    1  A    between atoms: C_1  and  O_2
REMARK    2  A    between atoms: O_2  and  C_3
REMARK    3  A    between atoms: C_8  and  C_9
REMARK    4  A    between atoms: N_11  and  C_12
REMARK    5  A    between atoms: C_12  and  C_13
REMARK    6  A    between atoms: C_16  and  C_17
REMARK    7  A    between atoms: C_17  and  S_18
REMARK    8  A    between atoms: S_18  and  C_19
REMARK    9  A    between atoms: C_19  and  C_20
REMARK   10  A    between atoms: C_19  and  C_21
REMARK                            x       y       z     vdW  Elec       q    Type
REMARK                         _______ _______ _______ _____ _____    ______ ____
ROOT
ATOM      1  C   UNL     1      48.856   7.088  14.693  0.00  0.00    +0.000 C 
ATOM      2  O   UNL     1      49.613   6.908  13.742  0.00  0.00    +0.000 OA
ATOM      3  N   UNL     1      47.645   7.717  14.555  0.00  0.00    +0.000 N 
ATOM      4  H   UNL     1      47.021   7.768  15.348  0.00  0.00    +0.000 HD
ENDROOT
BRANCH   1  10
ATOM      5  C   UNL     1      49.180   4.513  19.008  0.00  0.00    +0.000 A 
ATOM      6  N   UNL     1      48.366   3.466  18.751  0.00  0.00    +0.000 NA
ATOM      7  C   UNL     1      47.745   3.407  17.557  0.00  0.00    +0.000 A 
ATOM      8  C   UNL     1      47.881   4.343  16.537  0.00  0.00    +0.000 A 
ATOM      9  C   UNL     1      48.749   5.427  16.770  0.00  0.00    +0.000 A 
ATOM     10  C   UNL     1      49.176   6.593  16.033  0.00  0.00    +0.000 A 
ATOM     11  C   UNL     1      50.017   7.298  16.883  0.00  0.00    +0.000 A 
ATOM     12  N   UNL     1      50.130   6.621  18.062  0.00  0.00    +0.000 N 
ATOM     13  C   UNL     1      49.369   5.478  18.023  0.00  0.00    +0.000 A 
ATOM     14  H   UNL     1      50.678   6.909  18.862  0.00  0.00    +0.000 HD
BRANCH   5  16
ATOM     15  C   UNL     1      48.884   4.816  21.303  0.00  0.00    +0.000 C 
ATOM     16  O   UNL     1      49.805   4.641  20.231  0.00  0.00    +0.000 OA
ENDBRANCH   5  16
ENDBRANCH   1  10
BRANCH   3  17
ATOM     17  C   UNL     1      47.193   8.248  13.282  0.00  0.00    +0.000 C 
BRANCH  17  18
ATOM     18  C   UNL     1      46.235   7.294  12.634  0.00  0.00    +0.000 A 
ATOM     19  C   UNL     1      46.472   5.918  12.664  0.00  0.00    +0.000 A 
ATOM     20  C   UNL     1      45.618   5.050  11.998  0.00  0.00    +0.000 A 
ATOM     21  C   UNL     1      44.514   5.571  11.324  0.00  0.00    +0.000 A 
ATOM     22  N   UNL     1      44.240   6.902  11.317  0.00  0.00    +0.000 NA
ATOM     23  C   UNL     1      45.092   7.726  11.970  0.00  0.00    +0.000 A 
BRANCH  21  24
ATOM     24  C   UNL     1      43.628   4.683  10.486  0.00  0.00    +0.000 C 
BRANCH  24  25
ATOM     25  S   UNL     1      44.164   2.952  10.323  0.00  0.00    +0.000 S 
BRANCH  25  26
ATOM     26  C   UNL     1      44.837   2.914   8.615  0.00  0.00    +0.000 C 
ATOM     27  C   UNL     1      45.641   4.161   8.265  0.00  0.00    +0.000 C 
ATOM     28  C   UNL     1      45.734   1.676   8.537  0.00  0.00    +0.000 C 
ENDBRANCH  25  26
ENDBRANCH  24  25
ENDBRANCH  21  24
ENDBRANCH  17  18
ENDBRANCH   3  17
TORSDOF 7
ENDMDL
MODEL 7
REMARK VINA RESULT:    -6.079      3.649      7.962
REMARK INTER + INTRA:          -9.396
REMARK INTER:                  -8.738
REMARK INTRA:                  -0.658
REMARK UNBOUND:                -0.830
REMARK  Name = 
REMARK  10 active torsions:
REMARK  status: ('A' for Active; 'I' for Inactive)
REMARK    1  A    between atoms: C_1  and  O_2
REMARK    2  A    between atoms: O_2  and  C_3
REMARK    3  A    between atoms: C_8  and  C_9
REMARK    4  A    between atoms: N_11  and  C_12
REMARK    5  A    between atoms: C_12  and  C_13
REMARK    6  A    between atoms: C_16  and  C_17
REMARK    7  A    between atoms: C_17  and  S_18
REMARK    8  A    between atoms: S_18  and  C_19
REMARK    9  A    between atoms: C_19  and  C_20
REMARK   10  A    between atoms: C_19  and  C_21
REMARK                            x       y       z     vdW  Elec       q    Type
REMARK                         _______ _______ _______ _____ _____    ______ ____
ROOT
ATOM      1  C   UNL     1      43.707   5.628  10.975  0.00  0.00    +0.000 C 
ATOM      2  O   UNL     1      42.543   5.813  11.321  0.00  0.00    +0.000 OA
ATOM      3  N   UNL     1      44.668   6.600  11.093  0.00  0.00    +0.000 N 
ATOM      4  H   UNL     1      45.628   6.376  10.872  0.00  0.00    +0.000 HD
ENDROOT
BRANCH   1  10
ATOM      5  C   UNL     1      45.841   1.868   8.394  0.00  0.00    +0.000 A 
ATOM      6  N   UNL     1      46.569   2.553   7.485  0.00  0.00    +0.000 NA
ATOM      7  C   UNL     1      46.520   3.900   7.499  0.00  0.00    +0.000 A 
ATOM      8  C   UNL     1      45.781   4.665   8.396  0.00  0.00    +0.000 A 
ATOM      9  C   UNL     1      45.040   3.973   9.373  0.00  0.00    +0.000 A 
ATOM     10  C   UNL     1      44.158   4.335  10.458  0.00  0.00    +0.000 A 
ATOM     11  C   UNL     1      43.707   3.140  11.002  0.00  0.00    +0.000 A 
ATOM     12  N   UNL     1      44.274   2.100  10.326  0.00  0.00    +0.000 N 
ATOM     13  C   UNL     1      45.089   2.575   9.328  0.00  0.00    +0.000 A 
ATOM     14  H   UNL     1      44.118   1.118  10.509  0.00  0.00    +0.000 HD
BRANCH   5  16
ATOM     15  C   UNL     1      46.871  -0.074   7.610  0.00  0.00    +0.000 C 
ATOM     16  O   UNL     1      45.823   0.488   8.394  0.00  0.00    +0.000 OA
ENDBRANCH   5  16
ENDBRANCH   1  10
BRANCH   3  17
ATOM     17  C   UNL     1      44.365   7.925  11.600  0.00  0.00    +0.000 C 
BRANCH  17  18
ATOM     18  C   UNL     1      45.621   8.605  12.059  0.00  0.00    +0.000 A 
ATOM     19  C   UNL     1      45.839   9.956  11.783  0.00  0.00    +0.000 A 
ATOM     20  C   UNL     1      47.036  10.556  12.148  0.00  0.00    +0.000 A 
ATOM     21  C   UNL     1      47.999   9.797  12.812  0.00  0.00    +0.000 A 
ATOM     22  N   UNL     1      47.790   8.492  13.129  0.00  0.00    +0.000 NA
ATOM     23  C   UNL     1      46.616   7.931  12.757  0.00  0.00    +0.000 A 
BRANCH  21  24
ATOM     24  C   UNL     1      49.361  10.370  13.120  0.00  0.00    +0.000 C 
BRANCH  24  25
ATOM     25  S   UNL     1      50.521   9.251  13.964  0.00  0.00    +0.000 S 
BRANCH  25  26
ATOM     26  C   UNL     1      51.676   8.798  12.610  0.00  0.00    +0.000 C 
ATOM     27  C   UNL     1      50.968   8.188  11.404  0.00  0.00    +0.000 C 
ATOM     28  C   UNL     1      52.383  10.091  12.200  0.00  0.00    +0.000 C 
ENDBRANCH  25  26
ENDBRANCH  24  25
ENDBRANCH  21  24
ENDBRANCH  17  18
ENDBRANCH   3  17
TORSDOF 7
ENDMDL
MODEL 8
REMARK VINA RESULT:    -6.075      2.484      3.405
REMARK INTER + INTRA:          -9.391
REMARK INTER:                  -8.728
REMARK INTRA:                  -0.663
REMARK UNBOUND:                -0.830
REMARK  Name = 
REMARK  10 active torsions:
REMARK  status: ('A' for Active; 'I' for Inactive)
REMARK    1  A    between atoms: C_1  and  O_2
REMARK    2  A    between atoms: O_2  and  C_3
REMARK    3  A    between atoms: C_8  and  C_9
REMARK    4  A    between atoms: N_11  and  C_12
REMARK    5  A    between atoms: C_12  and  C_13
REMARK    6  A    between atoms: C_16  and  C_17
REMARK    7  A    between atoms: C_17  and  S_18
REMARK    8  A    between atoms: S_18  and  C_19
REMARK    9  A    between atoms: C_19  and  C_20
REMARK   10  A    between atoms: C_19  and  C_21
REMARK                            x       y       z     vdW  Elec       q    Type
REMARK                         _______ _______ _______ _____ _____    ______ ____
ROOT
ATOM      1  C   UNL     1      47.655   5.986  14.022  0.00  0.00    +0.000 C 
ATOM      2  O   UNL     1      48.575   6.029  13.210  0.00  0.00    +0.000 OA
ATOM      3  N   UNL     1      46.388   6.413  13.717  0.00  0.00    +0.000 N 
ATOM      4  H   UNL     1      45.645   6.281  14.389  0.00  0.00    +0.000 HD
ENDROOT
BRANCH   1  10
ATOM      5  C   UNL     1      49.033   4.992  18.762  0.00  0.00    +0.000 A 
ATOM      6  N   UNL     1      49.842   6.041  19.026  0.00  0.00    +0.000 NA
ATOM      7  C   UNL     1      50.053   6.955  18.058  0.00  0.00    +0.000 A 
ATOM      8  C   UNL     1      49.488   6.920  16.787  0.00  0.00    +0.000 A 
ATOM      9  C   UNL     1      48.616   5.853  16.501  0.00  0.00    +0.000 A 
ATOM     10  C   UNL     1      47.840   5.423  15.361  0.00  0.00    +0.000 A 
ATOM     11  C   UNL     1      47.235   4.231  15.736  0.00  0.00    +0.000 A 
ATOM     12  N   UNL     1      47.585   3.938  17.021  0.00  0.00    +0.000 N 
ATOM     13  C   UNL     1      48.425   4.906  17.513  0.00  0.00    +0.000 A 
ATOM     14  H   UNL     1      47.290   3.125  17.546  0.00  0.00    +0.000 HD
BRANCH   5  16
ATOM     15  C   UNL     1      48.678   4.531  21.022  0.00  0.00    +0.000 C 
ATOM     16  O   UNL     1      48.819   4.008  19.705  0.00  0.00    +0.000 OA
ENDBRANCH   5  16
ENDBRANCH   1  10
BRANCH   3  17
ATOM     17  C   UNL     1      46.058   6.983  12.423  0.00  0.00    +0.000 C 
BRANCH  17  18
ATOM     18  C   UNL     1      45.646   5.901  11.470  0.00  0.00    +0.000 A 
ATOM     19  C   UNL     1      45.004   4.751  11.935  0.00  0.00    +0.000 A 
ATOM     20  C   UNL     1      44.694   3.724  11.055  0.00  0.00    +0.000 A 
ATOM     21  C   UNL     1      45.010   3.870   9.705  0.00  0.00    +0.000 A 
ATOM     22  N   UNL     1      45.596   4.998   9.224  0.00  0.00    +0.000 NA
ATOM     23  C   UNL     1      45.892   5.982  10.105  0.00  0.00    +0.000 A 
BRANCH  21  24
ATOM     24  C   UNL     1      44.803   2.734   8.733  0.00  0.00    +0.000 C 
BRANCH  24  25
ATOM     25  S   UNL     1      45.577   2.936   7.099  0.00  0.00    +0.000 S 
BRANCH  25  26
ATOM     26  C   UNL     1      47.117   1.951   7.276  0.00  0.00    +0.000 C 
ATOM     27  C   UNL     1      46.852   0.485   7.599  0.00  0.00    +0.000 C 
ATOM     28  C   UNL     1      47.854   2.066   5.940  0.00  0.00    +0.000 C 
ENDBRANCH  25  26
ENDBRANCH  24  25
ENDBRANCH  21  24
ENDBRANCH  17  18
ENDBRANCH   3  17
TORSDOF 7
ENDMDL
