MODEL 1
REMARK VINA RESULT:    -7.898      0.000      0.000
REMARK INTER + INTRA:         -11.625
REMARK INTER:                 -11.130
REMARK INTRA:                  -0.495
REMARK UNBOUND:                -0.495
REMARK  Name = 
REMARK  9 active torsions:
REMARK  status: ('A' for Active; 'I' for Inactive)
REMARK    1  A    between atoms: C_1  and  C_2
REMARK    2  A    between atoms: C_2  and  C_3
REMARK    3  A    between atoms: C_2  and  C_4
REMARK    4  A    between atoms: C_4  and  N_5
REMARK    5  A    between atoms: C_6  and  C_8
REMARK    6  A    between atoms: C_11  and  N_12
REMARK    7  A    between atoms: N_12  and  C_13
REMARK    8  A    between atoms: C_13  and  C_14
REMARK    9  A    between atoms: C_18  and  C_19
REMARK                            x       y       z     vdW  Elec       q    Type
REMARK                         _______ _______ _______ _____ _____    ______ ____
ROOT
ATOM      1  N   UNL     1      46.470   6.402  11.385  0.00  0.00    +0.000 N 
ATOM      2  H   UNL     1      46.772   7.355  11.195  0.00  0.00    +0.000 HD
ENDROOT
BRANCH   1   6
ATOM      3  C   UNL     1      47.773   5.319  15.154  0.00  0.00    +0.000 A 
ATOM      4  C   UNL     1      46.746   4.623  14.529  0.00  0.00    +0.000 A 
ATOM      5  N   UNL     1      46.252   4.970  13.299  0.00  0.00    +0.000 NA
ATOM      6  C   UNL     1      46.835   6.025  12.691  0.00  0.00    +0.000 A 
ATOM      7  C   UNL     1      47.898   6.684  13.327  0.00  0.00    +0.000 A 
ATOM      8  N   UNL     1      48.376   6.383  14.566  0.00  0.00    +0.000 NA
BRANCH   3  10
ATOM      9  N   UNL     1      47.487   5.365  17.568  0.00  0.00    +0.000 N 
ATOM     10  C   UNL     1      48.252   4.913  16.511  0.00  0.00    +0.000 C 
ATOM     11  O   UNL     1      49.252   4.221  16.640  0.00  0.00    +0.000 OA
ATOM     12  H   UNL     1      46.682   5.941  17.336  0.00  0.00    +0.000 HD
BRANCH   9  13
ATOM     13  C   UNL     1      47.812   5.102  18.957  0.00  0.00    +0.000 C 
BRANCH  13  15
ATOM     14  C   UNL     1      47.866   6.008  21.329  0.00  0.00    +0.000 C 
ATOM     15  C   UNL     1      47.310   6.195  19.916  0.00  0.00    +0.000 C 
ATOM     16  C   UNL     1      47.698   7.582  19.395  0.00  0.00    +0.000 C 
ENDBRANCH  13  15
ENDBRANCH   9  13
ENDBRANCH   3  10
ENDBRANCH   1   6
BRANCH   1  17
ATOM     17  C   UNL     1      45.053   6.245  11.061  0.00  0.00    +0.000 C 
BRANCH  17  18
ATOM     18  C   UNL     1      44.823   4.877  10.456  0.00  0.00    +0.000 A 
ATOM     19  C   UNL     1      43.872   4.006  10.969  0.00  0.00    +0.000 A 
ATOM     20  N   UNL     1      43.629   2.774  10.470  0.00  0.00    +0.000 NA
ATOM     21  C   UNL     1      44.375   2.382   9.410  0.00  0.00    +0.000 A 
ATOM     22  C   UNL     1      45.370   3.150   8.799  0.00  0.00    +0.000 A 
ATOM     23  C   UNL     1      45.573   4.426   9.357  0.00  0.00    +0.000 A 
BRANCH  22  24
ATOM     24  C   UNL     1      46.159   2.653   7.651  0.00  0.00    +0.000 A 
ATOM     25  C   UNL     1      46.309   3.393   6.469  0.00  0.00    +0.000 A 
ATOM     26  C   UNL     1      47.074   2.902   5.408  0.00  0.00    +0.000 A 
ATOM     27  C   UNL     1      47.671   1.663   5.546  0.00  0.00    +0.000 A 
ATOM     28  N   UNL     1      47.555   0.905   6.653  0.00  0.00    +0.000 NA
ATOM     29  C   UNL     1      46.812   1.415   7.669  0.00  0.00    +0.000 A 
ENDBRANCH  22  24
ENDBRANCH  17  18
ENDBRANCH   1  17
TORSDOF 7
ENDMDL
MODEL 2
REMARK VINA RESULT:    -7.804      3.461      9.701
REMARK INTER + INTRA:         -11.493
REMARK INTER:                 -10.707
REMARK INTRA:                  -0.786
REMARK UNBOUND:                -0.495
REMARK  Name = 
REMARK  9 active torsions:
REMARK  status: ('A' for Active; 'I' for Inactive)
REMARK    1  A    between atoms: C_1  and  C_2
REMARK    2  A    between atoms: C_2  and  C_3
REMARK    3  A    between atoms: C_2  and  C_4
REMARK    4  A    between atoms: C_4  and  N_5
REMARK    5  A    between atoms: C_6  and  C_8
REMARK    6  A    between atoms: C_11  and  N_12
REMARK    7  A    between atoms: N_12  and  C_13
REMARK    8  A    between atoms: C_13  and  C_14
REMARK    9  A    between atoms: C_18  and  C_19
REMARK                            x       y       z     vdW  Elec       q    Type
REMARK                         _______ _______ _______ _____ _____    ______ ____
ROOT
ATOM      1  N   UNL     1      43.803   3.990  10.410  0.00  0.00    +0.000 N 
ATOM      2  H   UNL     1      42.852   3.933  10.052  0.00  0.00    +0.000 HD
ENDROOT
BRANCH   1   6
ATOM      3  C   UNL     1      46.352   2.580   7.479  0.00  0.00    +0.000 A 
ATOM      4  C   UNL     1      45.831   1.723   8.441  0.00  0.00    +0.000 A 
ATOM      5  N   UNL     1      45.016   2.151   9.455  0.00  0.00    +0.000 NA
ATOM      6  C   UNL     1      44.710   3.466   9.470  0.00  0.00    +0.000 A 
ATOM      7  C   UNL     1      45.217   4.300   8.461  0.00  0.00    +0.000 A 
ATOM      8  N   UNL     1      46.061   3.905   7.470  0.00  0.00    +0.000 NA
BRANCH   3  10
ATOM      9  N   UNL     1      46.629   1.553   5.292  0.00  0.00    +0.000 N 
ATOM     10  C   UNL     1      47.261   2.061   6.411  0.00  0.00    +0.000 C 
ATOM     11  O   UNL     1      48.475   2.105   6.547  0.00  0.00    +0.000 OA
ATOM     12  H   UNL     1      45.613   1.562   5.299  0.00  0.00    +0.000 HD
BRANCH   9  13
ATOM     13  C   UNL     1      47.342   0.975   4.168  0.00  0.00    +0.000 C 
BRANCH  13  15
ATOM     14  C   UNL     1      45.462   0.728   2.478  0.00  0.00    +0.000 C 
ATOM     15  C   UNL     1      46.486  -0.005   3.346  0.00  0.00    +0.000 C 
ATOM     16  C   UNL     1      47.379  -0.877   2.458  0.00  0.00    +0.000 C 
ENDBRANCH  13  15
ENDBRANCH   9  13
ENDBRANCH   3  10
ENDBRANCH   1   6
BRANCH   1  17
ATOM     17  C   UNL     1      44.092   5.346  10.870  0.00  0.00    +0.000 C 
BRANCH  17  18
ATOM     18  C   UNL     1      45.156   5.298  11.945  0.00  0.00    +0.000 A 
ATOM     19  C   UNL     1      45.045   4.453  13.041  0.00  0.00    +0.000 A 
ATOM     20  N   UNL     1      45.962   4.374  14.030  0.00  0.00    +0.000 NA
ATOM     21  C   UNL     1      47.045   5.180  13.929  0.00  0.00    +0.000 A 
ATOM     22  C   UNL     1      47.283   6.084  12.889  0.00  0.00    +0.000 A 
ATOM     23  C   UNL     1      46.297   6.116  11.885  0.00  0.00    +0.000 A 
BRANCH  22  24
ATOM     24  C   UNL     1      48.482   6.947  12.849  0.00  0.00    +0.000 A 
ATOM     25  C   UNL     1      48.881   7.623  11.687  0.00  0.00    +0.000 A 
ATOM     26  C   UNL     1      50.011   8.444  11.687  0.00  0.00    +0.000 A 
ATOM     27  C   UNL     1      50.736   8.566  12.858  0.00  0.00    +0.000 A 
ATOM     28  N   UNL     1      50.405   7.935  14.000  0.00  0.00    +0.000 NA
ATOM     29  C   UNL     1      49.296   7.152  13.969  0.00  0.00    +0.000 A 
ENDBRANCH  22  24
ENDBRANCH  17  18
ENDBRANCH   1  17
TORSDOF 7
ENDMDL
MODEL 3
REMARK VINA RESULT:    -7.272      3.970      5.050
REMARK INTER + INTRA:         -10.743
REMARK INTER:                  -9.904
REMARK INTRA:                  -0.839
REMARK UNBOUND:                -0.495
REMARK  Name = 
REMARK  9 active torsions:
REMARK  status: ('A' for Active; 'I' for Inactive)
REMARK    1  A    between atoms: C_1  and  C_2
REMARK    2  A    between atoms: C_2  and  C_3
REMARK    3  A    between atoms: C_2  and  C_4
REMARK    4  A    between atoms: C_4  and  N_5
REMARK    5  A    between atoms: C_6  and  C_8
REMARK    6  A    between atoms: C_11  and  N_12
REMARK    7  A    between atoms: N_12  and  C_13
REMARK    8  A    between atoms: C_13  and  C_14
REMARK    9  A    between atoms: C_18  and  C_19
REMARK                            x       y       z     vdW  Elec       q    Type
REMARK                         _______ _______ _______ _____ _____    ______ ____
ROOT
ATOM      1  N   UNL     1      44.389   6.720  12.655  0.00  0.00    +0.000 N 
ATOM      2  H   UNL     1      44.459   5.858  13.191  0.00  0.00    +0.000 HD
ENDROOT
BRANCH   1   6
ATOM      3  C   UNL     1      48.014   8.627  12.108  0.00  0.00    +0.000 A 
ATOM      4  C   UNL     1      47.903   7.251  11.950  0.00  0.00    +0.000 A 
ATOM      5  N   UNL     1      46.734   6.570  12.161  0.00  0.00    +0.000 NA
ATOM      6  C   UNL     1      45.660   7.309  12.511  0.00  0.00    +0.000 A 
ATOM      7  C   UNL     1      45.791   8.701  12.623  0.00  0.00    +0.000 A 
ATOM      8  N   UNL     1      46.952   9.393  12.460  0.00  0.00    +0.000 NA
BRANCH   3  10
ATOM      9  N   UNL     1      50.445   8.532  12.106  0.00  0.00    +0.000 N 
ATOM     10  C   UNL     1      49.325   9.314  11.893  0.00  0.00    +0.000 C 
ATOM     11  O   UNL     1      49.368  10.485  11.545  0.00  0.00    +0.000 OA
ATOM     12  H   UNL     1      50.282   7.573  12.401  0.00  0.00    +0.000 HD
BRANCH   9  13
ATOM     13  C   UNL     1      51.800   9.032  11.979  0.00  0.00    +0.000 C 
BRANCH  13  15
ATOM     14  C   UNL     1      53.992   8.100  11.096  0.00  0.00    +0.000 C 
ATOM     15  C   UNL     1      52.545   8.463  10.758  0.00  0.00    +0.000 C 
ATOM     16  C   UNL     1      51.820   7.226  10.219  0.00  0.00    +0.000 C 
ENDBRANCH  13  15
ENDBRANCH   9  13
ENDBRANCH   3  10
ENDBRANCH   1   6
BRANCH   1  17
ATOM     17  C   UNL     1      43.663   6.487  11.409  0.00  0.00    +0.000 C 
BRANCH  17  18
ATOM     18  C   UNL     1      43.785   5.029  11.019  0.00  0.00    +0.000 A 
ATOM     19  C   UNL     1      43.120   4.031  11.718  0.00  0.00    +0.000 A 
ATOM     20  N   UNL     1      43.198   2.717  11.415  0.00  0.00    +0.000 NA
ATOM     21  C   UNL     1      43.983   2.373  10.366  0.00  0.00    +0.000 A 
ATOM     22  C   UNL     1      44.716   3.269   9.581  0.00  0.00    +0.000 A 
ATOM     23  C   UNL     1      44.589   4.625   9.940  0.00  0.00    +0.000 A 
BRANCH  22  24
ATOM     24  C   UNL     1      45.567   2.824   8.458  0.00  0.00    +0.000 A 
ATOM     25  C   UNL     1      45.918   3.675   7.401  0.00  0.00    +0.000 A 
ATOM     26  C   UNL     1      46.738   3.228   6.361  0.00  0.00    +0.000 A 
ATOM     27  C   UNL     1      47.185   1.920   6.393  0.00  0.00    +0.000 A 
ATOM     28  N   UNL     1      46.873   1.056   7.378  0.00  0.00    +0.000 NA
ATOM     29  C   UNL     1      46.082   1.525   8.377  0.00  0.00    +0.000 A 
ENDBRANCH  22  24
ENDBRANCH  17  18
ENDBRANCH   1  17
TORSDOF 7
ENDMDL
MODEL 4
REMARK VINA RESULT:    -7.141      3.721      9.866
REMARK INTER + INTRA:         -10.558
REMARK INTER:                  -9.917
REMARK INTRA:                  -0.641
REMARK UNBOUND:                -0.495
REMARK  Name = 
REMARK  9 active torsions:
REMARK  status: ('A' for Active; 'I' for Inactive)
REMARK    1  A    between atoms: C_1  and  C_2
REMARK    2  A    between atoms: C_2  and  C_3
REMARK    3  A    between atoms: C_2  and  C_4
REMARK    4  A    between atoms: C_4  and  N_5
REMARK    5  A    between atoms: C_6  and  C_8
REMARK    6  A    between atoms: C_11  and  N_12
REMARK    7  A    between atoms: N_12  and  C_13
REMARK    8  A    between atoms: C_13  and  C_14
REMARK    9  A    between atoms: C_18  and  C_19
REMARK                            x       y       z     vdW  Elec       q    Type
REMARK                         _______ _______ _______ _____ _____    ______ ____
ROOT
ATOM      1  N   UNL     1      47.266   5.253  15.361  0.00  0.00    +0.000 N 
ATOM      2  H   UNL     1      48.125   5.759  15.159  0.00  0.00    +0.000 HD
ENDROOT
BRANCH   1   6
ATOM      3  C   UNL     1      45.271   4.213  11.894  0.00  0.00    +0.000 A 
ATOM      4  C   UNL     1      45.842   3.240  12.706  0.00  0.00    +0.000 A 
ATOM      5  N   UNL     1      46.548   3.538  13.842  0.00  0.00    +0.000 NA
ATOM      6  C   UNL     1      46.647   4.846  14.164  0.00  0.00    +0.000 A 
ATOM      7  C   UNL     1      46.026   5.804  13.348  0.00  0.00    +0.000 A 
ATOM      8  N   UNL     1      45.357   5.533  12.194  0.00  0.00    +0.000 NA
BRANCH   3  10
ATOM      9  N   UNL     1      45.277   3.884   9.485  0.00  0.00    +0.000 N 
ATOM     10  C   UNL     1      44.536   3.829  10.650  0.00  0.00    +0.000 C 
ATOM     11  O   UNL     1      43.363   3.489  10.696  0.00  0.00    +0.000 OA
ATOM     12  H   UNL     1      46.242   4.190   9.572  0.00  0.00    +0.000 HD
BRANCH   9  13
ATOM     13  C   UNL     1      44.728   3.581   8.177  0.00  0.00    +0.000 C 
BRANCH  13  15
ATOM     14  C   UNL     1      46.839   3.675   6.768  0.00  0.00    +0.000 C 
ATOM     15  C   UNL     1      45.698   2.793   7.279  0.00  0.00    +0.000 C 
ATOM     16  C   UNL     1      46.278   1.597   8.040  0.00  0.00    +0.000 C 
ENDBRANCH  13  15
ENDBRANCH   9  13
ENDBRANCH   3  10
ENDBRANCH   1   6
BRANCH   1  17
ATOM     17  C   UNL     1      47.519   4.188  16.328  0.00  0.00    +0.000 C 
BRANCH  17  18
ATOM     18  C   UNL     1      48.815   4.467  17.059  0.00  0.00    +0.000 A 
ATOM     19  C   UNL     1      49.102   5.723  17.576  0.00  0.00    +0.000 A 
ATOM     20  N   UNL     1      50.243   6.027  18.232  0.00  0.00    +0.000 NA
ATOM     21  C   UNL     1      51.152   5.034  18.377  0.00  0.00    +0.000 A 
ATOM     22  C   UNL     1      51.001   3.729  17.900  0.00  0.00    +0.000 A 
ATOM     23  C   UNL     1      49.789   3.469  17.232  0.00  0.00    +0.000 A 
BRANCH  22  24
ATOM     24  C   UNL     1      52.043   2.695  18.080  0.00  0.00    +0.000 A 
ATOM     25  C   UNL     1      51.994   1.460  17.418  0.00  0.00    +0.000 A 
ATOM     26  C   UNL     1      53.003   0.510  17.598  0.00  0.00    +0.000 A 
ATOM     27  C   UNL     1      54.047   0.812  18.454  0.00  0.00    +0.000 A 
ATOM     28  N   UNL     1      54.140   1.978  19.121  0.00  0.00    +0.000 NA
ATOM     29  C   UNL     1      53.148   2.882  18.917  0.00  0.00    +0.000 A 
ENDBRANCH  22  24
ENDBRANCH  17  18
ENDBRANCH   1  17
TORSDOF 7
ENDMDL
MODEL 5
REMARK VINA RESULT:    -7.074      1.608      2.117
REMARK INTER + INTRA:         -10.463
REMARK INTER:                  -9.931
REMARK INTRA:                  -0.532
REMARK UNBOUND:                -0.495
REMARK  Name = 
REMARK  9 active torsions:
REMARK  status: ('A' for Active; 'I' for Inactive)
REMARK    1  A    between atoms: C_1  and  C_2
REMARK    2  A    between atoms: C_2  and  C_3
REMARK    3  A    between atoms: C_2  and  C_4
REMARK    4  A    between atoms: C_4  and  N_5
REMARK    5  A    between atoms: C_6  and  C_8
REMARK    6  A    between atoms: C_11  and  N_12
REMARK    7  A    between atoms: N_12  and  C_13
REMARK    8  A    between atoms: C_13  and  C_14
REMARK    9  A    between atoms: C_18  and  C_19
REMARK                            x       y       z     vdW  Elec       q    Type
REMARK                         _______ _______ _______ _____ _____    ______ ____
ROOT
ATOM      1  N   UNL     1      45.230   7.133  11.057  0.00  0.00    +0.000 N 
ATOM      2  H   UNL     1      45.070   8.074  10.705  0.00  0.00    +0.000 HD
ENDROOT
BRANCH   1   6
ATOM      3  C   UNL     1      47.992   6.970  14.127  0.00  0.00    +0.000 A 
ATOM      4  C   UNL     1      47.224   8.110  13.920  0.00  0.00    +0.000 A 
ATOM      5  N   UNL     1      46.327   8.226  12.892  0.00  0.00    +0.000 NA
ATOM      6  C   UNL     1      46.194   7.154  12.083  0.00  0.00    +0.000 A 
ATOM      7  C   UNL     1      46.952   6.001  12.340  0.00  0.00    +0.000 A 
ATOM      8  N   UNL     1      47.879   5.879  13.329  0.00  0.00    +0.000 NA
BRANCH   3  10
ATOM      9  N   UNL     1      48.549   6.240  16.379  0.00  0.00    +0.000 N 
ATOM     10  C   UNL     1      48.978   6.911  15.249  0.00  0.00    +0.000 C 
ATOM     11  O   UNL     1      50.082   7.424  15.140  0.00  0.00    +0.000 OA
ATOM     12  H   UNL     1      47.606   5.862  16.354  0.00  0.00    +0.000 HD
BRANCH   9  13
ATOM     13  C   UNL     1      49.352   6.107  17.579  0.00  0.00    +0.000 C 
BRANCH  13  15
ATOM     14  C   UNL     1      48.542   3.885  18.506  0.00  0.00    +0.000 C 
ATOM     15  C   UNL     1      48.613   5.397  18.728  0.00  0.00    +0.000 C 
ATOM     16  C   UNL     1      49.302   5.685  20.065  0.00  0.00    +0.000 C 
ENDBRANCH  13  15
ENDBRANCH   9  13
ENDBRANCH   3  10
ENDBRANCH   1   6
BRANCH   1  17
ATOM     17  C   UNL     1      43.960   6.498  11.405  0.00  0.00    +0.000 C 
BRANCH  17  18
ATOM     18  C   UNL     1      43.984   5.050  10.965  0.00  0.00    +0.000 A 
ATOM     19  C   UNL     1      43.232   4.080  11.615  0.00  0.00    +0.000 A 
ATOM     20  N   UNL     1      43.220   2.775  11.266  0.00  0.00    +0.000 NA
ATOM     21  C   UNL     1      44.001   2.410  10.221  0.00  0.00    +0.000 A 
ATOM     22  C   UNL     1      44.814   3.276   9.484  0.00  0.00    +0.000 A 
ATOM     23  C   UNL     1      44.779   4.624   9.888  0.00  0.00    +0.000 A 
BRANCH  22  24
ATOM     24  C   UNL     1      45.654   2.807   8.362  0.00  0.00    +0.000 A 
ATOM     25  C   UNL     1      46.205   1.518   8.325  0.00  0.00    +0.000 A 
ATOM     26  C   UNL     1      46.982   1.100   7.242  0.00  0.00    +0.000 A 
ATOM     27  C   UNL     1      47.207   1.993   6.210  0.00  0.00    +0.000 A 
ATOM     28  N   UNL     1      46.712   3.245   6.196  0.00  0.00    +0.000 NA
ATOM     29  C   UNL     1      45.953   3.616   7.259  0.00  0.00    +0.000 A 
ENDBRANCH  22  24
ENDBRANCH  17  18
ENDBRANCH   1  17
TORSDOF 7
ENDMDL
MODEL 6
REMARK VINA RESULT:    -6.967      3.545     10.058
REMARK INTER + INTRA:         -10.313
REMARK INTER:                  -9.764
REMARK INTRA:                  -0.549
REMARK UNBOUND:                -0.495
REMARK  Name = 
REMARK  9 active torsions:
REMARK  status: ('A' for Active; 'I' for Inactive)
REMARK    1  A    between atoms: C_1  and  C_2
REMARK    2  A    between atoms: C_2  and  C_3
REMARK    3  A    between atoms: C_2  and  C_4
REMARK    4  A    between atoms: C_4  and  N_5
REMARK    5  A    between atoms: C_6  and  C_8
REMARK    6  A    between atoms: C_11  and  N_12
REMARK    7  A    between atoms: N_12  and  C_13
REMARK    8  A    between atoms: C_13  and  C_14
REMARK    9  A    between atoms: C_18  and  C_19
REMARK                            x       y       z     vdW  Elec       q    Type
REMARK                         _______ _______ _______ _____ _____    ______ ____
ROOT
ATOM      1  N   UNL     1      47.476   5.164  15.455  0.00  0.00    +0.000 N 
ATOM      2  H   UNL     1      48.451   5.232  15.173  0.00  0.00    +0.000 HD
ENDROOT
BRANCH   1   6
ATOM      3  C   UNL     1      45.281   4.097  12.120  0.00  0.00    +0.000 A 
ATOM      4  C   UNL     1      45.364   5.425  12.522  0.00  0.00    +0.000 A 
ATOM      5  N   UNL     1      46.045   5.821  13.642  0.00  0.00    +0.000 NA
ATOM      6  C   UNL     1      46.669   4.851  14.344  0.00  0.00    +0.000 A 
ATOM      7  C   UNL     1      46.602   3.524  13.892  0.00  0.00    +0.000 A 
ATOM      8  N   UNL     1      45.897   3.103  12.806  0.00  0.00    +0.000 NA
BRANCH   3  10
ATOM      9  N   UNL     1      45.203   3.749   9.714  0.00  0.00    +0.000 N 
ATOM     10  C   UNL     1      44.499   3.719  10.902  0.00  0.00    +0.000 C 
ATOM     11  O   UNL     1      43.321   3.404  10.988  0.00  0.00    +0.000 OA
ATOM     12  H   UNL     1      46.177   4.036   9.768  0.00  0.00    +0.000 HD
BRANCH   9  13
ATOM     13  C   UNL     1      44.607   3.447   8.427  0.00  0.00    +0.000 C 
BRANCH  13  15
ATOM     14  C   UNL     1      46.695   3.825   7.031  0.00  0.00    +0.000 C 
ATOM     15  C   UNL     1      45.602   2.831   7.426  0.00  0.00    +0.000 C 
ATOM     16  C   UNL     1      46.245   1.573   8.019  0.00  0.00    +0.000 C 
ENDBRANCH  13  15
ENDBRANCH   9  13
ENDBRANCH   3  10
ENDBRANCH   1   6
BRANCH   1  17
ATOM     17  C   UNL     1      47.339   4.266  16.600  0.00  0.00    +0.000 C 
BRANCH  17  18
ATOM     18  C   UNL     1      48.640   3.523  16.816  0.00  0.00    +0.000 A 
ATOM     19  C   UNL     1      48.843   2.249  16.302  0.00  0.00    +0.000 A 
ATOM     20  N   UNL     1      49.981   1.541  16.469  0.00  0.00    +0.000 NA
ATOM     21  C   UNL     1      50.968   2.124  17.190  0.00  0.00    +0.000 A 
ATOM     22  C   UNL     1      50.897   3.393  17.773  0.00  0.00    +0.000 A 
ATOM     23  C   UNL     1      49.691   4.086  17.558  0.00  0.00    +0.000 A 
BRANCH  22  24
ATOM     24  C   UNL     1      52.009   3.964  18.562  0.00  0.00    +0.000 A 
ATOM     25  C   UNL     1      53.353   3.690  18.271  0.00  0.00    +0.000 A 
ATOM     26  C   UNL     1      54.381   4.259  19.026  0.00  0.00    +0.000 A 
ATOM     27  C   UNL     1      54.042   5.090  20.079  0.00  0.00    +0.000 A 
ATOM     28  N   UNL     1      52.770   5.381  20.410  0.00  0.00    +0.000 NA
ATOM     29  C   UNL     1      51.795   4.819  19.649  0.00  0.00    +0.000 A 
ENDBRANCH  22  24
ENDBRANCH  17  18
ENDBRANCH   1  17
TORSDOF 7
ENDMDL
MODEL 7
REMARK VINA RESULT:    -6.848      2.144      2.922
REMARK INTER + INTRA:         -10.145
REMARK INTER:                  -9.453
REMARK INTRA:                  -0.692
REMARK UNBOUND:                -0.495
REMARK  Name = 
REMARK  9 active torsions:
REMARK  status: ('A' for Active; 'I' for Inactive)
REMARK    1  A    between atoms: C_1  and  C_2
REMARK    2  A    between atoms: C_2  and  C_3
REMARK    3  A    between atoms: C_2  and  C_4
REMARK    4  A    between atoms: C_4  and  N_5
REMARK    5  A    between atoms: C_6  and  C_8
REMARK    6  A    between atoms: C_11  and  N_12
REMARK    7  A    between atoms: N_12  and  C_13
REMARK    8  A    between atoms: C_13  and  C_14
REMARK    9  A    between atoms: C_18  and  C_19
REMARK                            x       y       z     vdW  Elec       q    Type
REMARK                         _______ _______ _______ _____ _____    ______ ____
ROOT
ATOM      1  N   UNL     1      47.274   6.958  12.103  0.00  0.00    +0.000 N 
ATOM      2  H   UNL     1      47.850   7.695  11.703  0.00  0.00    +0.000 HD
ENDROOT
BRANCH   1   6
ATOM      3  C   UNL     1      48.463   5.822  15.894  0.00  0.00    +0.000 A 
ATOM      4  C   UNL     1      48.840   7.052  15.369  0.00  0.00    +0.000 A 
ATOM      5  N   UNL     1      48.505   7.455  14.103  0.00  0.00    +0.000 NA
ATOM      6  C   UNL     1      47.754   6.600  13.377  0.00  0.00    +0.000 A 
ATOM      7  C   UNL     1      47.353   5.382  13.947  0.00  0.00    +0.000 A 
ATOM      8  N   UNL     1      47.710   4.944  15.186  0.00  0.00    +0.000 NA
BRANCH   3  10
ATOM      9  N   UNL     1      50.183   4.971  17.388  0.00  0.00    +0.000 N 
ATOM     10  C   UNL     1      48.883   5.423  17.273  0.00  0.00    +0.000 C 
ATOM     11  O   UNL     1      48.106   5.509  18.212  0.00  0.00    +0.000 OA
ATOM     12  H   UNL     1      50.731   4.936  16.532  0.00  0.00    +0.000 HD
BRANCH   9  13
ATOM     13  C   UNL     1      50.759   4.509  18.637  0.00  0.00    +0.000 C 
BRANCH  13  15
ATOM     14  C   UNL     1      51.753   2.408  17.613  0.00  0.00    +0.000 C 
ATOM     15  C   UNL     1      52.030   3.663  18.443  0.00  0.00    +0.000 C 
ATOM     16  C   UNL     1      53.125   4.492  17.766  0.00  0.00    +0.000 C 
ENDBRANCH  13  15
ENDBRANCH   9  13
ENDBRANCH   3  10
ENDBRANCH   1   6
BRANCH   1  17
ATOM     17  C   UNL     1      45.862   7.332  12.049  0.00  0.00    +0.000 C 
BRANCH  17  18
ATOM     18  C   UNL     1      45.091   6.281  11.279  0.00  0.00    +0.000 A 
ATOM     19  C   UNL     1      43.724   6.114  11.448  0.00  0.00    +0.000 A 
ATOM     20  N   UNL     1      42.989   5.190  10.791  0.00  0.00    +0.000 NA
ATOM     21  C   UNL     1      43.647   4.384   9.925  0.00  0.00    +0.000 A 
ATOM     22  C   UNL     1      45.020   4.434   9.664  0.00  0.00    +0.000 A 
ATOM     23  C   UNL     1      45.731   5.421  10.371  0.00  0.00    +0.000 A 
BRANCH  22  24
ATOM     24  C   UNL     1      45.678   3.511   8.714  0.00  0.00    +0.000 A 
ATOM     25  C   UNL     1      45.661   2.120   8.888  0.00  0.00    +0.000 A 
ATOM     26  C   UNL     1      46.279   1.274   7.964  0.00  0.00    +0.000 A 
ATOM     27  C   UNL     1      46.921   1.842   6.878  0.00  0.00    +0.000 A 
ATOM     28  N   UNL     1      46.977   3.170   6.666  0.00  0.00    +0.000 NA
ATOM     29  C   UNL     1      46.358   3.963   7.578  0.00  0.00    +0.000 A 
ENDBRANCH  22  24
ENDBRANCH  17  18
ENDBRANCH   1  17
TORSDOF 7
ENDMDL
MODEL 8
REMARK VINA RESULT:    -6.677      2.598      3.643
REMARK INTER + INTRA:          -9.904
REMARK INTER:                 -10.052
REMARK INTRA:                   0.148
REMARK UNBOUND:                -0.495
REMARK  Name = 
REMARK  9 active torsions:
REMARK  status: ('A' for Active; 'I' for Inactive)
REMARK    1  A    between atoms: C_1  and  C_2
REMARK    2  A    between atoms: C_2  and  C_3
REMARK    3  A    between atoms: C_2  and  C_4
REMARK    4  A    between atoms: C_4  and  N_5
REMARK    5  A    between atoms: C_6  and  C_8
REMARK    6  A    between atoms: C_11  and  N_12
REMARK    7  A    between atoms: N_12  and  C_13
REMARK    8  A    between atoms: C_13  and  C_14
REMARK    9  A    between atoms: C_18  and  C_19
REMARK                            x       y       z     vdW  Elec       q    Type
REMARK                         _______ _______ _______ _____ _____    ______ ____
ROOT
ATOM      1  N   UNL     1      44.034   2.652  12.437  0.00  0.00    +0.000 N 
ATOM      2  H   UNL     1      44.441   1.757  12.176  0.00  0.00    +0.000 HD
ENDROOT
BRANCH   1   6
ATOM      3  C   UNL     1      46.850   5.297  13.904  0.00  0.00    +0.000 A 
ATOM      4  C   UNL     1      47.184   3.973  13.644  0.00  0.00    +0.000 A 
ATOM      5  N   UNL     1      46.276   3.051  13.197  0.00  0.00    +0.000 NA
ATOM      6  C   UNL     1      45.018   3.494  12.988  0.00  0.00    +0.000 A 
ATOM      7  C   UNL     1      44.719   4.846  13.220  0.00  0.00    +0.000 A 
ATOM      8  N   UNL     1      45.594   5.769  13.704  0.00  0.00    +0.000 NA
BRANCH   3  10
ATOM      9  N   UNL     1      47.685   7.575  14.065  0.00  0.00    +0.000 N 
ATOM     10  C   UNL     1      47.877   6.253  14.419  0.00  0.00    +0.000 C 
ATOM     11  O   UNL     1      48.807   5.861  15.109  0.00  0.00    +0.000 OA
ATOM     12  H   UNL     1      46.879   7.778  13.480  0.00  0.00    +0.000 HD
BRANCH   9  13
ATOM     13  C   UNL     1      48.593   8.641  14.442  0.00  0.00    +0.000 C 
BRANCH  13  15
ATOM     14  C   UNL     1      49.557  10.035  12.550  0.00  0.00    +0.000 C 
ATOM     15  C   UNL     1      49.762   8.820  13.456  0.00  0.00    +0.000 C 
ATOM     16  C   UNL     1      51.084   8.966  14.216  0.00  0.00    +0.000 C 
ENDBRANCH  13  15
ENDBRANCH   9  13
ENDBRANCH   3  10
ENDBRANCH   1   6
BRANCH   1  17
ATOM     17  C   UNL     1      43.285   3.215  11.315  0.00  0.00    +0.000 C 
BRANCH  17  18
ATOM     18  C   UNL     1      44.253   3.736  10.274  0.00  0.00    +0.000 A 
ATOM     19  C   UNL     1      44.604   5.077  10.213  0.00  0.00    +0.000 A 
ATOM     20  N   UNL     1      45.458   5.594   9.303  0.00  0.00    +0.000 NA
ATOM     21  C   UNL     1      45.988   4.736   8.400  0.00  0.00    +0.000 A 
ATOM     22  C   UNL     1      45.717   3.365   8.337  0.00  0.00    +0.000 A 
ATOM     23  C   UNL     1      44.827   2.883   9.315  0.00  0.00    +0.000 A 
BRANCH  22  24
ATOM     24  C   UNL     1      46.320   2.486   7.313  0.00  0.00    +0.000 A 
ATOM     25  C   UNL     1      46.613   2.936   6.018  0.00  0.00    +0.000 A 
ATOM     26  C   UNL     1      47.198   2.084   5.077  0.00  0.00    +0.000 A 
ATOM     27  C   UNL     1      47.469   0.780   5.450  0.00  0.00    +0.000 A 
ATOM     28  N   UNL     1      47.201   0.291   6.676  0.00  0.00    +0.000 NA
ATOM     29  C   UNL     1      46.642   1.148   7.568  0.00  0.00    +0.000 A 
ENDBRANCH  22  24
ENDBRANCH  17  18
ENDBRANCH   1  17
TORSDOF 7
ENDMDL
MODEL 9
REMARK VINA RESULT:    -6.480      2.728      9.215
REMARK INTER + INTRA:          -9.627
REMARK INTER:                  -9.114
REMARK INTRA:                  -0.513
REMARK UNBOUND:                -0.495
REMARK  Name = 
REMARK  9 active torsions:
REMARK  status: ('A' for Active; 'I' for Inactive)
REMARK    1  A    between atoms: C_1  and  C_2
REMARK    2  A    between atoms: C_2  and  C_3
REMARK    3  A    between atoms: C_2  and  C_4
REMARK    4  A    between atoms: C_4  and  N_5
REMARK    5  A    between atoms: C_6  and  C_8
REMARK    6  A    between atoms: C_11  and  N_12
REMARK    7  A    between atoms: N_12  and  C_13
REMARK    8  A    between atoms: C_13  and  C_14
REMARK    9  A    between atoms: C_18  and  C_19
REMARK                            x       y       z     vdW  Elec       q    Type
REMARK                         _______ _______ _______ _____ _____    ______ ____
ROOT
ATOM      1  N   UNL     1      46.631   8.723  14.009  0.00  0.00    +0.000 N 
ATOM      2  H   UNL     1      46.017   9.523  13.872  0.00  0.00    +0.000 HD
ENDROOT
BRANCH   1   6
ATOM      3  C   UNL     1      45.451   5.802  11.334  0.00  0.00    +0.000 A 
ATOM      4  C   UNL     1      46.255   5.487  12.423  0.00  0.00    +0.000 A 
ATOM      5  N   UNL     1      46.705   6.426  13.312  0.00  0.00    +0.000 NA
ATOM      6  C   UNL     1      46.305   7.699  13.099  0.00  0.00    +0.000 A 
ATOM      7  C   UNL     1      45.460   7.981  12.015  0.00  0.00    +0.000 A 
ATOM      8  N   UNL     1      45.035   7.071  11.096  0.00  0.00    +0.000 NA
BRANCH   3  10
ATOM      9  N   UNL     1      45.540   4.833   9.105  0.00  0.00    +0.000 N 
ATOM     10  C   UNL     1      45.013   4.738  10.378  0.00  0.00    +0.000 C 
ATOM     11  O   UNL     1      44.246   3.855  10.734  0.00  0.00    +0.000 OA
ATOM     12  H   UNL     1      46.162   5.618   8.926  0.00  0.00    +0.000 HD
BRANCH   9  13
ATOM     13  C   UNL     1      45.207   3.914   8.034  0.00  0.00    +0.000 C 
BRANCH  13  15
ATOM     14  C   UNL     1      46.200   1.576   8.067  0.00  0.00    +0.000 C 
ATOM     15  C   UNL     1      46.388   3.023   7.609  0.00  0.00    +0.000 C 
ATOM     16  C   UNL     1      46.563   3.059   6.087  0.00  0.00    +0.000 C 
ENDBRANCH  13  15
ENDBRANCH   9  13
ENDBRANCH   3  10
ENDBRANCH   1   6
BRANCH   1  17
ATOM     17  C   UNL     1      48.029   9.147  13.999  0.00  0.00    +0.000 C 
BRANCH  17  18
ATOM     18  C   UNL     1      48.714   8.654  15.256  0.00  0.00    +0.000 A 
ATOM     19  C   UNL     1      49.257   9.534  16.181  0.00  0.00    +0.000 A 
ATOM     20  N   UNL     1      49.882   9.148  17.315  0.00  0.00    +0.000 NA
ATOM     21  C   UNL     1      49.979   7.816  17.540  0.00  0.00    +0.000 A 
ATOM     22  C   UNL     1      49.488   6.819  16.692  0.00  0.00    +0.000 A 
ATOM     23  C   UNL     1      48.840   7.282  15.531  0.00  0.00    +0.000 A 
BRANCH  22  24
ATOM     24  C   UNL     1      49.642   5.379  16.992  0.00  0.00    +0.000 A 
ATOM     25  C   UNL     1      48.566   4.482  16.932  0.00  0.00    +0.000 A 
ATOM     26  C   UNL     1      48.748   3.124  17.206  0.00  0.00    +0.000 A 
ATOM     27  C   UNL     1      50.014   2.686  17.550  0.00  0.00    +0.000 A 
ATOM     28  N   UNL     1      51.082   3.503  17.631  0.00  0.00    +0.000 NA
ATOM     29  C   UNL     1      50.872   4.815  17.350  0.00  0.00    +0.000 A 
ENDBRANCH  22  24
ENDBRANCH  17  18
ENDBRANCH   1  17
TORSDOF 7
ENDMDL
