MODEL 1
REMARK VINA RESULT:    -7.641      0.000      0.000
REMARK INTER + INTRA:         -11.906
REMARK INTER:                 -10.767
REMARK INTRA:                  -1.138
REMARK UNBOUND:                -1.138
REMARK  Name = 
REMARK  9 active torsions:
REMARK  status: ('A' for Active; 'I' for Inactive)
REMARK    1  A    between atoms: C_1  and  C_2
REMARK    2  A    between atoms: C_2  and  C_3
REMARK    3  A    between atoms: C_2  and  O_4
REMARK    4  A    between atoms: O_4  and  C_5
REMARK    5  A    between atoms: C_9  and  C_10
REMARK    6  A    between atoms: C_10  and  C_11
REMARK    7  A    between atoms: C_14  and  C_15
REMARK    8  A    between atoms: C_15  and  N_16
REMARK    9  A    between atoms: C_17  and  C_19
REMARK                            x       y       z     vdW  Elec       q    Type
REMARK                         _______ _______ _______ _____ _____    ______ ____
ROOT
ATOM      1  C   UNL     1      47.351   5.582  13.512  0.00  0.00    +0.000 A 
ATOM      2  C   UNL     1      46.846   4.287  13.595  0.00  0.00    +0.000 A 
ATOM      3  C   UNL     1      47.005   3.571  14.781  0.00  0.00    +0.000 A 
ATOM      4  C   UNL     1      47.661   4.155  15.866  0.00  0.00    +0.000 A 
ATOM      5  C   UNL     1      48.145   5.446  15.691  0.00  0.00    +0.000 A 
ATOM      6  N   UNL     1      48.019   6.161  14.547  0.00  0.00    +0.000 NA
ENDROOT
BRANCH   1   7
ATOM      7  C   UNL     1      47.023   6.459  12.313  0.00  0.00    +0.000 C 
BRANCH   7  12
ATOM      8  C   UNL     1      44.385   4.827  10.044  0.00  0.00    +0.000 A 
ATOM      9  C   UNL     1      43.248   5.018  10.832  0.00  0.00    +0.000 A 
ATOM     10  C   UNL     1      43.305   5.782  11.994  0.00  0.00    +0.000 A 
ATOM     11  C   UNL     1      44.516   6.316  12.418  0.00  0.00    +0.000 A 
ATOM     12  C   UNL     1      45.692   6.065  11.699  0.00  0.00    +0.000 A 
ATOM     13  C   UNL     1      45.609   5.362  10.485  0.00  0.00    +0.000 A 
BRANCH   8  14
ATOM     14  O   UNL     1      44.432   4.145   8.862  0.00  0.00    +0.000 OA
BRANCH  14  16
ATOM     15  C   UNL     1      45.076   1.835   8.904  0.00  0.00    +0.000 C 
ATOM     16  C   UNL     1      45.536   3.261   8.614  0.00  0.00    +0.000 C 
ATOM     17  C   UNL     1      45.979   3.388   7.158  0.00  0.00    +0.000 C 
ENDBRANCH  14  16
ENDBRANCH   8  14
ENDBRANCH   7  12
ENDBRANCH   1   7
BRANCH   4  18
ATOM     18  C   UNL     1      47.801   3.441  17.179  0.00  0.00    +0.000 C 
BRANCH  18  19
ATOM     19  N   UNL     1      49.184   3.270  17.558  0.00  0.00    +0.000 N 
ATOM     20  C   UNL     1      49.967   2.320  16.949  0.00  0.00    +0.000 C 
ATOM     21  O   UNL     1      49.539   1.624  16.034  0.00  0.00    +0.000 OA
ATOM     22  H   UNL     1      49.479   3.664  18.448  0.00  0.00    +0.000 HD
BRANCH  20  23
ATOM     23  C   UNL     1      51.361   2.212  17.404  0.00  0.00    +0.000 A 
ATOM     24  C   UNL     1      51.912   0.956  17.630  0.00  0.00    +0.000 A 
ATOM     25  S   UNL     1      53.545   1.001  18.118  0.00  0.00    +0.000 S 
ATOM     26  C   UNL     1      53.562   2.702  18.095  0.00  0.00    +0.000 A 
ATOM     27  N   UNL     1      54.678   3.394  18.447  0.00  0.00    +0.000 NA
ATOM     28  C   UNL     1      54.541   4.678  18.415  0.00  0.00    +0.000 A 
ATOM     29  N   UNL     1      53.392   5.332  18.054  0.00  0.00    +0.000 N 
ATOM     30  C   UNL     1      52.251   4.674  17.660  0.00  0.00    +0.000 A 
ATOM     31  O   UNL     1      51.248   5.286  17.307  0.00  0.00    +0.000 OA
ATOM     32  C   UNL     1      52.344   3.228  17.697  0.00  0.00    +0.000 A 
ATOM     33  H   UNL     1      53.354   6.340  18.039  0.00  0.00    +0.000 HD
ENDBRANCH  20  23
ENDBRANCH  18  19
ENDBRANCH   4  18
TORSDOF 7
ENDMDL
MODEL 2
REMARK VINA RESULT:    -7.592      2.851      4.327
REMARK INTER + INTRA:         -11.837
REMARK INTER:                 -10.418
REMARK INTRA:                  -1.420
REMARK UNBOUND:                -1.138
REMARK  Name = 
REMARK  9 active torsions:
REMARK  status: ('A' for Active; 'I' for Inactive)
REMARK    1  A    between atoms: C_1  and  C_2
REMARK    2  A    between atoms: C_2  and  C_3
REMARK    3  A    between atoms: C_2  and  O_4
REMARK    4  A    between atoms: O_4  and  C_5
REMARK    5  A    between atoms: C_9  and  C_10
REMARK    6  A    between atoms: C_10  and  C_11
REMARK    7  A    between atoms: C_14  and  C_15
REMARK    8  A    between atoms: C_15  and  N_16
REMARK    9  A    between atoms: C_17  and  C_19
REMARK                            x       y       z     vdW  Elec       q    Type
REMARK                         _______ _______ _______ _____ _____    ______ ____
ROOT
ATOM      1  C   UNL     1      44.803   7.189  11.525  0.00  0.00    +0.000 A 
ATOM      2  C   UNL     1      45.973   6.434  11.505  0.00  0.00    +0.000 A 
ATOM      3  C   UNL     1      47.060   6.844  12.275  0.00  0.00    +0.000 A 
ATOM      4  C   UNL     1      46.966   7.999  13.055  0.00  0.00    +0.000 A 
ATOM      5  C   UNL     1      45.766   8.698  13.005  0.00  0.00    +0.000 A 
ATOM      6  N   UNL     1      44.698   8.333  12.254  0.00  0.00    +0.000 NA
ENDROOT
BRANCH   1   7
ATOM      7  C   UNL     1      43.539   6.665  10.858  0.00  0.00    +0.000 C 
BRANCH   7  12
ATOM      8  C   UNL     1      44.227   3.108   9.578  0.00  0.00    +0.000 A 
ATOM      9  C   UNL     1      43.986   2.386  10.750  0.00  0.00    +0.000 A 
ATOM     10  C   UNL     1      43.474   3.014  11.882  0.00  0.00    +0.000 A 
ATOM     11  C   UNL     1      43.251   4.386  11.877  0.00  0.00    +0.000 A 
ATOM     12  C   UNL     1      43.570   5.152  10.748  0.00  0.00    +0.000 A 
ATOM     13  C   UNL     1      44.010   4.497   9.584  0.00  0.00    +0.000 A 
BRANCH   8  14
ATOM     14  O   UNL     1      44.676   2.587   8.398  0.00  0.00    +0.000 OA
BRANCH  14  16
ATOM     15  C   UNL     1      46.489   1.092   7.923  0.00  0.00    +0.000 C 
ATOM     16  C   UNL     1      46.089   2.548   8.150  0.00  0.00    +0.000 C 
ATOM     17  C   UNL     1      46.417   3.384   6.915  0.00  0.00    +0.000 C 
ENDBRANCH  14  16
ENDBRANCH   8  14
ENDBRANCH   7  12
ENDBRANCH   1   7
BRANCH   4  18
ATOM     18  C   UNL     1      48.090   8.443  13.944  0.00  0.00    +0.000 C 
BRANCH  18  19
ATOM     19  N   UNL     1      48.252   7.575  15.087  0.00  0.00    +0.000 N 
ATOM     20  C   UNL     1      49.446   6.939  15.324  0.00  0.00    +0.000 C 
ATOM     21  O   UNL     1      50.426   7.123  14.609  0.00  0.00    +0.000 OA
ATOM     22  H   UNL     1      47.408   7.237  15.543  0.00  0.00    +0.000 HD
BRANCH  20  23
ATOM     23  C   UNL     1      49.516   6.069  16.508  0.00  0.00    +0.000 A 
ATOM     24  C   UNL     1      50.507   6.286  17.458  0.00  0.00    +0.000 A 
ATOM     25  S   UNL     1      50.431   5.217  18.784  0.00  0.00    +0.000 S 
ATOM     26  C   UNL     1      49.102   4.393  18.113  0.00  0.00    +0.000 A 
ATOM     27  N   UNL     1      48.551   3.324  18.748  0.00  0.00    +0.000 NA
ATOM     28  C   UNL     1      47.570   2.775  18.112  0.00  0.00    +0.000 A 
ATOM     29  N   UNL     1      47.085   3.204  16.904  0.00  0.00    +0.000 N 
ATOM     30  C   UNL     1      47.589   4.299  16.243  0.00  0.00    +0.000 A 
ATOM     31  O   UNL     1      47.111   4.681  15.180  0.00  0.00    +0.000 OA
ATOM     32  C   UNL     1      48.707   4.941  16.905  0.00  0.00    +0.000 A 
ATOM     33  H   UNL     1      46.306   2.736  16.464  0.00  0.00    +0.000 HD
ENDBRANCH  20  23
ENDBRANCH  18  19
ENDBRANCH   4  18
TORSDOF 7
ENDMDL
MODEL 3
REMARK VINA RESULT:    -7.168      3.206      4.524
REMARK INTER + INTRA:         -11.239
REMARK INTER:                 -10.144
REMARK INTRA:                  -1.096
REMARK UNBOUND:                -1.138
REMARK  Name = 
REMARK  9 active torsions:
REMARK  status: ('A' for Active; 'I' for Inactive)
REMARK    1  A    between atoms: C_1  and  C_2
REMARK    2  A    between atoms: C_2  and  C_3
REMARK    3  A    between atoms: C_2  and  O_4
REMARK    4  A    between atoms: O_4  and  C_5
REMARK    5  A    between atoms: C_9  and  C_10
REMARK    6  A    between atoms: C_10  and  C_11
REMARK    7  A    between atoms: C_14  and  C_15
REMARK    8  A    between atoms: C_15  and  N_16
REMARK    9  A    between atoms: C_17  and  C_19
REMARK                            x       y       z     vdW  Elec       q    Type
REMARK                         _______ _______ _______ _____ _____    ______ ____
ROOT
ATOM      1  C   UNL     1      45.601   5.878  11.835  0.00  0.00    +0.000 A 
ATOM      2  C   UNL     1      45.844   5.094  12.959  0.00  0.00    +0.000 A 
ATOM      3  C   UNL     1      46.896   5.432  13.809  0.00  0.00    +0.000 A 
ATOM      4  C   UNL     1      47.690   6.546  13.528  0.00  0.00    +0.000 A 
ATOM      5  C   UNL     1      47.384   7.264  12.378  0.00  0.00    +0.000 A 
ATOM      6  N   UNL     1      46.378   6.951  11.525  0.00  0.00    +0.000 NA
ENDROOT
BRANCH   1   7
ATOM      7  C   UNL     1      44.346   5.658  11.002  0.00  0.00    +0.000 C 
BRANCH   7  12
ATOM      8  C   UNL     1      45.544   3.269   8.242  0.00  0.00    +0.000 A 
ATOM      9  C   UNL     1      45.048   2.064   8.743  0.00  0.00    +0.000 A 
ATOM     10  C   UNL     1      44.223   2.043   9.865  0.00  0.00    +0.000 A 
ATOM     11  C   UNL     1      43.932   3.224  10.537  0.00  0.00    +0.000 A 
ATOM     12  C   UNL     1      44.490   4.438  10.113  0.00  0.00    +0.000 A 
ATOM     13  C   UNL     1      45.254   4.459   8.934  0.00  0.00    +0.000 A 
BRANCH   8  14
ATOM     14  O   UNL     1      46.314   3.412   7.122  0.00  0.00    +0.000 OA
BRANCH  14  16
ATOM     15  C   UNL     1      47.171   2.672   5.009  0.00  0.00    +0.000 C 
ATOM     16  C   UNL     1      46.705   2.237   6.396  0.00  0.00    +0.000 C 
ATOM     17  C   UNL     1      47.839   1.531   7.136  0.00  0.00    +0.000 C 
ENDBRANCH  14  16
ENDBRANCH   8  14
ENDBRANCH   7  12
ENDBRANCH   1   7
BRANCH   4  18
ATOM     18  C   UNL     1      48.795   6.978  14.447  0.00  0.00    +0.000 C 
BRANCH  18  19
ATOM     19  N   UNL     1      48.496   6.682  15.828  0.00  0.00    +0.000 N 
ATOM     20  C   UNL     1      49.465   6.182  16.665  0.00  0.00    +0.000 C 
ATOM     21  O   UNL     1      50.621   6.018  16.286  0.00  0.00    +0.000 OA
ATOM     22  H   UNL     1      47.518   6.592  16.089  0.00  0.00    +0.000 HD
BRANCH  20  23
ATOM     23  C   UNL     1      49.069   5.903  18.053  0.00  0.00    +0.000 A 
ATOM     24  C   UNL     1      49.237   4.624  18.569  0.00  0.00    +0.000 A 
ATOM     25  S   UNL     1      48.763   4.475  20.200  0.00  0.00    +0.000 S 
ATOM     26  C   UNL     1      48.269   6.101  20.263  0.00  0.00    +0.000 A 
ATOM     27  N   UNL     1      47.728   6.623  21.395  0.00  0.00    +0.000 NA
ATOM     28  C   UNL     1      47.368   7.860  21.293  0.00  0.00    +0.000 A 
ATOM     29  N   UNL     1      47.509   8.623  20.164  0.00  0.00    +0.000 N 
ATOM     30  C   UNL     1      48.081   8.147  19.007  0.00  0.00    +0.000 A 
ATOM     31  O   UNL     1      48.227   8.864  18.023  0.00  0.00    +0.000 OA
ATOM     32  C   UNL     1      48.484   6.756  19.062  0.00  0.00    +0.000 A 
ATOM     33  H   UNL     1      47.217   9.589  20.153  0.00  0.00    +0.000 HD
ENDBRANCH  20  23
ENDBRANCH  18  19
ENDBRANCH   4  18
TORSDOF 7
ENDMDL
MODEL 4
REMARK VINA RESULT:    -7.126      3.804      9.118
REMARK INTER + INTRA:         -11.180
REMARK INTER:                  -9.567
REMARK INTRA:                  -1.613
REMARK UNBOUND:                -1.138
REMARK  Name = 
REMARK  9 active torsions:
REMARK  status: ('A' for Active; 'I' for Inactive)
REMARK    1  A    between atoms: C_1  and  C_2
REMARK    2  A    between atoms: C_2  and  C_3
REMARK    3  A    between atoms: C_2  and  O_4
REMARK    4  A    between atoms: O_4  and  C_5
REMARK    5  A    between atoms: C_9  and  C_10
REMARK    6  A    between atoms: C_10  and  C_11
REMARK    7  A    between atoms: C_14  and  C_15
REMARK    8  A    between atoms: C_15  and  N_16
REMARK    9  A    between atoms: C_17  and  C_19
REMARK                            x       y       z     vdW  Elec       q    Type
REMARK                         _______ _______ _______ _____ _____    ______ ____
ROOT
ATOM      1  C   UNL     1      49.467   8.611  15.722  0.00  0.00    +0.000 A 
ATOM      2  C   UNL     1      48.232   9.136  15.350  0.00  0.00    +0.000 A 
ATOM      3  C   UNL     1      47.778   8.945  14.045  0.00  0.00    +0.000 A 
ATOM      4  C   UNL     1      48.558   8.233  13.132  0.00  0.00    +0.000 A 
ATOM      5  C   UNL     1      49.782   7.756  13.586  0.00  0.00    +0.000 A 
ATOM      6  N   UNL     1      50.257   7.938  14.842  0.00  0.00    +0.000 NA
ENDROOT
BRANCH   1   7
ATOM      7  C   UNL     1      49.899   8.627  17.181  0.00  0.00    +0.000 C 
BRANCH   7  12
ATOM      8  C   UNL     1      48.732   5.339  18.793  0.00  0.00    +0.000 A 
ATOM      9  C   UNL     1      47.912   5.850  19.801  0.00  0.00    +0.000 A 
ATOM     10  C   UNL     1      47.627   7.212  19.867  0.00  0.00    +0.000 A 
ATOM     11  C   UNL     1      48.207   8.090  18.960  0.00  0.00    +0.000 A 
ATOM     12  C   UNL     1      49.107   7.620  17.994  0.00  0.00    +0.000 A 
ATOM     13  C   UNL     1      49.324   6.235  17.884  0.00  0.00    +0.000 A 
BRANCH   8  14
ATOM     14  O   UNL     1      49.034   4.021  18.600  0.00  0.00    +0.000 OA
BRANCH  14  16
ATOM     15  C   UNL     1      49.661   2.257  17.103  0.00  0.00    +0.000 C 
ATOM     16  C   UNL     1      48.687   3.405  17.351  0.00  0.00    +0.000 C 
ATOM     17  C   UNL     1      47.256   2.878  17.419  0.00  0.00    +0.000 C 
ENDBRANCH  14  16
ENDBRANCH   8  14
ENDBRANCH   7  12
ENDBRANCH   1   7
BRANCH   4  18
ATOM     18  C   UNL     1      48.081   7.954  11.737  0.00  0.00    +0.000 C 
BRANCH  18  19
ATOM     19  N   UNL     1      47.294   6.745  11.666  0.00  0.00    +0.000 N 
ATOM     20  C   UNL     1      45.921   6.798  11.691  0.00  0.00    +0.000 C 
ATOM     21  O   UNL     1      45.319   7.867  11.721  0.00  0.00    +0.000 OA
ATOM     22  H   UNL     1      47.762   5.867  11.872  0.00  0.00    +0.000 HD
BRANCH  20  23
ATOM     23  C   UNL     1      45.202   5.518  11.621  0.00  0.00    +0.000 A 
ATOM     24  C   UNL     1      44.534   5.046  12.745  0.00  0.00    +0.000 A 
ATOM     25  S   UNL     1      43.722   3.569  12.490  0.00  0.00    +0.000 S 
ATOM     26  C   UNL     1      44.275   3.478  10.884  0.00  0.00    +0.000 A 
ATOM     27  N   UNL     1      43.956   2.419  10.094  0.00  0.00    +0.000 NA
ATOM     28  C   UNL     1      44.469   2.464   8.909  0.00  0.00    +0.000 A 
ATOM     29  N   UNL     1      45.263   3.478   8.440  0.00  0.00    +0.000 N 
ATOM     30  C   UNL     1      45.584   4.584   9.192  0.00  0.00    +0.000 A 
ATOM     31  O   UNL     1      46.267   5.493   8.733  0.00  0.00    +0.000 OA
ATOM     32  C   UNL     1      45.050   4.573  10.539  0.00  0.00    +0.000 A 
ATOM     33  H   UNL     1      45.624   3.458   7.498  0.00  0.00    +0.000 HD
ENDBRANCH  20  23
ENDBRANCH  18  19
ENDBRANCH   4  18
TORSDOF 7
ENDMDL
MODEL 5
REMARK VINA RESULT:    -7.085      3.767      4.913
REMARK INTER + INTRA:         -11.123
REMARK INTER:                 -10.092
REMARK INTRA:                  -1.030
REMARK UNBOUND:                -1.138
REMARK  Name = 
REMARK  9 active torsions:
REMARK  status: ('A' for Active; 'I' for Inactive)
REMARK    1  A    between atoms: C_1  and  C_2
REMARK    2  A    between atoms: C_2  and  C_3
REMARK    3  A    between atoms: C_2  and  O_4
REMARK    4  A    between atoms: O_4  and  C_5
REMARK    5  A    between atoms: C_9  and  C_10
REMARK    6  A    between atoms: C_10  and  C_11
REMARK    7  A    between atoms: C_14  and  C_15
REMARK    8  A    between atoms: C_15  and  N_16
REMARK    9  A    between atoms: C_17  and  C_19
REMARK                            x       y       z     vdW  Elec       q    Type
REMARK                         _______ _______ _______ _____ _____    ______ ____
ROOT
ATOM      1  C   UNL     1      45.799   6.000  11.931  0.00  0.00    +0.000 A 
ATOM      2  C   UNL     1      45.910   5.186  13.055  0.00  0.00    +0.000 A 
ATOM      3  C   UNL     1      46.940   5.420  13.965  0.00  0.00    +0.000 A 
ATOM      4  C   UNL     1      47.843   6.462  13.743  0.00  0.00    +0.000 A 
ATOM      5  C   UNL     1      47.666   7.216  12.589  0.00  0.00    +0.000 A 
ATOM      6  N   UNL     1      46.684   7.003  11.679  0.00  0.00    +0.000 NA
ENDROOT
BRANCH   1   7
ATOM      7  C   UNL     1      44.578   5.901  11.028  0.00  0.00    +0.000 C 
BRANCH   7  12
ATOM      8  C   UNL     1      45.660   3.423   8.298  0.00  0.00    +0.000 A 
ATOM      9  C   UNL     1      45.068   2.258   8.790  0.00  0.00    +0.000 A 
ATOM     10  C   UNL     1      44.220   2.300   9.894  0.00  0.00    +0.000 A 
ATOM     11  C   UNL     1      44.000   3.501  10.558  0.00  0.00    +0.000 A 
ATOM     12  C   UNL     1      44.653   4.670  10.145  0.00  0.00    +0.000 A 
ATOM     13  C   UNL     1      45.441   4.633   8.982  0.00  0.00    +0.000 A 
BRANCH   8  14
ATOM     14  O   UNL     1      46.462   3.507   7.195  0.00  0.00    +0.000 OA
BRANCH  14  16
ATOM     15  C   UNL     1      46.899   2.712   4.976  0.00  0.00    +0.000 C 
ATOM     16  C   UNL     1      46.729   2.316   6.440  0.00  0.00    +0.000 C 
ATOM     17  C   UNL     1      48.003   1.654   6.959  0.00  0.00    +0.000 C 
ENDBRANCH  14  16
ENDBRANCH   8  14
ENDBRANCH   7  12
ENDBRANCH   1   7
BRANCH   4  18
ATOM     18  C   UNL     1      48.929   6.786  14.727  0.00  0.00    +0.000 C 
BRANCH  18  19
ATOM     19  N   UNL     1      48.410   6.995  16.058  0.00  0.00    +0.000 N 
ATOM     20  C   UNL     1      49.245   7.343  17.092  0.00  0.00    +0.000 C 
ATOM     21  O   UNL     1      50.443   7.538  16.914  0.00  0.00    +0.000 OA
ATOM     22  H   UNL     1      47.488   6.620  16.266  0.00  0.00    +0.000 HD
BRANCH  20  23
ATOM     23  C   UNL     1      48.629   7.528  18.414  0.00  0.00    +0.000 A 
ATOM     24  C   UNL     1      48.222   8.797  18.808  0.00  0.00    +0.000 A 
ATOM     25  S   UNL     1      47.497   8.837  20.350  0.00  0.00    +0.000 S 
ATOM     26  C   UNL     1      47.744   7.169  20.571  0.00  0.00    +0.000 A 
ATOM     27  N   UNL     1      47.368   6.554  21.723  0.00  0.00    +0.000 NA
ATOM     28  C   UNL     1      47.644   5.292  21.768  0.00  0.00    +0.000 A 
ATOM     29  N   UNL     1      48.254   4.590  20.761  0.00  0.00    +0.000 N 
ATOM     30  C   UNL     1      48.621   5.164  19.567  0.00  0.00    +0.000 A 
ATOM     31  O   UNL     1      49.133   4.502  18.669  0.00  0.00    +0.000 OA
ATOM     32  C   UNL     1      48.352   6.584  19.472  0.00  0.00    +0.000 A 
ATOM     33  H   UNL     1      48.432   3.601  20.855  0.00  0.00    +0.000 HD
ENDBRANCH  20  23
ENDBRANCH  18  19
ENDBRANCH   4  18
TORSDOF 7
ENDMDL
MODEL 6
REMARK VINA RESULT:    -6.947      3.418      8.997
REMARK INTER + INTRA:         -10.928
REMARK INTER:                  -9.333
REMARK INTRA:                  -1.595
REMARK UNBOUND:                -1.138
REMARK  Name = 
REMARK  9 active torsions:
REMARK  status: ('A' for Active; 'I' for Inactive)
REMARK    1  A    between atoms: C_1  and  C_2
REMARK    2  A    between atoms: C_2  and  C_3
REMARK    3  A    between atoms: C_2  and  O_4
REMARK    4  A    between atoms: O_4  and  C_5
REMARK    5  A    between atoms: C_9  and  C_10
REMARK    6  A    between atoms: C_10  and  C_11
REMARK    7  A    between atoms: C_14  and  C_15
REMARK    8  A    between atoms: C_15  and  N_16
REMARK    9  A    between atoms: C_17  and  C_19
REMARK                            x       y       z     vdW  Elec       q    Type
REMARK                         _______ _______ _______ _____ _____    ______ ____
ROOT
ATOM      1  C   UNL     1      50.955   4.409  18.330  0.00  0.00    +0.000 A 
ATOM      2  C   UNL     1      50.793   3.250  17.576  0.00  0.00    +0.000 A 
ATOM      3  C   UNL     1      49.520   2.907  17.123  0.00  0.00    +0.000 A 
ATOM      4  C   UNL     1      48.428   3.723  17.425  0.00  0.00    +0.000 A 
ATOM      5  C   UNL     1      48.680   4.854  18.193  0.00  0.00    +0.000 A 
ATOM      6  N   UNL     1      49.902   5.205  18.661  0.00  0.00    +0.000 NA
ENDROOT
BRANCH   1   7
ATOM      7  C   UNL     1      52.350   4.916  18.668  0.00  0.00    +0.000 C 
BRANCH   7  12
ATOM      8  C   UNL     1      53.333   6.970  15.573  0.00  0.00    +0.000 A 
ATOM      9  C   UNL     1      54.634   6.498  15.381  0.00  0.00    +0.000 A 
ATOM     10  C   UNL     1      55.128   5.440  16.140  0.00  0.00    +0.000 A 
ATOM     11  C   UNL     1      54.347   4.878  17.143  0.00  0.00    +0.000 A 
ATOM     12  C   UNL     1      53.073   5.391  17.422  0.00  0.00    +0.000 A 
ATOM     13  C   UNL     1      52.553   6.404  16.597  0.00  0.00    +0.000 A 
BRANCH   8  14
ATOM     14  O   UNL     1      52.730   7.962  14.853  0.00  0.00    +0.000 OA
BRANCH  14  16
ATOM     15  C   UNL     1      51.269   9.756  15.480  0.00  0.00    +0.000 C 
ATOM     16  C   UNL     1      51.355   8.275  15.122  0.00  0.00    +0.000 C 
ATOM     17  C   UNL     1      50.510   7.982  13.884  0.00  0.00    +0.000 C 
ENDBRANCH  14  16
ENDBRANCH   8  14
ENDBRANCH   7  12
ENDBRANCH   1   7
BRANCH   4  18
ATOM     18  C   UNL     1      47.052   3.423  16.907  0.00  0.00    +0.000 C 
BRANCH  18  19
ATOM     19  N   UNL     1      46.617   4.394  15.930  0.00  0.00    +0.000 N 
ATOM     20  C   UNL     1      46.835   4.188  14.589  0.00  0.00    +0.000 C 
ATOM     21  O   UNL     1      47.355   3.157  14.173  0.00  0.00    +0.000 OA
ATOM     22  H   UNL     1      46.404   5.331  16.262  0.00  0.00    +0.000 HD
BRANCH  20  23
ATOM     23  C   UNL     1      46.365   5.233  13.668  0.00  0.00    +0.000 A 
ATOM     24  C   UNL     1      47.179   6.328  13.403  0.00  0.00    +0.000 A 
ATOM     25  S   UNL     1      46.504   7.429  12.290  0.00  0.00    +0.000 S 
ATOM     26  C   UNL     1      45.079   6.510  12.160  0.00  0.00    +0.000 A 
ATOM     27  N   UNL     1      44.054   6.921  11.367  0.00  0.00    +0.000 NA
ATOM     28  C   UNL     1      43.021   6.144  11.387  0.00  0.00    +0.000 A 
ATOM     29  N   UNL     1      42.927   4.990  12.119  0.00  0.00    +0.000 N 
ATOM     30  C   UNL     1      43.950   4.519  12.907  0.00  0.00    +0.000 A 
ATOM     31  O   UNL     1      43.851   3.463  13.523  0.00  0.00    +0.000 OA
ATOM     32  C   UNL     1      45.127   5.365  12.937  0.00  0.00    +0.000 A 
ATOM     33  H   UNL     1      42.094   4.421  12.081  0.00  0.00    +0.000 HD
ENDBRANCH  20  23
ENDBRANCH  18  19
ENDBRANCH   4  18
TORSDOF 7
ENDMDL
MODEL 7
REMARK VINA RESULT:    -6.883      3.570      4.649
REMARK INTER + INTRA:         -10.838
REMARK INTER:                  -9.919
REMARK INTRA:                  -0.918
REMARK UNBOUND:                -1.138
REMARK  Name = 
REMARK  9 active torsions:
REMARK  status: ('A' for Active; 'I' for Inactive)
REMARK    1  A    between atoms: C_1  and  C_2
REMARK    2  A    between atoms: C_2  and  C_3
REMARK    3  A    between atoms: C_2  and  O_4
REMARK    4  A    between atoms: O_4  and  C_5
REMARK    5  A    between atoms: C_9  and  C_10
REMARK    6  A    between atoms: C_10  and  C_11
REMARK    7  A    between atoms: C_14  and  C_15
REMARK    8  A    between atoms: C_15  and  N_16
REMARK    9  A    between atoms: C_17  and  C_19
REMARK                            x       y       z     vdW  Elec       q    Type
REMARK                         _______ _______ _______ _____ _____    ______ ____
ROOT
ATOM      1  C   UNL     1      46.092   7.326  12.289  0.00  0.00    +0.000 A 
ATOM      2  C   UNL     1      46.970   6.250  12.188  0.00  0.00    +0.000 A 
ATOM      3  C   UNL     1      48.142   6.255  12.943  0.00  0.00    +0.000 A 
ATOM      4  C   UNL     1      48.423   7.331  13.788  0.00  0.00    +0.000 A 
ATOM      5  C   UNL     1      47.498   8.368  13.817  0.00  0.00    +0.000 A 
ATOM      6  N   UNL     1      46.358   8.398  13.084  0.00  0.00    +0.000 NA
ENDROOT
BRANCH   1   7
ATOM      7  C   UNL     1      44.718   7.261  11.638  0.00  0.00    +0.000 C 
BRANCH   7  12
ATOM      8  C   UNL     1      43.861   3.611  10.794  0.00  0.00    +0.000 A 
ATOM      9  C   UNL     1      43.443   3.171  12.052  0.00  0.00    +0.000 A 
ATOM     10  C   UNL     1      43.303   4.065  13.110  0.00  0.00    +0.000 A 
ATOM     11  C   UNL     1      43.636   5.404  12.940  0.00  0.00    +0.000 A 
ATOM     12  C   UNL     1      44.146   5.858  11.716  0.00  0.00    +0.000 A 
ATOM     13  C   UNL     1      44.207   4.965  10.632  0.00  0.00    +0.000 A 
BRANCH   8  14
ATOM     14  O   UNL     1      43.982   2.835   9.677  0.00  0.00    +0.000 OA
BRANCH  14  16
ATOM     15  C   UNL     1      45.613   1.434   8.617  0.00  0.00    +0.000 C 
ATOM     16  C   UNL     1      45.211   2.871   8.937  0.00  0.00    +0.000 C 
ATOM     17  C   UNL     1      45.011   3.663   7.647  0.00  0.00    +0.000 C 
ENDBRANCH  14  16
ENDBRANCH   8  14
ENDBRANCH   7  12
ENDBRANCH   1   7
BRANCH   4  18
ATOM     18  C   UNL     1      49.643   7.350  14.661  0.00  0.00    +0.000 C 
BRANCH  18  19
ATOM     19  N   UNL     1      49.303   7.407  16.064  0.00  0.00    +0.000 N 
ATOM     20  C   UNL     1      48.842   6.293  16.723  0.00  0.00    +0.000 C 
ATOM     21  O   UNL     1      48.752   5.205  16.161  0.00  0.00    +0.000 OA
ATOM     22  H   UNL     1      49.152   8.326  16.473  0.00  0.00    +0.000 HD
BRANCH  20  23
ATOM     23  C   UNL     1      48.515   6.447  18.148  0.00  0.00    +0.000 A 
ATOM     24  C   UNL     1      48.645   5.358  19.001  0.00  0.00    +0.000 A 
ATOM     25  S   UNL     1      48.262   5.710  20.624  0.00  0.00    +0.000 S 
ATOM     26  C   UNL     1      47.858   7.317  20.239  0.00  0.00    +0.000 A 
ATOM     27  N   UNL     1      47.413   8.174  21.196  0.00  0.00    +0.000 NA
ATOM     28  C   UNL     1      47.113   9.352  20.758  0.00  0.00    +0.000 A 
ATOM     29  N   UNL     1      47.228   9.752  19.452  0.00  0.00    +0.000 N 
ATOM     30  C   UNL     1      47.704   8.930  18.458  0.00  0.00    +0.000 A 
ATOM     31  O   UNL     1      47.830   9.327  17.304  0.00  0.00    +0.000 OA
ATOM     32  C   UNL     1      48.036   7.588  18.893  0.00  0.00    +0.000 A 
ATOM     33  H   UNL     1      46.986  10.692  19.177  0.00  0.00    +0.000 HD
ENDBRANCH  20  23
ENDBRANCH  18  19
ENDBRANCH   4  18
TORSDOF 7
ENDMDL
MODEL 8
REMARK VINA RESULT:    -6.580      3.534      9.100
REMARK INTER + INTRA:         -10.410
REMARK INTER:                  -9.600
REMARK INTRA:                  -0.810
REMARK UNBOUND:                -1.138
REMARK  Name = 
REMARK  9 active torsions:
REMARK  status: ('A' for Active; 'I' for Inactive)
REMARK    1  A    between atoms: C_1  and  C_2
REMARK    2  A    between atoms: C_2  and  C_3
REMARK    3  A    between atoms: C_2  and  O_4
REMARK    4  A    between atoms: O_4  and  C_5
REMARK    5  A    between atoms: C_9  and  C_10
REMARK    6  A    between atoms: C_10  and  C_11
REMARK    7  A    between atoms: C_14  and  C_15
REMARK    8  A    between atoms: C_15  and  N_16
REMARK    9  A    between atoms: C_17  and  C_19
REMARK                            x       y       z     vdW  Elec       q    Type
REMARK                         _______ _______ _______ _____ _____    ______ ____
ROOT
ATOM      1  C   UNL     1      49.977   8.055  15.707  0.00  0.00    +0.000 A 
ATOM      2  C   UNL     1      48.883   8.914  15.753  0.00  0.00    +0.000 A 
ATOM      3  C   UNL     1      48.011   8.963  14.666  0.00  0.00    +0.000 A 
ATOM      4  C   UNL     1      48.240   8.154  13.551  0.00  0.00    +0.000 A 
ATOM      5  C   UNL     1      49.364   7.336  13.585  0.00  0.00    +0.000 A 
ATOM      6  N   UNL     1      50.237   7.278  14.620  0.00  0.00    +0.000 NA
ENDROOT
BRANCH   1   7
ATOM      7  C   UNL     1      50.830   7.830  16.948  0.00  0.00    +0.000 C 
BRANCH   7  12
ATOM      8  C   UNL     1      49.533   4.328  17.850  0.00  0.00    +0.000 A 
ATOM      9  C   UNL     1      50.731   3.612  17.793  0.00  0.00    +0.000 A 
ATOM     10  C   UNL     1      51.946   4.267  17.612  0.00  0.00    +0.000 A 
ATOM     11  C   UNL     1      51.973   5.645  17.426  0.00  0.00    +0.000 A 
ATOM     12  C   UNL     1      50.781   6.379  17.386  0.00  0.00    +0.000 A 
ATOM     13  C   UNL     1      49.568   5.720  17.651  0.00  0.00    +0.000 A 
BRANCH   8  14
ATOM     14  O   UNL     1      48.295   3.796  18.077  0.00  0.00    +0.000 OA
BRANCH  14  16
ATOM     15  C   UNL     1      47.242   4.292  15.981  0.00  0.00    +0.000 C 
ATOM     16  C   UNL     1      47.589   3.193  16.982  0.00  0.00    +0.000 C 
ATOM     17  C   UNL     1      48.472   2.137  16.321  0.00  0.00    +0.000 C 
ENDBRANCH  14  16
ENDBRANCH   8  14
ENDBRANCH   7  12
ENDBRANCH   1   7
BRANCH   4  18
ATOM     18  C   UNL     1      47.295   8.131  12.386  0.00  0.00    +0.000 C 
BRANCH  18  19
ATOM     19  N   UNL     1      46.668   6.840  12.223  0.00  0.00    +0.000 N 
ATOM     20  C   UNL     1      45.382   6.738  11.749  0.00  0.00    +0.000 C 
ATOM     21  O   UNL     1      44.744   7.727  11.400  0.00  0.00    +0.000 OA
ATOM     22  H   UNL     1      47.082   6.051  12.713  0.00  0.00    +0.000 HD
BRANCH  20  23
ATOM     23  C   UNL     1      44.822   5.384  11.622  0.00  0.00    +0.000 A 
ATOM     24  C   UNL     1      44.152   4.818  12.700  0.00  0.00    +0.000 A 
ATOM     25  S   UNL     1      43.534   3.261  12.380  0.00  0.00    +0.000 S 
ATOM     26  C   UNL     1      44.183   3.265  10.808  0.00  0.00    +0.000 A 
ATOM     27  N   UNL     1      44.035   2.191   9.989  0.00  0.00    +0.000 NA
ATOM     28  C   UNL     1      44.605   2.317   8.836  0.00  0.00    +0.000 A 
ATOM     29  N   UNL     1      45.300   3.425   8.426  0.00  0.00    +0.000 N 
ATOM     30  C   UNL     1      45.447   4.546   9.208  0.00  0.00    +0.000 A 
ATOM     31  O   UNL     1      46.044   5.537   8.801  0.00  0.00    +0.000 OA
ATOM     32  C   UNL     1      44.842   4.449  10.522  0.00  0.00    +0.000 A 
ATOM     33  H   UNL     1      45.713   3.464   7.506  0.00  0.00    +0.000 HD
ENDBRANCH  20  23
ENDBRANCH  18  19
ENDBRANCH   4  18
TORSDOF 7
ENDMDL
MODEL 9
REMARK VINA RESULT:    -6.542      1.794      2.822
REMARK INTER + INTRA:         -10.357
REMARK INTER:                  -9.374
REMARK INTRA:                  -0.982
REMARK UNBOUND:                -1.138
REMARK  Name = 
REMARK  9 active torsions:
REMARK  status: ('A' for Active; 'I' for Inactive)
REMARK    1  A    between atoms: C_1  and  C_2
REMARK    2  A    between atoms: C_2  and  C_3
REMARK    3  A    between atoms: C_2  and  O_4
REMARK    4  A    between atoms: O_4  and  C_5
REMARK    5  A    between atoms: C_9  and  C_10
REMARK    6  A    between atoms: C_10  and  C_11
REMARK    7  A    between atoms: C_14  and  C_15
REMARK    8  A    between atoms: C_15  and  N_16
REMARK    9  A    between atoms: C_17  and  C_19
REMARK                            x       y       z     vdW  Elec       q    Type
REMARK                         _______ _______ _______ _____ _____    ______ ____
ROOT
ATOM      1  C   UNL     1      47.244   7.355  12.826  0.00  0.00    +0.000 A 
ATOM      2  C   UNL     1      47.752   6.178  13.369  0.00  0.00    +0.000 A 
ATOM      3  C   UNL     1      48.397   6.221  14.604  0.00  0.00    +0.000 A 
ATOM      4  C   UNL     1      48.526   7.436  15.281  0.00  0.00    +0.000 A 
ATOM      5  C   UNL     1      48.002   8.563  14.660  0.00  0.00    +0.000 A 
ATOM      6  N   UNL     1      47.383   8.554  13.454  0.00  0.00    +0.000 NA
ENDROOT
BRANCH   1   7
ATOM      7  C   UNL     1      46.365   7.312  11.585  0.00  0.00    +0.000 C 
BRANCH   7  12
ATOM      8  C   UNL     1      44.341   4.160  10.727  0.00  0.00    +0.000 A 
ATOM      9  C   UNL     1      43.834   3.855  11.992  0.00  0.00    +0.000 A 
ATOM     10  C   UNL     1      44.019   4.725  13.064  0.00  0.00    +0.000 A 
ATOM     11  C   UNL     1      44.767   5.884  12.898  0.00  0.00    +0.000 A 
ATOM     12  C   UNL     1      45.367   6.172  11.665  0.00  0.00    +0.000 A 
ATOM     13  C   UNL     1      45.106   5.330  10.570  0.00  0.00    +0.000 A 
BRANCH   8  14
ATOM     14  O   UNL     1      44.174   3.410   9.598  0.00  0.00    +0.000 OA
BRANCH  14  16
ATOM     15  C   UNL     1      45.156   1.397   8.743  0.00  0.00    +0.000 C 
ATOM     16  C   UNL     1      45.335   2.902   8.925  0.00  0.00    +0.000 C 
ATOM     17  C   UNL     1      45.480   3.584   7.567  0.00  0.00    +0.000 C 
ENDBRANCH  14  16
ENDBRANCH   8  14
ENDBRANCH   7  12
ENDBRANCH   1   7
BRANCH   4  18
ATOM     18  C   UNL     1      49.160   7.518  16.639  0.00  0.00    +0.000 C 
BRANCH  18  19
ATOM     19  N   UNL     1      50.122   6.461  16.852  0.00  0.00    +0.000 N 
ATOM     20  C   UNL     1      50.520   6.118  18.121  0.00  0.00    +0.000 C 
ATOM     21  O   UNL     1      50.039   6.656  19.114  0.00  0.00    +0.000 OA
ATOM     22  H   UNL     1      50.688   6.174  16.057  0.00  0.00    +0.000 HD
BRANCH  20  23
ATOM     23  C   UNL     1      51.508   5.036  18.242  0.00  0.00    +0.000 A 
ATOM     24  C   UNL     1      52.764   5.312  18.769  0.00  0.00    +0.000 A 
ATOM     25  S   UNL     1      53.778   3.945  18.874  0.00  0.00    +0.000 S 
ATOM     26  C   UNL     1      52.595   2.944  18.172  0.00  0.00    +0.000 A 
ATOM     27  N   UNL     1      52.840   1.626  17.947  0.00  0.00    +0.000 NA
ATOM     28  C   UNL     1      51.867   0.993  17.380  0.00  0.00    +0.000 A 
ATOM     29  N   UNL     1      50.669   1.557  17.027  0.00  0.00    +0.000 N 
ATOM     30  C   UNL     1      50.365   2.877  17.266  0.00  0.00    +0.000 A 
ATOM     31  O   UNL     1      49.271   3.346  16.972  0.00  0.00    +0.000 OA
ATOM     32  C   UNL     1      51.432   3.639  17.883  0.00  0.00    +0.000 A 
ATOM     33  H   UNL     1      49.944   1.003  16.596  0.00  0.00    +0.000 HD
ENDBRANCH  20  23
ENDBRANCH  18  19
ENDBRANCH   4  18
TORSDOF 7
ENDMDL
