MODEL 1
REMARK VINA RESULT:    -7.494      0.000      0.000
REMARK INTER + INTRA:         -11.920
REMARK INTER:                 -10.999
REMARK INTRA:                  -0.921
REMARK UNBOUND:                -0.921
REMARK  Name = 
REMARK  11 active torsions:
REMARK  status: ('A' for Active; 'I' for Inactive)
REMARK    1  A    between atoms: C_1  and  C_2
REMARK    2  A    between atoms: C_2  and  C_3
REMARK    3  A    between atoms: C_2  and  C_4
REMARK    4  A    between atoms: C_7  and  N_8
REMARK    5  A    between atoms: N_8  and  C_9
REMARK    6  A    between atoms: C_9  and  C_10
REMARK    7  A    between atoms: C_10  and  C_11
REMARK    8  A    between atoms: C_10  and  C_12
REMARK    9  A    between atoms: C_16  and  N_17
REMARK   10  A    between atoms: N_17  and  C_18
REMARK   11  A    between atoms: C_24  and  C_25
REMARK                            x       y       z     vdW  Elec       q    Type
REMARK                         _______ _______ _______ _____ _____    ______ ____
ROOT
ATOM      1  N   UNL     1      46.337   5.587  11.973  0.00  0.00    +0.000 N 
ATOM      2  H   UNL     1      46.999   5.324  11.245  0.00  0.00    +0.000 HD
ENDROOT
BRANCH   1   6
ATOM      3  C   UNL     1      47.481   4.754  15.865  0.00  0.00    +0.000 A 
ATOM      4  N   UNL     1      46.598   3.987  15.188  0.00  0.00    +0.000 NA
ATOM      5  N   UNL     1      46.257   4.272  13.883  0.00  0.00    +0.000 NA
ATOM      6  C   UNL     1      46.789   5.322  13.240  0.00  0.00    +0.000 A 
ATOM      7  C   UNL     1      47.712   6.110  13.896  0.00  0.00    +0.000 A 
ATOM      8  C   UNL     1      48.093   5.822  15.215  0.00  0.00    +0.000 A 
BRANCH   8   9
ATOM      9  C   UNL     1      49.104   6.712  15.854  0.00  0.00    +0.000 C 
ATOM     10  N   UNL     1      48.652   7.862  16.454  0.00  0.00    +0.000 N 
ATOM     11  O   UNL     1      50.295   6.457  15.874  0.00  0.00    +0.000 OA
ATOM     12  H   UNL     1      47.718   8.235  16.365  0.00  0.00    +0.000 HD
ATOM     13  H   UNL     1      49.357   8.462  16.864  0.00  0.00    +0.000 HD
ENDBRANCH   8   9
BRANCH   3  15
ATOM     14  C   UNL     1      47.109   5.137  18.352  0.00  0.00    +0.000 C 
ATOM     15  C   UNL     1      47.806   4.295  17.272  0.00  0.00    +0.000 C 
ATOM     16  C   UNL     1      47.418   2.825  17.434  0.00  0.00    +0.000 C 
ENDBRANCH   3  15
ENDBRANCH   1   6
BRANCH   1  17
ATOM     17  C   UNL     1      45.265   6.501  11.632  0.00  0.00    +0.000 C 
BRANCH  17  18
ATOM     18  C   UNL     1      43.995   5.740  11.185  0.00  0.00    +0.000 C 
ATOM     19  C   UNL     1      43.057   5.579  12.396  0.00  0.00    +0.000 C 
BRANCH  18  20
ATOM     20  C   UNL     1      44.302   4.452  10.421  0.00  0.00    +0.000 A 
ATOM     21  C   UNL     1      43.877   3.199  10.874  0.00  0.00    +0.000 A 
ATOM     22  C   UNL     1      44.149   2.046  10.139  0.00  0.00    +0.000 A 
ATOM     23  C   UNL     1      44.874   2.120   8.951  0.00  0.00    +0.000 A 
ATOM     24  C   UNL     1      45.326   3.351   8.475  0.00  0.00    +0.000 A 
ATOM     25  C   UNL     1      45.011   4.509   9.204  0.00  0.00    +0.000 A 
BRANCH  24  26
ATOM     26  N   UNL     1      46.074   3.480   7.283  0.00  0.00    +0.000 N 
ATOM     27  H   UNL     1      45.705   4.246   6.722  0.00  0.00    +0.000 HD
BRANCH  26  28
ATOM     28  C   UNL     1      46.575   2.384   6.489  0.00  0.00    +0.000 C 
ATOM     29  C   UNL     1      48.034   2.021   6.833  0.00  0.00    +0.000 C 
ATOM     30  N   UNL     1      48.387   2.069   5.404  0.00  0.00    +0.000 NA
ATOM     31  C   UNL     1      47.113   2.741   5.093  0.00  0.00    +0.000 C 
ATOM     32  H   UNL     1      48.476   1.146   4.978  0.00  0.00    +0.000 HD
ENDBRANCH  26  28
ENDBRANCH  24  26
ENDBRANCH  18  20
ENDBRANCH  17  18
ENDBRANCH   1  17
TORSDOF 8
ENDMDL
MODEL 2
REMARK VINA RESULT:    -7.295      1.733      2.325
REMARK INTER + INTRA:         -11.628
REMARK INTER:                 -11.390
REMARK INTRA:                  -0.238
REMARK UNBOUND:                -0.921
REMARK  Name = 
REMARK  11 active torsions:
REMARK  status: ('A' for Active; 'I' for Inactive)
REMARK    1  A    between atoms: C_1  and  C_2
REMARK    2  A    between atoms: C_2  and  C_3
REMARK    3  A    between atoms: C_2  and  C_4
REMARK    4  A    between atoms: C_7  and  N_8
REMARK    5  A    between atoms: N_8  and  C_9
REMARK    6  A    between atoms: C_9  and  C_10
REMARK    7  A    between atoms: C_10  and  C_11
REMARK    8  A    between atoms: C_10  and  C_12
REMARK    9  A    between atoms: C_16  and  N_17
REMARK   10  A    between atoms: N_17  and  C_18
REMARK   11  A    between atoms: C_24  and  C_25
REMARK                            x       y       z     vdW  Elec       q    Type
REMARK                         _______ _______ _______ _____ _____    ______ ____
ROOT
ATOM      1  N   UNL     1      46.731   5.167  12.783  0.00  0.00    +0.000 N 
ATOM      2  H   UNL     1      46.782   4.220  12.412  0.00  0.00    +0.000 HD
ENDROOT
BRANCH   1   6
ATOM      3  C   UNL     1      48.787   5.582  16.354  0.00  0.00    +0.000 A 
ATOM      4  N   UNL     1      49.098   6.297  15.250  0.00  0.00    +0.000 NA
ATOM      5  N   UNL     1      48.378   6.158  14.082  0.00  0.00    +0.000 NA
ATOM      6  C   UNL     1      47.344   5.308  14.001  0.00  0.00    +0.000 A 
ATOM      7  C   UNL     1      46.986   4.582  15.118  0.00  0.00    +0.000 A 
ATOM      8  C   UNL     1      47.688   4.727  16.323  0.00  0.00    +0.000 A 
BRANCH   8   9
ATOM      9  C   UNL     1      47.237   3.917  17.490  0.00  0.00    +0.000 C 
ATOM     10  N   UNL     1      47.566   4.368  18.745  0.00  0.00    +0.000 N 
ATOM     11  O   UNL     1      46.587   2.892  17.377  0.00  0.00    +0.000 OA
ATOM     12  H   UNL     1      48.218   5.113  18.941  0.00  0.00    +0.000 HD
ATOM     13  H   UNL     1      47.268   3.792  19.523  0.00  0.00    +0.000 HD
ENDBRANCH   8   9
BRANCH   3  15
ATOM     14  C   UNL     1      51.076   5.388  17.444  0.00  0.00    +0.000 C 
ATOM     15  C   UNL     1      49.625   5.873  17.582  0.00  0.00    +0.000 C 
ATOM     16  C   UNL     1      49.608   7.375  17.870  0.00  0.00    +0.000 C 
ENDBRANCH   3  15
ENDBRANCH   1   6
BRANCH   1  17
ATOM     17  C   UNL     1      46.402   6.246  11.872  0.00  0.00    +0.000 C 
BRANCH  17  18
ATOM     18  C   UNL     1      45.007   6.043  11.237  0.00  0.00    +0.000 C 
ATOM     19  C   UNL     1      43.932   6.216  12.327  0.00  0.00    +0.000 C 
BRANCH  18  20
ATOM     20  C   UNL     1      44.901   4.761  10.413  0.00  0.00    +0.000 A 
ATOM     21  C   UNL     1      44.216   3.633  10.876  0.00  0.00    +0.000 A 
ATOM     22  C   UNL     1      44.113   2.488  10.087  0.00  0.00    +0.000 A 
ATOM     23  C   UNL     1      44.716   2.438   8.831  0.00  0.00    +0.000 A 
ATOM     24  C   UNL     1      45.419   3.539   8.342  0.00  0.00    +0.000 A 
ATOM     25  C   UNL     1      45.480   4.700   9.129  0.00  0.00    +0.000 A 
BRANCH  24  26
ATOM     26  N   UNL     1      46.057   3.538   7.081  0.00  0.00    +0.000 N 
ATOM     27  H   UNL     1      45.570   4.165   6.443  0.00  0.00    +0.000 HD
BRANCH  26  28
ATOM     28  C   UNL     1      46.607   2.376   6.425  0.00  0.00    +0.000 C 
ATOM     29  C   UNL     1      48.081   2.123   6.803  0.00  0.00    +0.000 C 
ATOM     30  N   UNL     1      48.432   2.011   5.378  0.00  0.00    +0.000 NA
ATOM     31  C   UNL     1      47.130   2.582   4.993  0.00  0.00    +0.000 C 
ATOM     32  H   UNL     1      48.563   1.047   5.068  0.00  0.00    +0.000 HD
ENDBRANCH  26  28
ENDBRANCH  24  26
ENDBRANCH  18  20
ENDBRANCH  17  18
ENDBRANCH   1  17
TORSDOF 8
ENDMDL
MODEL 3
REMARK VINA RESULT:    -6.988      1.805      2.723
REMARK INTER + INTRA:         -11.178
REMARK INTER:                 -10.265
REMARK INTRA:                  -0.912
REMARK UNBOUND:                -0.921
REMARK  Name = 
REMARK  11 active torsions:
REMARK  status: ('A' for Active; 'I' for Inactive)
REMARK    1  A    between atoms: C_1  and  C_2
REMARK    2  A    between atoms: C_2  and  C_3
REMARK    3  A    between atoms: C_2  and  C_4
REMARK    4  A    between atoms: C_7  and  N_8
REMARK    5  A    between atoms: N_8  and  C_9
REMARK    6  A    between atoms: C_9  and  C_10
REMARK    7  A    between atoms: C_10  and  C_11
REMARK    8  A    between atoms: C_10  and  C_12
REMARK    9  A    between atoms: C_16  and  N_17
REMARK   10  A    between atoms: N_17  and  C_18
REMARK   11  A    between atoms: C_24  and  C_25
REMARK                            x       y       z     vdW  Elec       q    Type
REMARK                         _______ _______ _______ _____ _____    ______ ____
ROOT
ATOM      1  N   UNL     1      47.837   7.269  13.426  0.00  0.00    +0.000 N 
ATOM      2  H   UNL     1      47.665   8.222  13.740  0.00  0.00    +0.000 HD
ENDROOT
BRANCH   1   6
ATOM      3  C   UNL     1      48.407   4.573  16.518  0.00  0.00    +0.000 A 
ATOM      4  N   UNL     1      47.732   4.253  15.390  0.00  0.00    +0.000 NA
ATOM      5  N   UNL     1      47.582   5.163  14.365  0.00  0.00    +0.000 NA
ATOM      6  C   UNL     1      48.099   6.397  14.451  0.00  0.00    +0.000 A 
ATOM      7  C   UNL     1      48.814   6.746  15.579  0.00  0.00    +0.000 A 
ATOM      8  C   UNL     1      49.001   5.827  16.622  0.00  0.00    +0.000 A 
BRANCH   8   9
ATOM      9  C   UNL     1      49.793   6.272  17.803  0.00  0.00    +0.000 C 
ATOM     10  N   UNL     1      51.161   6.295  17.682  0.00  0.00    +0.000 N 
ATOM     11  O   UNL     1      49.282   6.623  18.853  0.00  0.00    +0.000 OA
ATOM     12  H   UNL     1      51.682   5.889  16.919  0.00  0.00    +0.000 HD
ATOM     13  H   UNL     1      51.681   6.580  18.503  0.00  0.00    +0.000 HD
ENDBRANCH   8   9
BRANCH   3  15
ATOM     14  C   UNL     1      47.228   2.699  17.770  0.00  0.00    +0.000 C 
ATOM     15  C   UNL     1      48.542   3.461  17.539  0.00  0.00    +0.000 C 
ATOM     16  C   UNL     1      49.633   2.486  17.093  0.00  0.00    +0.000 C 
ENDBRANCH   3  15
ENDBRANCH   1   6
BRANCH   1  17
ATOM     17  C   UNL     1      47.420   6.899  12.088  0.00  0.00    +0.000 C 
BRANCH  17  18
ATOM     18  C   UNL     1      45.914   7.168  11.871  0.00  0.00    +0.000 C 
ATOM     19  C   UNL     1      45.480   8.340  12.772  0.00  0.00    +0.000 C 
BRANCH  18  20
ATOM     20  C   UNL     1      45.055   5.908  11.980  0.00  0.00    +0.000 A 
ATOM     21  C   UNL     1      43.952   5.832  12.837  0.00  0.00    +0.000 A 
ATOM     22  C   UNL     1      43.171   4.677  12.892  0.00  0.00    +0.000 A 
ATOM     23  C   UNL     1      43.494   3.568  12.112  0.00  0.00    +0.000 A 
ATOM     24  C   UNL     1      44.595   3.603  11.256  0.00  0.00    +0.000 A 
ATOM     25  C   UNL     1      45.349   4.785  11.180  0.00  0.00    +0.000 A 
BRANCH  24  26
ATOM     26  N   UNL     1      44.972   2.503  10.453  0.00  0.00    +0.000 N 
ATOM     27  H   UNL     1      45.889   2.161  10.739  0.00  0.00    +0.000 HD
BRANCH  26  28
ATOM     28  C   UNL     1      44.740   2.387   9.034  0.00  0.00    +0.000 C 
ATOM     29  C   UNL     1      46.016   2.009   8.253  0.00  0.00    +0.000 C 
ATOM     30  N   UNL     1      45.775   3.119   7.315  0.00  0.00    +0.000 NA
ATOM     31  C   UNL     1      44.771   3.696   8.226  0.00  0.00    +0.000 C 
ATOM     32  H   UNL     1      45.388   2.816   6.421  0.00  0.00    +0.000 HD
ENDBRANCH  26  28
ENDBRANCH  24  26
ENDBRANCH  18  20
ENDBRANCH  17  18
ENDBRANCH   1  17
TORSDOF 8
ENDMDL
MODEL 4
REMARK VINA RESULT:    -6.817      3.692      6.008
REMARK INTER + INTRA:         -10.926
REMARK INTER:                  -9.851
REMARK INTRA:                  -1.076
REMARK UNBOUND:                -0.921
REMARK  Name = 
REMARK  11 active torsions:
REMARK  status: ('A' for Active; 'I' for Inactive)
REMARK    1  A    between atoms: C_1  and  C_2
REMARK    2  A    between atoms: C_2  and  C_3
REMARK    3  A    between atoms: C_2  and  C_4
REMARK    4  A    between atoms: C_7  and  N_8
REMARK    5  A    between atoms: N_8  and  C_9
REMARK    6  A    between atoms: C_9  and  C_10
REMARK    7  A    between atoms: C_10  and  C_11
REMARK    8  A    between atoms: C_10  and  C_12
REMARK    9  A    between atoms: C_16  and  N_17
REMARK   10  A    between atoms: N_17  and  C_18
REMARK   11  A    between atoms: C_24  and  C_25
REMARK                            x       y       z     vdW  Elec       q    Type
REMARK                         _______ _______ _______ _____ _____    ______ ____
ROOT
ATOM      1  N   UNL     1      46.977   7.572  13.762  0.00  0.00    +0.000 N 
ATOM      2  H   UNL     1      47.240   7.868  14.700  0.00  0.00    +0.000 HD
ENDROOT
BRANCH   1   6
ATOM      3  C   UNL     1      46.001  10.850  11.427  0.00  0.00    +0.000 A 
ATOM      4  N   UNL     1      47.276  10.557  11.771  0.00  0.00    +0.000 NA
ATOM      5  N   UNL     1      47.574   9.442  12.526  0.00  0.00    +0.000 NA
ATOM      6  C   UNL     1      46.609   8.611  12.948  0.00  0.00    +0.000 A 
ATOM      7  C   UNL     1      45.301   8.870  12.593  0.00  0.00    +0.000 A 
ATOM      8  C   UNL     1      44.979   9.983  11.803  0.00  0.00    +0.000 A 
BRANCH   8   9
ATOM      9  C   UNL     1      43.546  10.192  11.451  0.00  0.00    +0.000 C 
ATOM     10  N   UNL     1      42.992   9.356  10.513  0.00  0.00    +0.000 N 
ATOM     11  O   UNL     1      42.854  11.055  11.964  0.00  0.00    +0.000 OA
ATOM     12  H   UNL     1      43.508   8.716   9.929  0.00  0.00    +0.000 HD
ATOM     13  H   UNL     1      42.023   9.528  10.274  0.00  0.00    +0.000 HD
ENDBRANCH   8   9
BRANCH   3  15
ATOM     14  C   UNL     1      47.109  12.903  10.413  0.00  0.00    +0.000 C 
ATOM     15  C   UNL     1      45.823  12.073  10.550  0.00  0.00    +0.000 C 
ATOM     16  C   UNL     1      45.337  11.644   9.165  0.00  0.00    +0.000 C 
ENDBRANCH   3  15
ENDBRANCH   1   6
BRANCH   1  17
ATOM     17  C   UNL     1      47.377   6.251  13.319  0.00  0.00    +0.000 C 
BRANCH  17  18
ATOM     18  C   UNL     1      46.308   5.190  13.668  0.00  0.00    +0.000 C 
ATOM     19  C   UNL     1      47.011   3.854  13.973  0.00  0.00    +0.000 C 
BRANCH  18  20
ATOM     20  C   UNL     1      45.177   5.114  12.642  0.00  0.00    +0.000 A 
ATOM     21  C   UNL     1      43.833   5.245  13.005  0.00  0.00    +0.000 A 
ATOM     22  C   UNL     1      42.826   5.199  12.041  0.00  0.00    +0.000 A 
ATOM     23  C   UNL     1      43.143   4.995  10.698  0.00  0.00    +0.000 A 
ATOM     24  C   UNL     1      44.472   4.847  10.301  0.00  0.00    +0.000 A 
ATOM     25  C   UNL     1      45.478   4.936  11.276  0.00  0.00    +0.000 A 
BRANCH  24  26
ATOM     26  N   UNL     1      44.846   4.628   8.956  0.00  0.00    +0.000 N 
ATOM     27  H   UNL     1      44.531   5.404   8.376  0.00  0.00    +0.000 HD
BRANCH  26  28
ATOM     28  C   UNL     1      44.804   3.357   8.275  0.00  0.00    +0.000 C 
ATOM     29  C   UNL     1      44.730   2.163   9.250  0.00  0.00    +0.000 C 
ATOM     30  N   UNL     1      45.848   1.513   8.547  0.00  0.00    +0.000 NA
ATOM     31  C   UNL     1      46.158   2.769   7.840  0.00  0.00    +0.000 C 
ATOM     32  H   UNL     1      45.553   0.758   7.927  0.00  0.00    +0.000 HD
ENDBRANCH  26  28
ENDBRANCH  24  26
ENDBRANCH  18  20
ENDBRANCH  17  18
ENDBRANCH   1  17
TORSDOF 8
ENDMDL
MODEL 5
REMARK VINA RESULT:    -6.814      3.108      5.223
REMARK INTER + INTRA:         -10.922
REMARK INTER:                 -10.123
REMARK INTRA:                  -0.799
REMARK UNBOUND:                -0.921
REMARK  Name = 
REMARK  11 active torsions:
REMARK  status: ('A' for Active; 'I' for Inactive)
REMARK    1  A    between atoms: C_1  and  C_2
REMARK    2  A    between atoms: C_2  and  C_3
REMARK    3  A    between atoms: C_2  and  C_4
REMARK    4  A    between atoms: C_7  and  N_8
REMARK    5  A    between atoms: N_8  and  C_9
REMARK    6  A    between atoms: C_9  and  C_10
REMARK    7  A    between atoms: C_10  and  C_11
REMARK    8  A    between atoms: C_10  and  C_12
REMARK    9  A    between atoms: C_16  and  N_17
REMARK   10  A    between atoms: N_17  and  C_18
REMARK   11  A    between atoms: C_24  and  C_25
REMARK                            x       y       z     vdW  Elec       q    Type
REMARK                         _______ _______ _______ _____ _____    ______ ____
ROOT
ATOM      1  N   UNL     1      48.412   7.420  15.350  0.00  0.00    +0.000 N 
ATOM      2  H   UNL     1      47.404   7.472  15.485  0.00  0.00    +0.000 HD
ENDROOT
BRANCH   1   6
ATOM      3  C   UNL     1      50.343   4.347  17.345  0.00  0.00    +0.000 A 
ATOM      4  N   UNL     1      51.012   5.304  16.663  0.00  0.00    +0.000 NA
ATOM      5  N   UNL     1      50.344   6.332  16.032  0.00  0.00    +0.000 NA
ATOM      6  C   UNL     1      49.006   6.417  16.070  0.00  0.00    +0.000 A 
ATOM      7  C   UNL     1      48.296   5.469  16.778  0.00  0.00    +0.000 A 
ATOM      8  C   UNL     1      48.957   4.430  17.450  0.00  0.00    +0.000 A 
BRANCH   8   9
ATOM      9  C   UNL     1      48.124   3.450  18.202  0.00  0.00    +0.000 C 
ATOM     10  N   UNL     1      48.313   3.362  19.559  0.00  0.00    +0.000 N 
ATOM     11  O   UNL     1      47.286   2.743  17.670  0.00  0.00    +0.000 OA
ATOM     12  H   UNL     1      49.073   3.789  20.068  0.00  0.00    +0.000 HD
ATOM     13  H   UNL     1      47.751   2.675  20.048  0.00  0.00    +0.000 HD
ENDBRANCH   8   9
BRANCH   3  15
ATOM     14  C   UNL     1      51.179   1.945  17.329  0.00  0.00    +0.000 C 
ATOM     15  C   UNL     1      51.204   3.310  18.036  0.00  0.00    +0.000 C 
ATOM     16  C   UNL     1      52.644   3.817  18.128  0.00  0.00    +0.000 C 
ENDBRANCH   3  15
ENDBRANCH   1   6
BRANCH   1  17
ATOM     17  C   UNL     1      48.989   8.091  14.201  0.00  0.00    +0.000 C 
BRANCH  17  18
ATOM     18  C   UNL     1      48.727   7.305  12.897  0.00  0.00    +0.000 C 
ATOM     19  C   UNL     1      49.786   7.704  11.851  0.00  0.00    +0.000 C 
BRANCH  18  20
ATOM     20  C   UNL     1      47.276   7.391  12.423  0.00  0.00    +0.000 A 
ATOM     21  C   UNL     1      46.513   8.554  12.570  0.00  0.00    +0.000 A 
ATOM     22  C   UNL     1      45.201   8.609  12.101  0.00  0.00    +0.000 A 
ATOM     23  C   UNL     1      44.618   7.495  11.499  0.00  0.00    +0.000 A 
ATOM     24  C   UNL     1      45.345   6.314  11.346  0.00  0.00    +0.000 A 
ATOM     25  C   UNL     1      46.678   6.285  11.786  0.00  0.00    +0.000 A 
BRANCH  24  26
ATOM     26  N   UNL     1      44.798   5.154  10.753  0.00  0.00    +0.000 N 
ATOM     27  H   UNL     1      43.976   5.398  10.202  0.00  0.00    +0.000 HD
BRANCH  26  28
ATOM     28  C   UNL     1      44.693   3.863  11.387  0.00  0.00    +0.000 C 
ATOM     29  C   UNL     1      43.976   2.823  10.501  0.00  0.00    +0.000 C 
ATOM     30  N   UNL     1      43.089   2.472  11.623  0.00  0.00    +0.000 NA
ATOM     31  C   UNL     1      43.517   3.673  12.362  0.00  0.00    +0.000 C 
ATOM     32  H   UNL     1      43.344   1.597  12.083  0.00  0.00    +0.000 HD
ENDBRANCH  26  28
ENDBRANCH  24  26
ENDBRANCH  18  20
ENDBRANCH  17  18
ENDBRANCH   1  17
TORSDOF 8
ENDMDL
MODEL 6
REMARK VINA RESULT:    -6.449      2.141      2.745
REMARK INTER + INTRA:         -10.386
REMARK INTER:                  -9.752
REMARK INTRA:                  -0.634
REMARK UNBOUND:                -0.921
REMARK  Name = 
REMARK  11 active torsions:
REMARK  status: ('A' for Active; 'I' for Inactive)
REMARK    1  A    between atoms: C_1  and  C_2
REMARK    2  A    between atoms: C_2  and  C_3
REMARK    3  A    between atoms: C_2  and  C_4
REMARK    4  A    between atoms: C_7  and  N_8
REMARK    5  A    between atoms: N_8  and  C_9
REMARK    6  A    between atoms: C_9  and  C_10
REMARK    7  A    between atoms: C_10  and  C_11
REMARK    8  A    between atoms: C_10  and  C_12
REMARK    9  A    between atoms: C_16  and  N_17
REMARK   10  A    between atoms: N_17  and  C_18
REMARK   11  A    between atoms: C_24  and  C_25
REMARK                            x       y       z     vdW  Elec       q    Type
REMARK                         _______ _______ _______ _____ _____    ______ ____
ROOT
ATOM      1  N   UNL     1      45.883   5.980  11.472  0.00  0.00    +0.000 N 
ATOM      2  H   UNL     1      46.111   5.284  10.764  0.00  0.00    +0.000 HD
ENDROOT
BRANCH   1   6
ATOM      3  C   UNL     1      49.033   7.336  13.793  0.00  0.00    +0.000 A 
ATOM      4  N   UNL     1      48.053   6.548  14.289  0.00  0.00    +0.000 NA
ATOM      5  N   UNL     1      47.031   6.088  13.485  0.00  0.00    +0.000 NA
ATOM      6  C   UNL     1      46.973   6.408  12.183  0.00  0.00    +0.000 A 
ATOM      7  C   UNL     1      47.973   7.191  11.643  0.00  0.00    +0.000 A 
ATOM      8  C   UNL     1      49.035   7.647  12.436  0.00  0.00    +0.000 A 
BRANCH   8   9
ATOM      9  C   UNL     1      50.083   8.479  11.779  0.00  0.00    +0.000 C 
ATOM     10  N   UNL     1      49.888   9.838  11.742  0.00  0.00    +0.000 N 
ATOM     11  O   UNL     1      51.096   8.009  11.291  0.00  0.00    +0.000 OA
ATOM     12  H   UNL     1      49.027  10.307  11.981  0.00  0.00    +0.000 HD
ATOM     13  H   UNL     1      50.601  10.382  11.273  0.00  0.00    +0.000 HD
ENDBRANCH   8   9
BRANCH   3  15
ATOM     14  C   UNL     1      49.930   9.133  15.353  0.00  0.00    +0.000 C 
ATOM     15  C   UNL     1      50.122   7.723  14.773  0.00  0.00    +0.000 C 
ATOM     16  C   UNL     1      50.177   6.701  15.909  0.00  0.00    +0.000 C 
ENDBRANCH   3  15
ENDBRANCH   1   6
BRANCH   1  17
ATOM     17  C   UNL     1      44.613   6.672  11.374  0.00  0.00    +0.000 C 
BRANCH  17  18
ATOM     18  C   UNL     1      43.493   5.729  10.876  0.00  0.00    +0.000 C 
ATOM     19  C   UNL     1      42.467   5.531  12.008  0.00  0.00    +0.000 C 
BRANCH  18  20
ATOM     20  C   UNL     1      44.025   4.443  10.245  0.00  0.00    +0.000 A 
ATOM     21  C   UNL     1      43.813   3.187  10.823  0.00  0.00    +0.000 A 
ATOM     22  C   UNL     1      44.287   2.030  10.207  0.00  0.00    +0.000 A 
ATOM     23  C   UNL     1      45.005   2.108   9.014  0.00  0.00    +0.000 A 
ATOM     24  C   UNL     1      45.246   3.344   8.415  0.00  0.00    +0.000 A 
ATOM     25  C   UNL     1      44.729   4.498   9.025  0.00  0.00    +0.000 A 
BRANCH  24  26
ATOM     26  N   UNL     1      45.977   3.479   7.213  0.00  0.00    +0.000 N 
ATOM     27  H   UNL     1      45.537   4.177   6.615  0.00  0.00    +0.000 HD
BRANCH  26  28
ATOM     28  C   UNL     1      46.576   2.394   6.474  0.00  0.00    +0.000 C 
ATOM     29  C   UNL     1      48.079   2.226   6.782  0.00  0.00    +0.000 C 
ATOM     30  N   UNL     1      48.377   2.213   5.340  0.00  0.00    +0.000 NA
ATOM     31  C   UNL     1      47.024   2.711   5.036  0.00  0.00    +0.000 C 
ATOM     32  H   UNL     1      48.560   1.278   4.973  0.00  0.00    +0.000 HD
ENDBRANCH  26  28
ENDBRANCH  24  26
ENDBRANCH  18  20
ENDBRANCH  17  18
ENDBRANCH   1  17
TORSDOF 8
ENDMDL
MODEL 7
REMARK VINA RESULT:    -6.421      3.121      5.104
REMARK INTER + INTRA:         -10.345
REMARK INTER:                  -9.282
REMARK INTRA:                  -1.063
REMARK UNBOUND:                -0.921
REMARK  Name = 
REMARK  11 active torsions:
REMARK  status: ('A' for Active; 'I' for Inactive)
REMARK    1  A    between atoms: C_1  and  C_2
REMARK    2  A    between atoms: C_2  and  C_3
REMARK    3  A    between atoms: C_2  and  C_4
REMARK    4  A    between atoms: C_7  and  N_8
REMARK    5  A    between atoms: N_8  and  C_9
REMARK    6  A    between atoms: C_9  and  C_10
REMARK    7  A    between atoms: C_10  and  C_11
REMARK    8  A    between atoms: C_10  and  C_12
REMARK    9  A    between atoms: C_16  and  N_17
REMARK   10  A    between atoms: N_17  and  C_18
REMARK   11  A    between atoms: C_24  and  C_25
REMARK                            x       y       z     vdW  Elec       q    Type
REMARK                         _______ _______ _______ _____ _____    ______ ____
ROOT
ATOM      1  N   UNL     1      48.220   7.630  14.928  0.00  0.00    +0.000 N 
ATOM      2  H   UNL     1      47.222   7.791  14.806  0.00  0.00    +0.000 HD
ENDROOT
BRANCH   1   6
ATOM      3  C   UNL     1      49.318   5.129  18.041  0.00  0.00    +0.000 A 
ATOM      4  N   UNL     1      49.620   6.446  18.027  0.00  0.00    +0.000 NA
ATOM      5  N   UNL     1      49.217   7.261  16.990  0.00  0.00    +0.000 NA
ATOM      6  C   UNL     1      48.512   6.775  15.958  0.00  0.00    +0.000 A 
ATOM      7  C   UNL     1      48.167   5.438  15.955  0.00  0.00    +0.000 A 
ATOM      8  C   UNL     1      48.544   4.598  17.012  0.00  0.00    +0.000 A 
BRANCH   8   9
ATOM      9  C   UNL     1      48.125   3.169  16.944  0.00  0.00    +0.000 C 
ATOM     10  N   UNL     1      46.967   2.812  17.591  0.00  0.00    +0.000 N 
ATOM     11  O   UNL     1      48.755   2.320  16.338  0.00  0.00    +0.000 OA
ATOM     12  H   UNL     1      46.459   3.399  18.236  0.00  0.00    +0.000 HD
ATOM     13  H   UNL     1      46.712   1.833  17.549  0.00  0.00    +0.000 HD
ENDBRANCH   8   9
BRANCH   3  15
ATOM     14  C   UNL     1      51.203   4.728  19.700  0.00  0.00    +0.000 C 
ATOM     15  C   UNL     1      49.775   4.364  19.266  0.00  0.00    +0.000 C 
ATOM     16  C   UNL     1      48.804   4.617  20.420  0.00  0.00    +0.000 C 
ENDBRANCH   3  15
ENDBRANCH   1   6
BRANCH   1  17
ATOM     17  C   UNL     1      49.111   7.974  13.837  0.00  0.00    +0.000 C 
BRANCH  17  18
ATOM     18  C   UNL     1      48.698   7.268  12.526  0.00  0.00    +0.000 C 
ATOM     19  C   UNL     1      49.714   7.625  11.424  0.00  0.00    +0.000 C 
BRANCH  18  20
ATOM     20  C   UNL     1      47.232   7.492  12.158  0.00  0.00    +0.000 A 
ATOM     21  C   UNL     1      46.644   8.761  12.180  0.00  0.00    +0.000 A 
ATOM     22  C   UNL     1      45.310   8.935  11.811  0.00  0.00    +0.000 A 
ATOM     23  C   UNL     1      44.531   7.841  11.438  0.00  0.00    +0.000 A 
ATOM     24  C   UNL     1      45.080   6.558  11.416  0.00  0.00    +0.000 A 
ATOM     25  C   UNL     1      46.435   6.402  11.751  0.00  0.00    +0.000 A 
BRANCH  24  26
ATOM     26  N   UNL     1      44.332   5.414  11.057  0.00  0.00    +0.000 N 
ATOM     27  H   UNL     1      43.343   5.652  10.991  0.00  0.00    +0.000 HD
BRANCH  26  28
ATOM     28  C   UNL     1      44.563   4.078  11.547  0.00  0.00    +0.000 C 
ATOM     29  C   UNL     1      43.991   2.994  10.610  0.00  0.00    +0.000 C 
ATOM     30  N   UNL     1      43.316   2.356  11.753  0.00  0.00    +0.000 NA
ATOM     31  C   UNL     1      43.559   3.547  12.586  0.00  0.00    +0.000 C 
ATOM     32  H   UNL     1      43.794   1.518  12.088  0.00  0.00    +0.000 HD
ENDBRANCH  26  28
ENDBRANCH  24  26
ENDBRANCH  18  20
ENDBRANCH  17  18
ENDBRANCH   1  17
TORSDOF 8
ENDMDL
MODEL 8
REMARK VINA RESULT:    -6.417      2.961      8.375
REMARK INTER + INTRA:         -10.339
REMARK INTER:                  -9.519
REMARK INTRA:                  -0.821
REMARK UNBOUND:                -0.921
REMARK  Name = 
REMARK  11 active torsions:
REMARK  status: ('A' for Active; 'I' for Inactive)
REMARK    1  A    between atoms: C_1  and  C_2
REMARK    2  A    between atoms: C_2  and  C_3
REMARK    3  A    between atoms: C_2  and  C_4
REMARK    4  A    between atoms: C_7  and  N_8
REMARK    5  A    between atoms: N_8  and  C_9
REMARK    6  A    between atoms: C_9  and  C_10
REMARK    7  A    between atoms: C_10  and  C_11
REMARK    8  A    between atoms: C_10  and  C_12
REMARK    9  A    between atoms: C_16  and  N_17
REMARK   10  A    between atoms: N_17  and  C_18
REMARK   11  A    between atoms: C_24  and  C_25
REMARK                            x       y       z     vdW  Elec       q    Type
REMARK                         _______ _______ _______ _____ _____    ______ ____
ROOT
ATOM      1  N   UNL     1      46.921   8.202  13.164  0.00  0.00    +0.000 N 
ATOM      2  H   UNL     1      46.543   9.137  13.028  0.00  0.00    +0.000 HD
ENDROOT
BRANCH   1   6
ATOM      3  C   UNL     1      44.937   5.385  10.867  0.00  0.00    +0.000 A 
ATOM      4  N   UNL     1      46.200   5.786  10.594  0.00  0.00    +0.000 NA
ATOM      5  N   UNL     1      46.846   6.705  11.393  0.00  0.00    +0.000 NA
ATOM      6  C   UNL     1      46.244   7.235  12.469  0.00  0.00    +0.000 A 
ATOM      7  C   UNL     1      44.965   6.828  12.787  0.00  0.00    +0.000 A 
ATOM      8  C   UNL     1      44.299   5.874  12.003  0.00  0.00    +0.000 A 
BRANCH   8   9
ATOM      9  C   UNL     1      42.923   5.476  12.416  0.00  0.00    +0.000 C 
ATOM     10  N   UNL     1      41.867   6.083  11.781  0.00  0.00    +0.000 N 
ATOM     11  O   UNL     1      42.703   4.638  13.273  0.00  0.00    +0.000 OA
ATOM     12  H   UNL     1      41.938   6.884  11.173  0.00  0.00    +0.000 HD
ATOM     13  H   UNL     1      40.941   5.813  12.091  0.00  0.00    +0.000 HD
ENDBRANCH   8   9
BRANCH   3  15
ATOM     14  C   UNL     1      45.069   4.298   8.571  0.00  0.00    +0.000 C 
ATOM     15  C   UNL     1      44.369   4.330   9.939  0.00  0.00    +0.000 C 
ATOM     16  C   UNL     1      44.469   2.956  10.602  0.00  0.00    +0.000 C 
ENDBRANCH   3  15
ENDBRANCH   1   6
BRANCH   1  17
ATOM     17  C   UNL     1      48.260   8.073  13.705  0.00  0.00    +0.000 C 
BRANCH  17  18
ATOM     18  C   UNL     1      48.450   8.956  14.959  0.00  0.00    +0.000 C 
ATOM     19  C   UNL     1      49.603   9.946  14.704  0.00  0.00    +0.000 C 
BRANCH  18  20
ATOM     20  C   UNL     1      48.556   8.150  16.253  0.00  0.00    +0.000 A 
ATOM     21  C   UNL     1      48.234   8.697  17.500  0.00  0.00    +0.000 A 
ATOM     22  C   UNL     1      48.315   7.926  18.659  0.00  0.00    +0.000 A 
ATOM     23  C   UNL     1      48.744   6.601  18.598  0.00  0.00    +0.000 A 
ATOM     24  C   UNL     1      49.086   6.025  17.374  0.00  0.00    +0.000 A 
ATOM     25  C   UNL     1      48.962   6.801  16.210  0.00  0.00    +0.000 A 
BRANCH  24  26
ATOM     26  N   UNL     1      49.537   4.691  17.259  0.00  0.00    +0.000 N 
ATOM     27  H   UNL     1      50.397   4.661  16.712  0.00  0.00    +0.000 HD
BRANCH  26  28
ATOM     28  C   UNL     1      48.693   3.540  17.054  0.00  0.00    +0.000 C 
ATOM     29  C   UNL     1      47.288   3.917  16.541  0.00  0.00    +0.000 C 
ATOM     30  N   UNL     1      46.676   3.086  17.592  0.00  0.00    +0.000 NA
ATOM     31  C   UNL     1      47.967   2.994  18.297  0.00  0.00    +0.000 C 
ATOM     32  H   UNL     1      46.333   2.189  17.249  0.00  0.00    +0.000 HD
ENDBRANCH  26  28
ENDBRANCH  24  26
ENDBRANCH  18  20
ENDBRANCH  17  18
ENDBRANCH   1  17
TORSDOF 8
ENDMDL
MODEL 9
REMARK VINA RESULT:    -6.217      4.033      7.603
REMARK INTER + INTRA:         -10.046
REMARK INTER:                  -8.722
REMARK INTRA:                  -1.324
REMARK UNBOUND:                -0.921
REMARK  Name = 
REMARK  11 active torsions:
REMARK  status: ('A' for Active; 'I' for Inactive)
REMARK    1  A    between atoms: C_1  and  C_2
REMARK    2  A    between atoms: C_2  and  C_3
REMARK    3  A    between atoms: C_2  and  C_4
REMARK    4  A    between atoms: C_7  and  N_8
REMARK    5  A    between atoms: N_8  and  C_9
REMARK    6  A    between atoms: C_9  and  C_10
REMARK    7  A    between atoms: C_10  and  C_11
REMARK    8  A    between atoms: C_10  and  C_12
REMARK    9  A    between atoms: C_16  and  N_17
REMARK   10  A    between atoms: N_17  and  C_18
REMARK   11  A    between atoms: C_24  and  C_25
REMARK                            x       y       z     vdW  Elec       q    Type
REMARK                         _______ _______ _______ _____ _____    ______ ____
ROOT
ATOM      1  N   UNL     1      47.454   6.446  14.063  0.00  0.00    +0.000 N 
ATOM      2  H   UNL     1      47.725   5.932  14.899  0.00  0.00    +0.000 HD
ENDROOT
BRANCH   1   6
ATOM      3  C   UNL     1      44.673   4.452  11.730  0.00  0.00    +0.000 A 
ATOM      4  N   UNL     1      45.750   3.833  12.263  0.00  0.00    +0.000 NA
ATOM      5  N   UNL     1      46.645   4.517  13.060  0.00  0.00    +0.000 NA
ATOM      6  C   UNL     1      46.478   5.819  13.333  0.00  0.00    +0.000 A 
ATOM      7  C   UNL     1      45.374   6.473  12.823  0.00  0.00    +0.000 A 
ATOM      8  C   UNL     1      44.438   5.791  12.033  0.00  0.00    +0.000 A 
BRANCH   8   9
ATOM      9  C   UNL     1      43.266   6.561  11.527  0.00  0.00    +0.000 C 
ATOM     10  N   UNL     1      42.015   6.056  11.781  0.00  0.00    +0.000 N 
ATOM     11  O   UNL     1      43.373   7.610  10.917  0.00  0.00    +0.000 OA
ATOM     12  H   UNL     1      41.823   5.133  12.142  0.00  0.00    +0.000 HD
ATOM     13  H   UNL     1      41.233   6.583  11.411  0.00  0.00    +0.000 HD
ENDBRANCH   8   9
BRANCH   3  15
ATOM     14  C   UNL     1      44.380   3.072   9.614  0.00  0.00    +0.000 C 
ATOM     15  C   UNL     1      43.743   3.570  10.921  0.00  0.00    +0.000 C 
ATOM     16  C   UNL     1      43.303   2.376  11.769  0.00  0.00    +0.000 C 
ENDBRANCH   3  15
ENDBRANCH   1   6
BRANCH   1  17
ATOM     17  C   UNL     1      47.810   7.848  13.970  0.00  0.00    +0.000 C 
BRANCH  17  18
ATOM     18  C   UNL     1      48.507   8.166  12.628  0.00  0.00    +0.000 C 
ATOM     19  C   UNL     1      50.029   8.016  12.807  0.00  0.00    +0.000 C 
BRANCH  18  20
ATOM     20  C   UNL     1      48.049   9.486  12.009  0.00  0.00    +0.000 A 
ATOM     21  C   UNL     1      48.887  10.258  11.197  0.00  0.00    +0.000 A 
ATOM     22  C   UNL     1      48.430  11.444  10.625  0.00  0.00    +0.000 A 
ATOM     23  C   UNL     1      47.135  11.895  10.873  0.00  0.00    +0.000 A 
ATOM     24  C   UNL     1      46.274  11.159  11.687  0.00  0.00    +0.000 A 
ATOM     25  C   UNL     1      46.734   9.946  12.225  0.00  0.00    +0.000 A 
BRANCH  24  26
ATOM     26  N   UNL     1      44.956  11.576  11.980  0.00  0.00    +0.000 N 
ATOM     27  H   UNL     1      44.636  11.139  12.843  0.00  0.00    +0.000 HD
BRANCH  26  28
ATOM     28  C   UNL     1      43.904  11.758  11.010  0.00  0.00    +0.000 C 
ATOM     29  C   UNL     1      42.599  11.037  11.409  0.00  0.00    +0.000 C 
ATOM     30  N   UNL     1      42.527  10.420  10.074  0.00  0.00    +0.000 NA
ATOM     31  C   UNL     1      43.920  10.811   9.797  0.00  0.00    +0.000 C 
ATOM     32  H   UNL     1      41.847  10.866   9.458  0.00  0.00    +0.000 HD
ENDBRANCH  26  28
ENDBRANCH  24  26
ENDBRANCH  18  20
ENDBRANCH  17  18
ENDBRANCH   1  17
TORSDOF 8
ENDMDL
