MODEL 1
REMARK VINA RESULT:    -8.578      0.000      0.000
REMARK INTER + INTRA:         -13.175
REMARK INTER:                 -12.088
REMARK INTRA:                  -1.087
REMARK UNBOUND:                -1.087
REMARK  Name = 
REMARK  8 active torsions:
REMARK  status: ('A' for Active; 'I' for Inactive)
REMARK    1  A    between atoms: C_1  and  C_2
REMARK    2  A    between atoms: C_2  and  C_3
REMARK    3  A    between atoms: C_6  and  C_7
REMARK    4  A    between atoms: C_11  and  C_12
REMARK    5  A    between atoms: C_12  and  C_13
REMARK    6  A    between atoms: C_13  and  N_14
REMARK    7  A    between atoms: N_14  and  C_15
REMARK    8  A    between atoms: C_18  and  C_19
REMARK                            x       y       z     vdW  Elec       q    Type
REMARK                         _______ _______ _______ _____ _____    ______ ____
ROOT
ATOM      1  C   UNL     1      43.443   5.346  11.986  0.00  0.00    +0.000 C 
ENDROOT
BRANCH   1   6
ATOM      2  C   UNL     1      46.875   5.560  13.685  0.00  0.00    +0.000 A 
ATOM      3  C   UNL     1      47.571   6.362  12.772  0.00  0.00    +0.000 A 
ATOM      4  C   UNL     1      46.947   6.859  11.632  0.00  0.00    +0.000 A 
ATOM      5  C   UNL     1      45.613   6.546  11.376  0.00  0.00    +0.000 A 
ATOM      6  C   UNL     1      44.875   5.762  12.273  0.00  0.00    +0.000 A 
ATOM      7  C   UNL     1      45.526   5.319  13.440  0.00  0.00    +0.000 A 
BRANCH   2  11
ATOM      8  C   UNL     1      48.816   3.803  16.923  0.00  0.00    +0.000 A 
ATOM      9  C   UNL     1      47.942   3.079  16.116  0.00  0.00    +0.000 A 
ATOM     10  N   UNL     1      47.292   3.625  15.064  0.00  0.00    +0.000 NA
ATOM     11  C   UNL     1      47.540   4.942  14.837  0.00  0.00    +0.000 A 
ATOM     12  C   UNL     1      48.422   5.650  15.641  0.00  0.00    +0.000 A 
ATOM     13  N   UNL     1      49.074   5.110  16.688  0.00  0.00    +0.000 NA
BRANCH   8  15
ATOM     14  C   UNL     1      50.721   2.335  17.501  0.00  0.00    +0.000 C 
ATOM     15  C   UNL     1      49.569   3.161  18.044  0.00  0.00    +0.000 C 
ENDBRANCH   8  15
ENDBRANCH   2  11
ENDBRANCH   1   6
BRANCH   1  16
ATOM     16  C   UNL     1      43.264   4.685  10.602  0.00  0.00    +0.000 C 
BRANCH  16  17
ATOM     17  N   UNL     1      43.923   3.389  10.508  0.00  0.00    +0.000 N 
ATOM     18  H   UNL     1      44.326   3.092  11.394  0.00  0.00    +0.000 HD
BRANCH  17  19
ATOM     19  C   UNL     1      44.824   3.215   9.446  0.00  0.00    +0.000 A 
ATOM     20  C   UNL     1      45.234   4.245   8.582  0.00  0.00    +0.000 A 
ATOM     21  C   UNL     1      46.094   3.988   7.501  0.00  0.00    +0.000 A 
ATOM     22  C   UNL     1      46.537   2.689   7.247  0.00  0.00    +0.000 A 
ATOM     23  C   UNL     1      46.106   1.665   8.087  0.00  0.00    +0.000 A 
ATOM     24  F   UNL     1      46.500   0.395   7.902  0.00  0.00    +0.000 F 
ATOM     25  C   UNL     1      45.251   1.918   9.155  0.00  0.00    +0.000 A 
BRANCH  22  26
ATOM     26  C   UNL     1      47.436   2.462   6.082  0.00  0.00    +0.000 C 
ATOM     27  N   UNL     1      48.785   2.467   6.311  0.00  0.00    +0.000 N 
ATOM     28  O   UNL     1      46.997   2.273   4.964  0.00  0.00    +0.000 OA
ATOM     29  H   UNL     1      49.193   2.603   7.228  0.00  0.00    +0.000 HD
ATOM     30  H   UNL     1      49.400   2.293   5.525  0.00  0.00    +0.000 HD
ENDBRANCH  22  26
ENDBRANCH  17  19
ENDBRANCH  16  17
ENDBRANCH   1  16
TORSDOF 7
ENDMDL
MODEL 2
REMARK VINA RESULT:    -7.484      3.489      8.107
REMARK INTER + INTRA:         -11.634
REMARK INTER:                 -10.737
REMARK INTRA:                  -0.897
REMARK UNBOUND:                -1.087
REMARK  Name = 
REMARK  8 active torsions:
REMARK  status: ('A' for Active; 'I' for Inactive)
REMARK    1  A    between atoms: C_1  and  C_2
REMARK    2  A    between atoms: C_2  and  C_3
REMARK    3  A    between atoms: C_6  and  C_7
REMARK    4  A    between atoms: C_11  and  C_12
REMARK    5  A    between atoms: C_12  and  C_13
REMARK    6  A    between atoms: C_13  and  N_14
REMARK    7  A    between atoms: N_14  and  C_15
REMARK    8  A    between atoms: C_18  and  C_19
REMARK                            x       y       z     vdW  Elec       q    Type
REMARK                         _______ _______ _______ _____ _____    ______ ____
ROOT
ATOM      1  C   UNL     1      45.330   7.612  12.201  0.00  0.00    +0.000 C 
ENDROOT
BRANCH   1   6
ATOM      2  C   UNL     1      44.729   4.479  10.072  0.00  0.00    +0.000 A 
ATOM      3  C   UNL     1      43.575   3.967  10.677  0.00  0.00    +0.000 A 
ATOM      4  C   UNL     1      42.970   4.627  11.743  0.00  0.00    +0.000 A 
ATOM      5  C   UNL     1      43.522   5.809  12.233  0.00  0.00    +0.000 A 
ATOM      6  C   UNL     1      44.665   6.365  11.644  0.00  0.00    +0.000 A 
ATOM      7  C   UNL     1      45.221   5.696  10.537  0.00  0.00    +0.000 A 
BRANCH   2  11
ATOM      8  C   UNL     1      46.792   2.390   7.119  0.00  0.00    +0.000 A 
ATOM      9  C   UNL     1      46.756   3.782   7.138  0.00  0.00    +0.000 A 
ATOM     10  N   UNL     1      46.088   4.486   8.078  0.00  0.00    +0.000 NA
ATOM     11  C   UNL     1      45.440   3.747   9.018  0.00  0.00    +0.000 A 
ATOM     12  C   UNL     1      45.493   2.361   8.996  0.00  0.00    +0.000 A 
ATOM     13  N   UNL     1      46.159   1.655   8.063  0.00  0.00    +0.000 NA
BRANCH   8  15
ATOM     14  C   UNL     1      46.907   1.696   4.747  0.00  0.00    +0.000 C 
ATOM     15  C   UNL     1      47.588   1.636   6.103  0.00  0.00    +0.000 C 
ENDBRANCH   8  15
ENDBRANCH   2  11
ENDBRANCH   1   6
BRANCH   1  16
ATOM     16  C   UNL     1      46.872   7.562  12.141  0.00  0.00    +0.000 C 
BRANCH  16  17
ATOM     17  N   UNL     1      47.490   7.670  13.456  0.00  0.00    +0.000 N 
ATOM     18  H   UNL     1      48.356   8.204  13.436  0.00  0.00    +0.000 HD
BRANCH  17  19
ATOM     19  C   UNL     1      47.632   6.481  14.187  0.00  0.00    +0.000 A 
ATOM     20  C   UNL     1      47.007   5.268  13.850  0.00  0.00    +0.000 A 
ATOM     21  C   UNL     1      47.146   4.129  14.661  0.00  0.00    +0.000 A 
ATOM     22  C   UNL     1      47.890   4.191  15.841  0.00  0.00    +0.000 A 
ATOM     23  C   UNL     1      48.484   5.402  16.187  0.00  0.00    +0.000 A 
ATOM     24  F   UNL     1      49.218   5.527  17.304  0.00  0.00    +0.000 F 
ATOM     25  C   UNL     1      48.344   6.532  15.387  0.00  0.00    +0.000 A 
BRANCH  22  26
ATOM     26  C   UNL     1      47.998   2.962  16.675  0.00  0.00    +0.000 C 
ATOM     27  N   UNL     1      47.026   2.744  17.613  0.00  0.00    +0.000 N 
ATOM     28  O   UNL     1      48.912   2.173  16.533  0.00  0.00    +0.000 OA
ATOM     29  H   UNL     1      46.240   3.366  17.753  0.00  0.00    +0.000 HD
ATOM     30  H   UNL     1      47.086   1.899  18.170  0.00  0.00    +0.000 HD
ENDBRANCH  22  26
ENDBRANCH  17  19
ENDBRANCH  16  17
ENDBRANCH   1  16
TORSDOF 7
ENDMDL
MODEL 3
REMARK VINA RESULT:    -7.458      3.385      6.068
REMARK INTER + INTRA:         -11.597
REMARK INTER:                 -10.970
REMARK INTRA:                  -0.627
REMARK UNBOUND:                -1.087
REMARK  Name = 
REMARK  8 active torsions:
REMARK  status: ('A' for Active; 'I' for Inactive)
REMARK    1  A    between atoms: C_1  and  C_2
REMARK    2  A    between atoms: C_2  and  C_3
REMARK    3  A    between atoms: C_6  and  C_7
REMARK    4  A    between atoms: C_11  and  C_12
REMARK    5  A    between atoms: C_12  and  C_13
REMARK    6  A    between atoms: C_13  and  N_14
REMARK    7  A    between atoms: N_14  and  C_15
REMARK    8  A    between atoms: C_18  and  C_19
REMARK                            x       y       z     vdW  Elec       q    Type
REMARK                         _______ _______ _______ _____ _____    ______ ____
ROOT
ATOM      1  C   UNL     1      45.514   4.469  11.761  0.00  0.00    +0.000 C 
ENDROOT
BRANCH   1   6
ATOM      2  C   UNL     1      45.461   8.303  11.762  0.00  0.00    +0.000 A 
ATOM      3  C   UNL     1      46.696   8.583  12.361  0.00  0.00    +0.000 A 
ATOM      4  C   UNL     1      47.559   7.559  12.740  0.00  0.00    +0.000 A 
ATOM      5  C   UNL     1      47.192   6.229  12.540  0.00  0.00    +0.000 A 
ATOM      6  C   UNL     1      45.973   5.907  11.927  0.00  0.00    +0.000 A 
ATOM      7  C   UNL     1      45.149   6.970  11.513  0.00  0.00    +0.000 A 
BRANCH   2  11
ATOM      8  C   UNL     1      42.700  11.308  10.935  0.00  0.00    +0.000 A 
ATOM      9  C   UNL     1      42.469   9.984  10.572  0.00  0.00    +0.000 A 
ATOM     10  N   UNL     1      43.349   8.990  10.820  0.00  0.00    +0.000 NA
ATOM     11  C   UNL     1      44.496   9.361  11.451  0.00  0.00    +0.000 A 
ATOM     12  C   UNL     1      44.710  10.682  11.818  0.00  0.00    +0.000 A 
ATOM     13  N   UNL     1      43.834  11.676  11.576  0.00  0.00    +0.000 NA
BRANCH   8  15
ATOM     14  C   UNL     1      40.769  11.999   9.552  0.00  0.00    +0.000 C 
ATOM     15  C   UNL     1      41.683  12.379  10.703  0.00  0.00    +0.000 C 
ENDBRANCH   8  15
ENDBRANCH   2  11
ENDBRANCH   1   6
BRANCH   1  16
ATOM     16  C   UNL     1      43.993   4.334  11.535  0.00  0.00    +0.000 C 
BRANCH  16  17
ATOM     17  N   UNL     1      43.648   4.132  10.134  0.00  0.00    +0.000 N 
ATOM     18  H   UNL     1      42.778   3.618  10.017  0.00  0.00    +0.000 HD
BRANCH  17  19
ATOM     19  C   UNL     1      44.660   3.632   9.301  0.00  0.00    +0.000 A 
ATOM     20  C   UNL     1      45.480   4.431   8.486  0.00  0.00    +0.000 A 
ATOM     21  C   UNL     1      46.436   3.858   7.631  0.00  0.00    +0.000 A 
ATOM     22  C   UNL     1      46.570   2.471   7.553  0.00  0.00    +0.000 A 
ATOM     23  C   UNL     1      45.736   1.679   8.340  0.00  0.00    +0.000 A 
ATOM     24  F   UNL     1      45.818   0.339   8.318  0.00  0.00    +0.000 F 
ATOM     25  C   UNL     1      44.786   2.245   9.184  0.00  0.00    +0.000 A 
BRANCH  22  26
ATOM     26  C   UNL     1      47.587   1.907   6.623  0.00  0.00    +0.000 C 
ATOM     27  N   UNL     1      48.712   2.648   6.389  0.00  0.00    +0.000 N 
ATOM     28  O   UNL     1      47.433   0.826   6.089  0.00  0.00    +0.000 OA
ATOM     29  H   UNL     1      48.888   3.545   6.825  0.00  0.00    +0.000 HD
ATOM     30  H   UNL     1      49.416   2.260   5.772  0.00  0.00    +0.000 HD
ENDBRANCH  22  26
ENDBRANCH  17  19
ENDBRANCH  16  17
ENDBRANCH   1  16
TORSDOF 7
ENDMDL
MODEL 4
REMARK VINA RESULT:    -7.455      2.815      5.353
REMARK INTER + INTRA:         -11.593
REMARK INTER:                 -11.014
REMARK INTRA:                  -0.579
REMARK UNBOUND:                -1.087
REMARK  Name = 
REMARK  8 active torsions:
REMARK  status: ('A' for Active; 'I' for Inactive)
REMARK    1  A    between atoms: C_1  and  C_2
REMARK    2  A    between atoms: C_2  and  C_3
REMARK    3  A    between atoms: C_6  and  C_7
REMARK    4  A    between atoms: C_11  and  C_12
REMARK    5  A    between atoms: C_12  and  C_13
REMARK    6  A    between atoms: C_13  and  N_14
REMARK    7  A    between atoms: N_14  and  C_15
REMARK    8  A    between atoms: C_18  and  C_19
REMARK                            x       y       z     vdW  Elec       q    Type
REMARK                         _______ _______ _______ _____ _____    ______ ____
ROOT
ATOM      1  C   UNL     1      45.346   3.283  12.177  0.00  0.00    +0.000 C 
ENDROOT
BRANCH   1   6
ATOM      2  C   UNL     1      46.171   7.005  12.586  0.00  0.00    +0.000 A 
ATOM      3  C   UNL     1      47.129   6.952  13.606  0.00  0.00    +0.000 A 
ATOM      4  C   UNL     1      47.536   5.735  14.147  0.00  0.00    +0.000 A 
ATOM      5  C   UNL     1      46.975   4.546  13.684  0.00  0.00    +0.000 A 
ATOM      6  C   UNL     1      46.027   4.554  12.652  0.00  0.00    +0.000 A 
ATOM      7  C   UNL     1      45.677   5.800  12.096  0.00  0.00    +0.000 A 
BRANCH   2  11
ATOM      8  C   UNL     1      44.724  10.608  11.082  0.00  0.00    +0.000 A 
ATOM      9  C   UNL     1      45.923  10.540  11.787  0.00  0.00    +0.000 A 
ATOM     10  N   UNL     1      46.413   9.388  12.293  0.00  0.00    +0.000 NA
ATOM     11  C   UNL     1      45.655   8.279  12.076  0.00  0.00    +0.000 A 
ATOM     12  C   UNL     1      44.468   8.357  11.363  0.00  0.00    +0.000 A 
ATOM     13  N   UNL     1      43.977   9.503  10.853  0.00  0.00    +0.000 NA
BRANCH   8  15
ATOM     14  C   UNL     1      44.863  12.102   9.115  0.00  0.00    +0.000 C 
ATOM     15  C   UNL     1      44.234  11.886  10.480  0.00  0.00    +0.000 C 
ENDBRANCH   8  15
ENDBRANCH   2  11
ENDBRANCH   1   6
BRANCH   1  16
ATOM     16  C   UNL     1      43.839   3.464  11.895  0.00  0.00    +0.000 C 
BRANCH  16  17
ATOM     17  N   UNL     1      43.561   3.785  10.501  0.00  0.00    +0.000 N 
ATOM     18  H   UNL     1      42.649   3.449  10.199  0.00  0.00    +0.000 HD
BRANCH  17  19
ATOM     19  C   UNL     1      44.563   3.471   9.570  0.00  0.00    +0.000 A 
ATOM     20  C   UNL     1      45.248   4.422   8.797  0.00  0.00    +0.000 A 
ATOM     21  C   UNL     1      46.199   4.033   7.839  0.00  0.00    +0.000 A 
ATOM     22  C   UNL     1      46.462   2.680   7.617  0.00  0.00    +0.000 A 
ATOM     23  C   UNL     1      45.760   1.737   8.365  0.00  0.00    +0.000 A 
ATOM     24  F   UNL     1      45.970   0.421   8.205  0.00  0.00    +0.000 F 
ATOM     25  C   UNL     1      44.814   2.122   9.310  0.00  0.00    +0.000 A 
BRANCH  22  26
ATOM     26  C   UNL     1      47.468   2.313   6.583  0.00  0.00    +0.000 C 
ATOM     27  N   UNL     1      47.325   2.858   5.336  0.00  0.00    +0.000 N 
ATOM     28  O   UNL     1      48.391   1.560   6.829  0.00  0.00    +0.000 OA
ATOM     29  H   UNL     1      46.582   3.502   5.093  0.00  0.00    +0.000 HD
ATOM     30  H   UNL     1      48.019   2.627   4.635  0.00  0.00    +0.000 HD
ENDBRANCH  22  26
ENDBRANCH  17  19
ENDBRANCH  16  17
ENDBRANCH   1  16
TORSDOF 7
ENDMDL
MODEL 5
REMARK VINA RESULT:    -6.909      2.208      2.941
REMARK INTER + INTRA:         -10.823
REMARK INTER:                 -10.125
REMARK INTRA:                  -0.698
REMARK UNBOUND:                -1.087
REMARK  Name = 
REMARK  8 active torsions:
REMARK  status: ('A' for Active; 'I' for Inactive)
REMARK    1  A    between atoms: C_1  and  C_2
REMARK    2  A    between atoms: C_2  and  C_3
REMARK    3  A    between atoms: C_6  and  C_7
REMARK    4  A    between atoms: C_11  and  C_12
REMARK    5  A    between atoms: C_12  and  C_13
REMARK    6  A    between atoms: C_13  and  N_14
REMARK    7  A    between atoms: N_14  and  C_15
REMARK    8  A    between atoms: C_18  and  C_19
REMARK                            x       y       z     vdW  Elec       q    Type
REMARK                         _______ _______ _______ _____ _____    ______ ____
ROOT
ATOM      1  C   UNL     1      45.464   3.954  11.971  0.00  0.00    +0.000 C 
ENDROOT
BRANCH   1   6
ATOM      2  C   UNL     1      47.110   7.126  13.361  0.00  0.00    +0.000 A 
ATOM      3  C   UNL     1      46.281   8.114  12.815  0.00  0.00    +0.000 A 
ATOM      4  C   UNL     1      45.183   7.775  12.030  0.00  0.00    +0.000 A 
ATOM      5  C   UNL     1      44.905   6.436  11.762  0.00  0.00    +0.000 A 
ATOM      6  C   UNL     1      45.699   5.417  12.303  0.00  0.00    +0.000 A 
ATOM      7  C   UNL     1      46.771   5.796  13.134  0.00  0.00    +0.000 A 
BRANCH   2  11
ATOM      8  C   UNL     1      50.538   8.088  15.521  0.00  0.00    +0.000 A 
ATOM      9  C   UNL     1      49.889   9.028  14.725  0.00  0.00    +0.000 A 
ATOM     10  N   UNL     1      48.780   8.743  14.007  0.00  0.00    +0.000 NA
ATOM     11  C   UNL     1      48.329   7.464  14.104  0.00  0.00    +0.000 A 
ATOM     12  C   UNL     1      48.978   6.538  14.909  0.00  0.00    +0.000 A 
ATOM     13  N   UNL     1      50.080   6.819  15.629  0.00  0.00    +0.000 NA
BRANCH   8  15
ATOM     14  C   UNL     1      52.694   9.300  15.552  0.00  0.00    +0.000 C 
ATOM     15  C   UNL     1      51.728   8.445  16.353  0.00  0.00    +0.000 C 
ENDBRANCH   8  15
ENDBRANCH   2  11
ENDBRANCH   1   6
BRANCH   1  16
ATOM     16  C   UNL     1      43.972   3.598  11.794  0.00  0.00    +0.000 C 
BRANCH  16  17
ATOM     17  N   UNL     1      43.576   3.515  10.394  0.00  0.00    +0.000 N 
ATOM     18  H   UNL     1      42.797   2.877  10.247  0.00  0.00    +0.000 HD
BRANCH  17  19
ATOM     19  C   UNL     1      44.602   3.303   9.460  0.00  0.00    +0.000 A 
ATOM     20  C   UNL     1      45.185   4.319   8.683  0.00  0.00    +0.000 A 
ATOM     21  C   UNL     1      46.167   4.027   7.723  0.00  0.00    +0.000 A 
ATOM     22  C   UNL     1      46.565   2.707   7.501  0.00  0.00    +0.000 A 
ATOM     23  C   UNL     1      45.965   1.699   8.252  0.00  0.00    +0.000 A 
ATOM     24  F   UNL     1      46.308   0.411   8.093  0.00  0.00    +0.000 F 
ATOM     25  C   UNL     1      44.989   1.987   9.200  0.00  0.00    +0.000 A 
BRANCH  22  26
ATOM     26  C   UNL     1      47.600   2.444   6.464  0.00  0.00    +0.000 C 
ATOM     27  N   UNL     1      47.408   2.985   5.223  0.00  0.00    +0.000 N 
ATOM     28  O   UNL     1      48.587   1.775   6.704  0.00  0.00    +0.000 OA
ATOM     29  H   UNL     1      46.609   3.561   4.985  0.00  0.00    +0.000 HD
ATOM     30  H   UNL     1      48.120   2.825   4.520  0.00  0.00    +0.000 HD
ENDBRANCH  22  26
ENDBRANCH  17  19
ENDBRANCH  16  17
ENDBRANCH   1  16
TORSDOF 7
ENDMDL
MODEL 6
REMARK VINA RESULT:    -6.857      3.957      8.054
REMARK INTER + INTRA:         -10.750
REMARK INTER:                  -9.326
REMARK INTRA:                  -1.424
REMARK UNBOUND:                -1.087
REMARK  Name = 
REMARK  8 active torsions:
REMARK  status: ('A' for Active; 'I' for Inactive)
REMARK    1  A    between atoms: C_1  and  C_2
REMARK    2  A    between atoms: C_2  and  C_3
REMARK    3  A    between atoms: C_6  and  C_7
REMARK    4  A    between atoms: C_11  and  C_12
REMARK    5  A    between atoms: C_12  and  C_13
REMARK    6  A    between atoms: C_13  and  N_14
REMARK    7  A    between atoms: N_14  and  C_15
REMARK    8  A    between atoms: C_18  and  C_19
REMARK                            x       y       z     vdW  Elec       q    Type
REMARK                         _______ _______ _______ _____ _____    ______ ____
ROOT
ATOM      1  C   UNL     1      48.155   9.157  16.342  0.00  0.00    +0.000 C 
ENDROOT
BRANCH   1   6
ATOM      2  C   UNL     1      47.978   6.850  13.284  0.00  0.00    +0.000 A 
ATOM      3  C   UNL     1      49.238   7.071  12.714  0.00  0.00    +0.000 A 
ATOM      4  C   UNL     1      50.155   7.930  13.311  0.00  0.00    +0.000 A 
ATOM      5  C   UNL     1      49.820   8.598  14.488  0.00  0.00    +0.000 A 
ATOM      6  C   UNL     1      48.577   8.390  15.101  0.00  0.00    +0.000 A 
ATOM      7  C   UNL     1      47.694   7.477  14.494  0.00  0.00    +0.000 A 
BRANCH   2  11
ATOM      8  C   UNL     1      45.047   4.568  11.403  0.00  0.00    +0.000 A 
ATOM      9  C   UNL     1      45.508   4.255  12.679  0.00  0.00    +0.000 A 
ATOM     10  N   UNL     1      46.463   4.972  13.310  0.00  0.00    +0.000 NA
ATOM     11  C   UNL     1      46.960   6.031  12.617  0.00  0.00    +0.000 A 
ATOM     12  C   UNL     1      46.485   6.340  11.351  0.00  0.00    +0.000 A 
ATOM     13  N   UNL     1      45.530   5.630  10.718  0.00  0.00    +0.000 NA
BRANCH   8  15
ATOM     14  C   UNL     1      43.348   2.799  11.729  0.00  0.00    +0.000 C 
ATOM     15  C   UNL     1      43.946   3.794  10.750  0.00  0.00    +0.000 C 
ENDBRANCH   8  15
ENDBRANCH   2  11
ENDBRANCH   1   6
BRANCH   1  16
ATOM     16  C   UNL     1      48.684   8.536  17.653  0.00  0.00    +0.000 C 
BRANCH  16  17
ATOM     17  N   UNL     1      47.895   7.392  18.092  0.00  0.00    +0.000 N 
ATOM     18  H   UNL     1      47.561   7.493  19.048  0.00  0.00    +0.000 HD
BRANCH  17  19
ATOM     19  C   UNL     1      48.449   6.122  17.869  0.00  0.00    +0.000 A 
ATOM     20  C   UNL     1      49.805   5.890  17.586  0.00  0.00    +0.000 A 
ATOM     21  C   UNL     1      50.281   4.597  17.314  0.00  0.00    +0.000 A 
ATOM     22  C   UNL     1      49.402   3.513  17.293  0.00  0.00    +0.000 A 
ATOM     23  C   UNL     1      48.052   3.749  17.545  0.00  0.00    +0.000 A 
ATOM     24  F   UNL     1      47.155   2.750  17.547  0.00  0.00    +0.000 F 
ATOM     25  C   UNL     1      47.579   5.031  17.810  0.00  0.00    +0.000 A 
BRANCH  22  26
ATOM     26  C   UNL     1      49.948   2.162  16.987  0.00  0.00    +0.000 C 
ATOM     27  N   UNL     1      50.883   1.647  17.843  0.00  0.00    +0.000 N 
ATOM     28  O   UNL     1      49.580   1.530  16.016  0.00  0.00    +0.000 OA
ATOM     29  H   UNL     1      51.206   2.132  18.671  0.00  0.00    +0.000 HD
ATOM     30  H   UNL     1      51.243   0.720  17.649  0.00  0.00    +0.000 HD
ENDBRANCH  22  26
ENDBRANCH  17  19
ENDBRANCH  16  17
ENDBRANCH   1  16
TORSDOF 7
ENDMDL
MODEL 7
REMARK VINA RESULT:    -6.611      5.213     10.649
REMARK INTER + INTRA:         -10.403
REMARK INTER:                  -9.785
REMARK INTRA:                  -0.619
REMARK UNBOUND:                -1.087
REMARK  Name = 
REMARK  8 active torsions:
REMARK  status: ('A' for Active; 'I' for Inactive)
REMARK    1  A    between atoms: C_1  and  C_2
REMARK    2  A    between atoms: C_2  and  C_3
REMARK    3  A    between atoms: C_6  and  C_7
REMARK    4  A    between atoms: C_11  and  C_12
REMARK    5  A    between atoms: C_12  and  C_13
REMARK    6  A    between atoms: C_13  and  N_14
REMARK    7  A    between atoms: N_14  and  C_15
REMARK    8  A    between atoms: C_18  and  C_19
REMARK                            x       y       z     vdW  Elec       q    Type
REMARK                         _______ _______ _______ _____ _____    ______ ____
ROOT
ATOM      1  C   UNL     1      47.473   1.724   5.240  0.00  0.00    +0.000 C 
ENDROOT
BRANCH   1   6
ATOM      2  C   UNL     1      46.554  -1.485   3.351  0.00  0.00    +0.000 A 
ATOM      3  C   UNL     1      45.703  -0.974   2.363  0.00  0.00    +0.000 A 
ATOM      4  C   UNL     1      45.440   0.390   2.277  0.00  0.00    +0.000 A 
ATOM      5  C   UNL     1      46.015   1.269   3.193  0.00  0.00    +0.000 A 
ATOM      6  C   UNL     1      46.888   0.802   4.185  0.00  0.00    +0.000 A 
ATOM      7  C   UNL     1      47.168  -0.578   4.210  0.00  0.00    +0.000 A 
BRANCH   2  11
ATOM      8  C   UNL     1      47.196  -5.566   3.869  0.00  0.00    +0.000 A 
ATOM      9  C   UNL     1      47.431  -4.939   2.648  0.00  0.00    +0.000 A 
ATOM     10  N   UNL     1      47.225  -3.619   2.448  0.00  0.00    +0.000 NA
ATOM     11  C   UNL     1      46.762  -2.926   3.523  0.00  0.00    +0.000 A 
ATOM     12  C   UNL     1      46.541  -3.559   4.738  0.00  0.00    +0.000 A 
ATOM     13  N   UNL     1      46.749  -4.874   4.943  0.00  0.00    +0.000 NA
BRANCH   8  15
ATOM     14  C   UNL     1      48.009  -7.250   5.488  0.00  0.00    +0.000 C 
ATOM     15  C   UNL     1      47.490  -7.017   4.080  0.00  0.00    +0.000 C 
ENDBRANCH   8  15
ENDBRANCH   2  11
ENDBRANCH   1   6
BRANCH   1  16
ATOM     16  C   UNL     1      46.605   2.972   5.511  0.00  0.00    +0.000 C 
BRANCH  16  17
ATOM     17  N   UNL     1      47.032   3.708   6.694  0.00  0.00    +0.000 N 
ATOM     18  H   UNL     1      48.023   3.586   6.892  0.00  0.00    +0.000 HD
BRANCH  17  19
ATOM     19  C   UNL     1      46.250   3.554   7.849  0.00  0.00    +0.000 A 
ATOM     20  C   UNL     1      45.655   2.344   8.244  0.00  0.00    +0.000 A 
ATOM     21  C   UNL     1      44.834   2.274   9.382  0.00  0.00    +0.000 A 
ATOM     22  C   UNL     1      44.571   3.422  10.132  0.00  0.00    +0.000 A 
ATOM     23  C   UNL     1      45.139   4.626   9.722  0.00  0.00    +0.000 A 
ATOM     24  F   UNL     1      44.932   5.765  10.402  0.00  0.00    +0.000 F 
ATOM     25  C   UNL     1      45.948   4.697   8.592  0.00  0.00    +0.000 A 
BRANCH  22  26
ATOM     26  C   UNL     1      43.685   3.303  11.322  0.00  0.00    +0.000 C 
ATOM     27  N   UNL     1      44.070   2.446  12.316  0.00  0.00    +0.000 N 
ATOM     28  O   UNL     1      42.657   3.945  11.419  0.00  0.00    +0.000 OA
ATOM     29  H   UNL     1      44.926   1.905  12.284  0.00  0.00    +0.000 HD
ATOM     30  H   UNL     1      43.480   2.376  13.138  0.00  0.00    +0.000 HD
ENDBRANCH  22  26
ENDBRANCH  17  19
ENDBRANCH  16  17
ENDBRANCH   1  16
TORSDOF 7
ENDMDL
MODEL 8
REMARK VINA RESULT:    -6.387      3.205      4.307
REMARK INTER + INTRA:         -10.088
REMARK INTER:                  -8.956
REMARK INTRA:                  -1.132
REMARK UNBOUND:                -1.087
REMARK  Name = 
REMARK  8 active torsions:
REMARK  status: ('A' for Active; 'I' for Inactive)
REMARK    1  A    between atoms: C_1  and  C_2
REMARK    2  A    between atoms: C_2  and  C_3
REMARK    3  A    between atoms: C_6  and  C_7
REMARK    4  A    between atoms: C_11  and  C_12
REMARK    5  A    between atoms: C_12  and  C_13
REMARK    6  A    between atoms: C_13  and  N_14
REMARK    7  A    between atoms: N_14  and  C_15
REMARK    8  A    between atoms: C_18  and  C_19
REMARK                            x       y       z     vdW  Elec       q    Type
REMARK                         _______ _______ _______ _____ _____    ______ ____
ROOT
ATOM      1  C   UNL     1      46.603   9.981  12.301  0.00  0.00    +0.000 C 
ENDROOT
BRANCH   1   6
ATOM      2  C   UNL     1      48.866   7.398  14.009  0.00  0.00    +0.000 A 
ATOM      3  C   UNL     1      49.869   7.248  13.043  0.00  0.00    +0.000 A 
ATOM      4  C   UNL     1      49.845   7.985  11.862  0.00  0.00    +0.000 A 
ATOM      5  C   UNL     1      48.802   8.877  11.619  0.00  0.00    +0.000 A 
ATOM      6  C   UNL     1      47.789   9.071  12.568  0.00  0.00    +0.000 A 
ATOM      7  C   UNL     1      47.873   8.344  13.771  0.00  0.00    +0.000 A 
BRANCH   2  11
ATOM      8  C   UNL     1      48.777   4.987  17.402  0.00  0.00    +0.000 A 
ATOM      9  C   UNL     1      47.956   4.735  16.306  0.00  0.00    +0.000 A 
ATOM     10  N   UNL     1      47.957   5.505  15.196  0.00  0.00    +0.000 NA
ATOM     11  C   UNL     1      48.817   6.559  15.210  0.00  0.00    +0.000 A 
ATOM     12  C   UNL     1      49.638   6.793  16.303  0.00  0.00    +0.000 A 
ATOM     13  N   UNL     1      49.643   6.027  17.411  0.00  0.00    +0.000 NA
BRANCH   8  15
ATOM     14  C   UNL     1      48.532   4.877  19.861  0.00  0.00    +0.000 C 
ATOM     15  C   UNL     1      48.800   4.084  18.594  0.00  0.00    +0.000 C 
ENDBRANCH   8  15
ENDBRANCH   2  11
ENDBRANCH   1   6
BRANCH   1  16
ATOM     16  C   UNL     1      45.378   9.238  11.726  0.00  0.00    +0.000 C 
BRANCH  16  17
ATOM     17  N   UNL     1      44.797   8.294  12.673  0.00  0.00    +0.000 N 
ATOM     18  H   UNL     1      45.273   8.302  13.572  0.00  0.00    +0.000 HD
BRANCH  17  19
ATOM     19  C   UNL     1      44.587   6.986  12.210  0.00  0.00    +0.000 A 
ATOM     20  C   UNL     1      43.523   6.605  11.375  0.00  0.00    +0.000 A 
ATOM     21  C   UNL     1      43.338   5.264  10.999  0.00  0.00    +0.000 A 
ATOM     22  C   UNL     1      44.200   4.274  11.474  0.00  0.00    +0.000 A 
ATOM     23  C   UNL     1      45.237   4.650  12.325  0.00  0.00    +0.000 A 
ATOM     24  F   UNL     1      46.104   3.748  12.812  0.00  0.00    +0.000 F 
ATOM     25  C   UNL     1      45.418   5.977  12.703  0.00  0.00    +0.000 A 
BRANCH  22  26
ATOM     26  C   UNL     1      43.958   2.865  11.059  0.00  0.00    +0.000 C 
ATOM     27  N   UNL     1      44.826   2.311  10.159  0.00  0.00    +0.000 N 
ATOM     28  O   UNL     1      43.027   2.220  11.501  0.00  0.00    +0.000 OA
ATOM     29  H   UNL     1      45.623   2.806   9.777  0.00  0.00    +0.000 HD
ATOM     30  H   UNL     1      44.677   1.345   9.888  0.00  0.00    +0.000 HD
ENDBRANCH  22  26
ENDBRANCH  17  19
ENDBRANCH  16  17
ENDBRANCH   1  16
TORSDOF 7
ENDMDL
MODEL 9
REMARK VINA RESULT:    -6.309      4.189      8.099
REMARK INTER + INTRA:          -9.978
REMARK INTER:                  -9.297
REMARK INTRA:                  -0.681
REMARK UNBOUND:                -1.087
REMARK  Name = 
REMARK  8 active torsions:
REMARK  status: ('A' for Active; 'I' for Inactive)
REMARK    1  A    between atoms: C_1  and  C_2
REMARK    2  A    between atoms: C_2  and  C_3
REMARK    3  A    between atoms: C_6  and  C_7
REMARK    4  A    between atoms: C_11  and  C_12
REMARK    5  A    between atoms: C_12  and  C_13
REMARK    6  A    between atoms: C_13  and  N_14
REMARK    7  A    between atoms: N_14  and  C_15
REMARK    8  A    between atoms: C_18  and  C_19
REMARK                            x       y       z     vdW  Elec       q    Type
REMARK                         _______ _______ _______ _____ _____    ______ ____
ROOT
ATOM      1  C   UNL     1      45.146   7.107  12.663  0.00  0.00    +0.000 C 
ENDROOT
BRANCH   1   6
ATOM      2  C   UNL     1      44.632   4.193  10.223  0.00  0.00    +0.000 A 
ATOM      3  C   UNL     1      43.480   3.603  10.757  0.00  0.00    +0.000 A 
ATOM      4  C   UNL     1      42.848   4.143  11.874  0.00  0.00    +0.000 A 
ATOM      5  C   UNL     1      43.371   5.279  12.488  0.00  0.00    +0.000 A 
ATOM      6  C   UNL     1      44.512   5.911  11.975  0.00  0.00    +0.000 A 
ATOM      7  C   UNL     1      45.095   5.365  10.815  0.00  0.00    +0.000 A 
BRANCH   2  11
ATOM      8  C   UNL     1      46.776   2.452   7.108  0.00  0.00    +0.000 A 
ATOM      9  C   UNL     1      46.579   3.828   7.178  0.00  0.00    +0.000 A 
ATOM     10  N   UNL     1      45.882   4.420   8.172  0.00  0.00    +0.000 NA
ATOM     11  C   UNL     1      45.371   3.582   9.113  0.00  0.00    +0.000 A 
ATOM     12  C   UNL     1      45.583   2.213   9.039  0.00  0.00    +0.000 A 
ATOM     13  N   UNL     1      46.281   1.619   8.052  0.00  0.00    +0.000 NA
BRANCH   8  15
ATOM     14  C   UNL     1      46.962   2.054   4.673  0.00  0.00    +0.000 C 
ATOM     15  C   UNL     1      47.604   1.827   6.030  0.00  0.00    +0.000 C 
ENDBRANCH   8  15
ENDBRANCH   2  11
ENDBRANCH   1   6
BRANCH   1  16
ATOM     16  C   UNL     1      45.264   8.347  11.750  0.00  0.00    +0.000 C 
BRANCH  16  17
ATOM     17  N   UNL     1      46.214   9.329  12.256  0.00  0.00    +0.000 N 
ATOM     18  H   UNL     1      46.482  10.011  11.549  0.00  0.00    +0.000 HD
BRANCH  17  19
ATOM     19  C   UNL     1      47.330   8.832  12.945  0.00  0.00    +0.000 A 
ATOM     20  C   UNL     1      47.581   9.057  14.309  0.00  0.00    +0.000 A 
ATOM     21  C   UNL     1      48.751   8.579  14.922  0.00  0.00    +0.000 A 
ATOM     22  C   UNL     1      49.705   7.887  14.175  0.00  0.00    +0.000 A 
ATOM     23  C   UNL     1      49.468   7.689  12.816  0.00  0.00    +0.000 A 
ATOM     24  F   UNL     1      50.342   7.027  12.043  0.00  0.00    +0.000 F 
ATOM     25  C   UNL     1      48.312   8.167  12.207  0.00  0.00    +0.000 A 
BRANCH  22  26
ATOM     26  C   UNL     1      50.935   7.409  14.864  0.00  0.00    +0.000 C 
ATOM     27  N   UNL     1      52.139   7.871  14.407  0.00  0.00    +0.000 N 
ATOM     28  O   UNL     1      50.882   6.639  15.803  0.00  0.00    +0.000 OA
ATOM     29  H   UNL     1      52.229   8.525  13.639  0.00  0.00    +0.000 HD
ATOM     30  H   UNL     1      52.978   7.563  14.886  0.00  0.00    +0.000 HD
ENDBRANCH  22  26
ENDBRANCH  17  19
ENDBRANCH  16  17
ENDBRANCH   1  16
TORSDOF 7
ENDMDL
