MODEL 1
REMARK VINA RESULT:    -8.142      0.000      0.000
REMARK INTER + INTRA:         -12.211
REMARK INTER:                 -11.236
REMARK INTRA:                  -0.975
REMARK UNBOUND:                -0.975
REMARK  Name = 
REMARK  7 active torsions:
REMARK  status: ('A' for Active; 'I' for Inactive)
REMARK    1  A    between atoms: C_2  and  O_3
REMARK    2  A    between atoms: C_2  and  C_4
REMARK    3  A    between atoms: C_5  and  C_6
REMARK    4  A    between atoms: C_11  and  C_12
REMARK    5  A    between atoms: C_16  and  O_17
REMARK    6  A    between atoms: O_17  and  C_18
REMARK    7  A    between atoms: C_18  and  C_19
REMARK                            x       y       z     vdW  Elec       q    Type
REMARK                         _______ _______ _______ _____ _____    ______ ____
ROOT
ATOM      1  C   UNL     1      45.302   5.578  12.159  0.00  0.00    +0.000 A 
ATOM      2  C   UNL     1      44.104   5.789  12.869  0.00  0.00    +0.000 A 
ATOM      3  C   UNL     1      42.892   5.256  12.434  0.00  0.00    +0.000 A 
ATOM      4  C   UNL     1      42.848   4.509  11.262  0.00  0.00    +0.000 A 
ATOM      5  C   UNL     1      44.006   4.325  10.510  0.00  0.00    +0.000 A 
ATOM      6  C   UNL     1      45.225   4.838  10.967  0.00  0.00    +0.000 A 
ENDROOT
BRANCH   1  12
ATOM      7  C   UNL     1      48.033   6.043  14.533  0.00  0.00    +0.000 A 
ATOM      8  C   UNL     1      48.936   6.873  13.903  0.00  0.00    +0.000 A 
ATOM      9  C   UNL     1      48.611   7.315  12.630  0.00  0.00    +0.000 A 
ATOM     10  F   UNL     1      49.458   8.130  11.985  0.00  0.00    +0.000 F 
ATOM     11  C   UNL     1      47.432   6.933  12.005  0.00  0.00    +0.000 A 
ATOM     12  C   UNL     1      46.579   6.092  12.696  0.00  0.00    +0.000 A 
ATOM     13  N   UNL     1      46.874   5.663  13.947  0.00  0.00    +0.000 NA
BRANCH   7  15
ATOM     14  C   UNL     1      47.568   4.478  16.370  0.00  0.00    +0.000 C 
ATOM     15  C   UNL     1      48.275   5.515  15.881  0.00  0.00    +0.000 C 
BRANCH  14  17
ATOM     16  O   UNL     1      48.769   4.295  18.421  0.00  0.00    +0.000 OA
ATOM     17  C   UNL     1      47.828   3.962  17.723  0.00  0.00    +0.000 C 
BRANCH  17  18
ATOM     18  O   UNL     1      46.892   3.068  18.106  0.00  0.00    +0.000 OA
ATOM     19  H   UNL     1      46.033   3.147  17.656  0.00  0.00    +0.000 HD
ENDBRANCH  17  18
ENDBRANCH  14  17
ENDBRANCH   7  15
ENDBRANCH   1  12
BRANCH   5  20
ATOM     20  O   UNL     1      44.063   3.648   9.322  0.00  0.00    +0.000 OA
BRANCH  20  21
ATOM     21  C   UNL     1      44.741   2.391   9.368  0.00  0.00    +0.000 C 
BRANCH  21  22
ATOM     22  C   UNL     1      45.724   2.347   8.231  0.00  0.00    +0.000 A 
ATOM     23  C   UNL     1      46.470   1.190   7.975  0.00  0.00    +0.000 A 
ATOM     24  C   UNL     1      47.404   1.173   6.938  0.00  0.00    +0.000 A 
ATOM     25  C   UNL     1      47.600   2.312   6.156  0.00  0.00    +0.000 A 
ATOM     26  C   UNL     1      46.863   3.467   6.406  0.00  0.00    +0.000 A 
ATOM     27  C   UNL     1      45.931   3.487   7.442  0.00  0.00    +0.000 A 
ENDBRANCH  21  22
ENDBRANCH  20  21
ENDBRANCH   5  20
TORSDOF 7
ENDMDL
MODEL 2
REMARK VINA RESULT:    -7.783      3.377      4.791
REMARK INTER + INTRA:         -11.715
REMARK INTER:                 -10.779
REMARK INTRA:                  -0.937
REMARK UNBOUND:                -0.975
REMARK  Name = 
REMARK  7 active torsions:
REMARK  status: ('A' for Active; 'I' for Inactive)
REMARK    1  A    between atoms: C_2  and  O_3
REMARK    2  A    between atoms: C_2  and  C_4
REMARK    3  A    between atoms: C_5  and  C_6
REMARK    4  A    between atoms: C_11  and  C_12
REMARK    5  A    between atoms: C_16  and  O_17
REMARK    6  A    between atoms: O_17  and  C_18
REMARK    7  A    between atoms: C_18  and  C_19
REMARK                            x       y       z     vdW  Elec       q    Type
REMARK                         _______ _______ _______ _____ _____    ______ ____
ROOT
ATOM      1  C   UNL     1      45.049   5.510  11.884  0.00  0.00    +0.000 A 
ATOM      2  C   UNL     1      44.289   5.086  12.991  0.00  0.00    +0.000 A 
ATOM      3  C   UNL     1      43.591   3.879  12.981  0.00  0.00    +0.000 A 
ATOM      4  C   UNL     1      43.625   3.072  11.850  0.00  0.00    +0.000 A 
ATOM      5  C   UNL     1      44.327   3.486  10.720  0.00  0.00    +0.000 A 
ATOM      6  C   UNL     1      45.049   4.685  10.747  0.00  0.00    +0.000 A 
ENDROOT
BRANCH   1  12
ATOM      7  C   UNL     1      45.709   9.094  12.041  0.00  0.00    +0.000 A 
ATOM      8  C   UNL     1      47.078   9.216  12.150  0.00  0.00    +0.000 A 
ATOM      9  C   UNL     1      47.821   8.046  12.153  0.00  0.00    +0.000 A 
ATOM     10  F   UNL     1      49.156   8.119  12.250  0.00  0.00    +0.000 F 
ATOM     11  C   UNL     1      47.218   6.799  12.063  0.00  0.00    +0.000 A 
ATOM     12  C   UNL     1      45.838   6.755  11.964  0.00  0.00    +0.000 A 
ATOM     13  N   UNL     1      45.098   7.891  11.944  0.00  0.00    +0.000 NA
BRANCH   7  15
ATOM     14  C   UNL     1      43.647  10.254  11.375  0.00  0.00    +0.000 C 
ATOM     15  C   UNL     1      44.825  10.266  12.028  0.00  0.00    +0.000 C 
BRANCH  14  17
ATOM     16  O   UNL     1      42.793  12.312  10.528  0.00  0.00    +0.000 OA
ATOM     17  C   UNL     1      42.775  11.439  11.376  0.00  0.00    +0.000 C 
BRANCH  17  18
ATOM     18  O   UNL     1      41.940  11.444  12.438  0.00  0.00    +0.000 OA
ATOM     19  H   UNL     1      41.491  12.291  12.608  0.00  0.00    +0.000 HD
ENDBRANCH  17  18
ENDBRANCH  14  17
ENDBRANCH   7  15
ENDBRANCH   1  12
BRANCH   5  20
ATOM     20  O   UNL     1      44.388   2.791   9.543  0.00  0.00    +0.000 OA
BRANCH  20  21
ATOM     21  C   UNL     1      44.750   3.561   8.397  0.00  0.00    +0.000 C 
BRANCH  21  22
ATOM     22  C   UNL     1      45.792   2.797   7.627  0.00  0.00    +0.000 A 
ATOM     23  C   UNL     1      46.235   1.546   8.071  0.00  0.00    +0.000 A 
ATOM     24  C   UNL     1      47.227   0.863   7.367  0.00  0.00    +0.000 A 
ATOM     25  C   UNL     1      47.784   1.428   6.218  0.00  0.00    +0.000 A 
ATOM     26  C   UNL     1      47.349   2.673   5.772  0.00  0.00    +0.000 A 
ATOM     27  C   UNL     1      46.359   3.358   6.475  0.00  0.00    +0.000 A 
ENDBRANCH  21  22
ENDBRANCH  20  21
ENDBRANCH   5  20
TORSDOF 7
ENDMDL
MODEL 3
REMARK VINA RESULT:    -7.690      3.391      3.873
REMARK INTER + INTRA:         -11.588
REMARK INTER:                 -10.686
REMARK INTRA:                  -0.901
REMARK UNBOUND:                -0.975
REMARK  Name = 
REMARK  7 active torsions:
REMARK  status: ('A' for Active; 'I' for Inactive)
REMARK    1  A    between atoms: C_2  and  O_3
REMARK    2  A    between atoms: C_2  and  C_4
REMARK    3  A    between atoms: C_5  and  C_6
REMARK    4  A    between atoms: C_11  and  C_12
REMARK    5  A    between atoms: C_16  and  O_17
REMARK    6  A    between atoms: O_17  and  C_18
REMARK    7  A    between atoms: C_18  and  C_19
REMARK                            x       y       z     vdW  Elec       q    Type
REMARK                         _______ _______ _______ _____ _____    ______ ____
ROOT
ATOM      1  C   UNL     1      44.906   6.051  11.795  0.00  0.00    +0.000 A 
ATOM      2  C   UNL     1      44.067   5.695  12.869  0.00  0.00    +0.000 A 
ATOM      3  C   UNL     1      43.279   4.546  12.831  0.00  0.00    +0.000 A 
ATOM      4  C   UNL     1      43.300   3.730  11.705  0.00  0.00    +0.000 A 
ATOM      5  C   UNL     1      44.081   4.081  10.606  0.00  0.00    +0.000 A 
ATOM      6  C   UNL     1      44.893   5.221  10.662  0.00  0.00    +0.000 A 
ENDROOT
BRANCH   1  12
ATOM      7  C   UNL     1      48.012   7.962  11.871  0.00  0.00    +0.000 A 
ATOM      8  C   UNL     1      47.635   9.279  12.035  0.00  0.00    +0.000 A 
ATOM      9  C   UNL     1      46.279   9.541  12.143  0.00  0.00    +0.000 A 
ATOM     10  F   UNL     1      45.868  10.807  12.310  0.00  0.00    +0.000 F 
ATOM     11  C   UNL     1      45.332   8.528  12.079  0.00  0.00    +0.000 A 
ATOM     12  C   UNL     1      45.785   7.232  11.906  0.00  0.00    +0.000 A 
ATOM     13  N   UNL     1      47.110   6.956  11.814  0.00  0.00    +0.000 NA
BRANCH   7  15
ATOM     14  C   UNL     1      50.378   8.466  11.436  0.00  0.00    +0.000 C 
ATOM     15  C   UNL     1      49.421   7.570  11.745  0.00  0.00    +0.000 C 
BRANCH  14  17
ATOM     16  O   UNL     1      52.733   8.697  11.729  0.00  0.00    +0.000 OA
ATOM     17  C   UNL     1      51.785   8.052  11.317  0.00  0.00    +0.000 C 
BRANCH  17  18
ATOM     18  O   UNL     1      51.905   6.861  10.693  0.00  0.00    +0.000 OA
ATOM     19  H   UNL     1      51.574   6.836   9.778  0.00  0.00    +0.000 HD
ENDBRANCH  17  18
ENDBRANCH  14  17
ENDBRANCH   7  15
ENDBRANCH   1  12
BRANCH   5  20
ATOM     20  O   UNL     1      44.140   3.375   9.436  0.00  0.00    +0.000 OA
BRANCH  20  21
ATOM     21  C   UNL     1      44.986   2.225   9.458  0.00  0.00    +0.000 C 
BRANCH  21  22
ATOM     22  C   UNL     1      45.850   2.253   8.228  0.00  0.00    +0.000 A 
ATOM     23  C   UNL     1      46.623   1.142   7.870  0.00  0.00    +0.000 A 
ATOM     24  C   UNL     1      47.447   1.194   6.745  0.00  0.00    +0.000 A 
ATOM     25  C   UNL     1      47.506   2.357   5.975  0.00  0.00    +0.000 A 
ATOM     26  C   UNL     1      46.741   3.466   6.326  0.00  0.00    +0.000 A 
ATOM     27  C   UNL     1      45.919   3.418   7.450  0.00  0.00    +0.000 A 
ENDBRANCH  21  22
ENDBRANCH  20  21
ENDBRANCH   5  20
TORSDOF 7
ENDMDL
MODEL 4
REMARK VINA RESULT:    -7.405      4.426      8.032
REMARK INTER + INTRA:         -11.193
REMARK INTER:                 -10.285
REMARK INTRA:                  -0.908
REMARK UNBOUND:                -0.975
REMARK  Name = 
REMARK  7 active torsions:
REMARK  status: ('A' for Active; 'I' for Inactive)
REMARK    1  A    between atoms: C_2  and  O_3
REMARK    2  A    between atoms: C_2  and  C_4
REMARK    3  A    between atoms: C_5  and  C_6
REMARK    4  A    between atoms: C_11  and  C_12
REMARK    5  A    between atoms: C_16  and  O_17
REMARK    6  A    between atoms: O_17  and  C_18
REMARK    7  A    between atoms: C_18  and  C_19
REMARK                            x       y       z     vdW  Elec       q    Type
REMARK                         _______ _______ _______ _____ _____    ______ ____
ROOT
ATOM      1  C   UNL     1      45.430   6.422  11.604  0.00  0.00    +0.000 A 
ATOM      2  C   UNL     1      46.588   6.457  12.404  0.00  0.00    +0.000 A 
ATOM      3  C   UNL     1      46.986   7.617  13.067  0.00  0.00    +0.000 A 
ATOM      4  C   UNL     1      46.239   8.781  12.930  0.00  0.00    +0.000 A 
ATOM      5  C   UNL     1      45.115   8.793  12.106  0.00  0.00    +0.000 A 
ATOM      6  C   UNL     1      44.705   7.618  11.466  0.00  0.00    +0.000 A 
ENDROOT
BRANCH   1  12
ATOM      7  C   UNL     1      45.179   3.806   9.074  0.00  0.00    +0.000 A 
ATOM      8  C   UNL     1      44.375   2.831   9.626  0.00  0.00    +0.000 A 
ATOM      9  C   UNL     1      43.876   3.064  10.898  0.00  0.00    +0.000 A 
ATOM     10  F   UNL     1      43.085   2.146  11.470  0.00  0.00    +0.000 F 
ATOM     11  C   UNL     1      44.179   4.224  11.599  0.00  0.00    +0.000 A 
ATOM     12  C   UNL     1      44.998   5.154  10.983  0.00  0.00    +0.000 A 
ATOM     13  N   UNL     1      45.482   4.948   9.733  0.00  0.00    +0.000 NA
BRANCH   7  15
ATOM     14  C   UNL     1      46.743   2.776   7.483  0.00  0.00    +0.000 C 
ATOM     15  C   UNL     1      45.761   3.663   7.735  0.00  0.00    +0.000 C 
BRANCH  14  17
ATOM     16  O   UNL     1      46.656   2.592   5.108  0.00  0.00    +0.000 OA
ATOM     17  C   UNL     1      47.312   2.647   6.132  0.00  0.00    +0.000 C 
BRANCH  17  18
ATOM     18  O   UNL     1      48.661   2.598   6.160  0.00  0.00    +0.000 OA
ATOM     19  H   UNL     1      49.110   3.447   6.001  0.00  0.00    +0.000 HD
ENDBRANCH  17  18
ENDBRANCH  14  17
ENDBRANCH   7  15
ENDBRANCH   1  12
BRANCH   5  20
ATOM     20  O   UNL     1      44.337   9.894  11.867  0.00  0.00    +0.000 OA
BRANCH  20  21
ATOM     21  C   UNL     1      45.046  11.068  11.468  0.00  0.00    +0.000 C 
BRANCH  21  22
ATOM     22  C   UNL     1      44.798  11.290  10.002  0.00  0.00    +0.000 A 
ATOM     23  C   UNL     1      45.618  12.148   9.259  0.00  0.00    +0.000 A 
ATOM     24  C   UNL     1      45.356  12.373   7.907  0.00  0.00    +0.000 A 
ATOM     25  C   UNL     1      44.272  11.745   7.292  0.00  0.00    +0.000 A 
ATOM     26  C   UNL     1      43.451  10.891   8.025  0.00  0.00    +0.000 A 
ATOM     27  C   UNL     1      43.710  10.666   9.375  0.00  0.00    +0.000 A 
ENDBRANCH  21  22
ENDBRANCH  20  21
ENDBRANCH   5  20
TORSDOF 7
ENDMDL
MODEL 5
REMARK VINA RESULT:    -7.319      2.796      8.253
REMARK INTER + INTRA:         -11.074
REMARK INTER:                 -10.177
REMARK INTRA:                  -0.898
REMARK UNBOUND:                -0.975
REMARK  Name = 
REMARK  7 active torsions:
REMARK  status: ('A' for Active; 'I' for Inactive)
REMARK    1  A    between atoms: C_2  and  O_3
REMARK    2  A    between atoms: C_2  and  C_4
REMARK    3  A    between atoms: C_5  and  C_6
REMARK    4  A    between atoms: C_11  and  C_12
REMARK    5  A    between atoms: C_16  and  O_17
REMARK    6  A    between atoms: O_17  and  C_18
REMARK    7  A    between atoms: C_18  and  C_19
REMARK                            x       y       z     vdW  Elec       q    Type
REMARK                         _______ _______ _______ _____ _____    ______ ____
ROOT
ATOM      1  C   UNL     1      45.995   6.018  12.233  0.00  0.00    +0.000 A 
ATOM      2  C   UNL     1      45.507   7.339  12.197  0.00  0.00    +0.000 A 
ATOM      3  C   UNL     1      46.141   8.372  12.885  0.00  0.00    +0.000 A 
ATOM      4  C   UNL     1      47.275   8.103  13.642  0.00  0.00    +0.000 A 
ATOM      5  C   UNL     1      47.754   6.799  13.739  0.00  0.00    +0.000 A 
ATOM      6  C   UNL     1      47.130   5.770  13.022  0.00  0.00    +0.000 A 
ENDROOT
BRANCH   1  12
ATOM      7  C   UNL     1      45.335   3.887   9.346  0.00  0.00    +0.000 A 
ATOM      8  C   UNL     1      44.320   3.038   9.735  0.00  0.00    +0.000 A 
ATOM      9  C   UNL     1      43.818   3.195  11.017  0.00  0.00    +0.000 A 
ATOM     10  F   UNL     1      42.826   2.395  11.433  0.00  0.00    +0.000 F 
ATOM     11  C   UNL     1      44.319   4.157  11.884  0.00  0.00    +0.000 A 
ATOM     12  C   UNL     1      45.342   4.967  11.426  0.00  0.00    +0.000 A 
ATOM     13  N   UNL     1      45.835   4.837  10.170  0.00  0.00    +0.000 NA
BRANCH   7  15
ATOM     14  C   UNL     1      46.628   2.722   7.611  0.00  0.00    +0.000 C 
ATOM     15  C   UNL     1      45.942   3.810   8.012  0.00  0.00    +0.000 C 
BRANCH  14  17
ATOM     16  O   UNL     1      46.592   2.598   5.230  0.00  0.00    +0.000 OA
ATOM     17  C   UNL     1      47.226   2.663   6.268  0.00  0.00    +0.000 C 
BRANCH  17  18
ATOM     18  O   UNL     1      48.575   2.693   6.319  0.00  0.00    +0.000 OA
ATOM     19  H   UNL     1      49.028   2.204   5.610  0.00  0.00    +0.000 HD
ENDBRANCH  17  18
ENDBRANCH  14  17
ENDBRANCH   7  15
ENDBRANCH   1  12
BRANCH   5  20
ATOM     20  O   UNL     1      48.833   6.419  14.490  0.00  0.00    +0.000 OA
BRANCH  20  21
ATOM     21  C   UNL     1      48.704   6.635  15.896  0.00  0.00    +0.000 C 
BRANCH  21  22
ATOM     22  C   UNL     1      48.657   5.294  16.575  0.00  0.00    +0.000 A 
ATOM     23  C   UNL     1      47.480   4.537  16.585  0.00  0.00    +0.000 A 
ATOM     24  C   UNL     1      47.440   3.310  17.247  0.00  0.00    +0.000 A 
ATOM     25  C   UNL     1      48.575   2.835  17.906  0.00  0.00    +0.000 A 
ATOM     26  C   UNL     1      49.750   3.584  17.902  0.00  0.00    +0.000 A 
ATOM     27  C   UNL     1      49.791   4.810  17.242  0.00  0.00    +0.000 A 
ENDBRANCH  21  22
ENDBRANCH  20  21
ENDBRANCH   5  20
TORSDOF 7
ENDMDL
MODEL 6
REMARK VINA RESULT:    -7.249      3.695      7.792
REMARK INTER + INTRA:         -10.978
REMARK INTER:                 -10.058
REMARK INTRA:                  -0.920
REMARK UNBOUND:                -0.975
REMARK  Name = 
REMARK  7 active torsions:
REMARK  status: ('A' for Active; 'I' for Inactive)
REMARK    1  A    between atoms: C_2  and  O_3
REMARK    2  A    between atoms: C_2  and  C_4
REMARK    3  A    between atoms: C_5  and  C_6
REMARK    4  A    between atoms: C_11  and  C_12
REMARK    5  A    between atoms: C_16  and  O_17
REMARK    6  A    between atoms: O_17  and  C_18
REMARK    7  A    between atoms: C_18  and  C_19
REMARK                            x       y       z     vdW  Elec       q    Type
REMARK                         _______ _______ _______ _____ _____    ______ ____
ROOT
ATOM      1  C   UNL     1      45.519   6.623  11.350  0.00  0.00    +0.000 A 
ATOM      2  C   UNL     1      44.606   7.693  11.420  0.00  0.00    +0.000 A 
ATOM      3  C   UNL     1      44.988   8.951  11.883  0.00  0.00    +0.000 A 
ATOM      4  C   UNL     1      46.296   9.165  12.303  0.00  0.00    +0.000 A 
ATOM      5  C   UNL     1      47.210   8.114  12.293  0.00  0.00    +0.000 A 
ATOM      6  C   UNL     1      46.828   6.860  11.800  0.00  0.00    +0.000 A 
ENDROOT
BRANCH   1  12
ATOM      7  C   UNL     1      45.287   3.907   8.925  0.00  0.00    +0.000 A 
ATOM      8  C   UNL     1      44.489   2.949   9.514  0.00  0.00    +0.000 A 
ATOM      9  C   UNL     1      43.989   3.229  10.776  0.00  0.00    +0.000 A 
ATOM     10  F   UNL     1      43.204   2.328  11.383  0.00  0.00    +0.000 F 
ATOM     11  C   UNL     1      44.283   4.418  11.430  0.00  0.00    +0.000 A 
ATOM     12  C   UNL     1      45.097   5.328  10.779  0.00  0.00    +0.000 A 
ATOM     13  N   UNL     1      45.582   5.077   9.538  0.00  0.00    +0.000 NA
BRANCH   7  15
ATOM     14  C   UNL     1      46.736   2.716   7.337  0.00  0.00    +0.000 C 
ATOM     15  C   UNL     1      45.871   3.717   7.592  0.00  0.00    +0.000 C 
BRANCH  14  17
ATOM     16  O   UNL     1      46.655   2.452   4.969  0.00  0.00    +0.000 OA
ATOM     17  C   UNL     1      47.308   2.540   5.993  0.00  0.00    +0.000 C 
BRANCH  17  18
ATOM     18  O   UNL     1      48.657   2.489   6.026  0.00  0.00    +0.000 OA
ATOM     19  H   UNL     1      49.110   3.087   5.405  0.00  0.00    +0.000 HD
ENDBRANCH  17  18
ENDBRANCH  14  17
ENDBRANCH   7  15
ENDBRANCH   1  12
BRANCH   5  20
ATOM     20  O   UNL     1      48.505   8.204  12.726  0.00  0.00    +0.000 OA
BRANCH  20  21
ATOM     21  C   UNL     1      49.413   7.272  12.137  0.00  0.00    +0.000 C 
BRANCH  21  22
ATOM     22  C   UNL     1      50.461   8.047  11.388  0.00  0.00    +0.000 A 
ATOM     23  C   UNL     1      50.473   9.447  11.414  0.00  0.00    +0.000 A 
ATOM     24  C   UNL     1      51.431  10.154  10.687  0.00  0.00    +0.000 A 
ATOM     25  C   UNL     1      52.379   9.467   9.927  0.00  0.00    +0.000 A 
ATOM     26  C   UNL     1      52.373   8.075   9.896  0.00  0.00    +0.000 A 
ATOM     27  C   UNL     1      51.416   7.366  10.620  0.00  0.00    +0.000 A 
ENDBRANCH  21  22
ENDBRANCH  20  21
ENDBRANCH   5  20
TORSDOF 7
ENDMDL
MODEL 7
REMARK VINA RESULT:    -7.212      2.743      3.973
REMARK INTER + INTRA:         -10.928
REMARK INTER:                  -9.985
REMARK INTRA:                  -0.943
REMARK UNBOUND:                -0.975
REMARK  Name = 
REMARK  7 active torsions:
REMARK  status: ('A' for Active; 'I' for Inactive)
REMARK    1  A    between atoms: C_2  and  O_3
REMARK    2  A    between atoms: C_2  and  C_4
REMARK    3  A    between atoms: C_5  and  C_6
REMARK    4  A    between atoms: C_11  and  C_12
REMARK    5  A    between atoms: C_16  and  O_17
REMARK    6  A    between atoms: O_17  and  C_18
REMARK    7  A    between atoms: C_18  and  C_19
REMARK                            x       y       z     vdW  Elec       q    Type
REMARK                         _______ _______ _______ _____ _____    ______ ____
ROOT
ATOM      1  C   UNL     1      46.931   5.240  13.657  0.00  0.00    +0.000 A 
ATOM      2  C   UNL     1      47.421   6.394  13.015  0.00  0.00    +0.000 A 
ATOM      3  C   UNL     1      46.911   6.823  11.791  0.00  0.00    +0.000 A 
ATOM      4  C   UNL     1      45.903   6.094  11.170  0.00  0.00    +0.000 A 
ATOM      5  C   UNL     1      45.431   4.920  11.754  0.00  0.00    +0.000 A 
ATOM      6  C   UNL     1      45.928   4.510  12.998  0.00  0.00    +0.000 A 
ENDROOT
BRANCH   1  12
ATOM      7  C   UNL     1      49.003   5.397  16.656  0.00  0.00    +0.000 A 
ATOM      8  C   UNL     1      48.543   4.391  17.479  0.00  0.00    +0.000 A 
ATOM      9  C   UNL     1      47.502   3.609  17.004  0.00  0.00    +0.000 A 
ATOM     10  F   UNL     1      47.028   2.615  17.769  0.00  0.00    +0.000 F 
ATOM     11  C   UNL     1      46.933   3.831  15.757  0.00  0.00    +0.000 A 
ATOM     12  C   UNL     1      47.442   4.864  14.990  0.00  0.00    +0.000 A 
ATOM     13  N   UNL     1      48.470   5.628  15.433  0.00  0.00    +0.000 NA
BRANCH   7  15
ATOM     14  C   UNL     1      50.935   6.829  16.150  0.00  0.00    +0.000 C 
ATOM     15  C   UNL     1      50.100   6.285  17.057  0.00  0.00    +0.000 C 
BRANCH  14  17
ATOM     16  O   UNL     1      52.918   7.406  17.342  0.00  0.00    +0.000 OA
ATOM     17  C   UNL     1      52.027   7.719  16.573  0.00  0.00    +0.000 C 
BRANCH  17  18
ATOM     18  O   UNL     1      51.929   8.939  16.001  0.00  0.00    +0.000 OA
ATOM     19  H   UNL     1      51.055   9.154  15.631  0.00  0.00    +0.000 HD
ENDBRANCH  17  18
ENDBRANCH  14  17
ENDBRANCH   7  15
ENDBRANCH   1  12
BRANCH   5  20
ATOM     20  O   UNL     1      44.477   4.107  11.207  0.00  0.00    +0.000 OA
BRANCH  20  21
ATOM     21  C   UNL     1      44.155   4.376   9.842  0.00  0.00    +0.000 C 
BRANCH  21  22
ATOM     22  C   UNL     1      45.092   3.584   8.973  0.00  0.00    +0.000 A 
ATOM     23  C   UNL     1      45.848   4.212   7.976  0.00  0.00    +0.000 A 
ATOM     24  C   UNL     1      46.688   3.460   7.153  0.00  0.00    +0.000 A 
ATOM     25  C   UNL     1      46.774   2.078   7.321  0.00  0.00    +0.000 A 
ATOM     26  C   UNL     1      46.024   1.445   8.309  0.00  0.00    +0.000 A 
ATOM     27  C   UNL     1      45.183   2.194   9.131  0.00  0.00    +0.000 A 
ENDBRANCH  21  22
ENDBRANCH  20  21
ENDBRANCH   5  20
TORSDOF 7
ENDMDL
MODEL 8
REMARK VINA RESULT:    -7.054      2.555      3.006
REMARK INTER + INTRA:         -10.709
REMARK INTER:                  -9.891
REMARK INTRA:                  -0.818
REMARK UNBOUND:                -0.975
REMARK  Name = 
REMARK  7 active torsions:
REMARK  status: ('A' for Active; 'I' for Inactive)
REMARK    1  A    between atoms: C_2  and  O_3
REMARK    2  A    between atoms: C_2  and  C_4
REMARK    3  A    between atoms: C_5  and  C_6
REMARK    4  A    between atoms: C_11  and  C_12
REMARK    5  A    between atoms: C_16  and  O_17
REMARK    6  A    between atoms: O_17  and  C_18
REMARK    7  A    between atoms: C_18  and  C_19
REMARK                            x       y       z     vdW  Elec       q    Type
REMARK                         _______ _______ _______ _____ _____    ______ ____
ROOT
ATOM      1  C   UNL     1      44.606   5.747  11.977  0.00  0.00    +0.000 A 
ATOM      2  C   UNL     1      44.011   5.068  13.057  0.00  0.00    +0.000 A 
ATOM      3  C   UNL     1      43.492   3.782  12.917  0.00  0.00    +0.000 A 
ATOM      4  C   UNL     1      43.544   3.148  11.681  0.00  0.00    +0.000 A 
ATOM      5  C   UNL     1      44.081   3.812  10.580  0.00  0.00    +0.000 A 
ATOM      6  C   UNL     1      44.626   5.092  10.734  0.00  0.00    +0.000 A 
ENDROOT
BRANCH   1  12
ATOM      7  C   UNL     1      46.927   8.239  13.285  0.00  0.00    +0.000 A 
ATOM      8  C   UNL     1      46.556   9.434  12.704  0.00  0.00    +0.000 A 
ATOM      9  C   UNL     1      45.468   9.412  11.847  0.00  0.00    +0.000 A 
ATOM     10  F   UNL     1      45.069  10.553  11.266  0.00  0.00    +0.000 F 
ATOM     11  C   UNL     1      44.780   8.238  11.571  0.00  0.00    +0.000 A 
ATOM     12  C   UNL     1      45.214   7.076  12.185  0.00  0.00    +0.000 A 
ATOM     13  N   UNL     1      46.268   7.083  13.038  0.00  0.00    +0.000 NA
BRANCH   7  15
ATOM     14  C   UNL     1      48.103   8.851  15.354  0.00  0.00    +0.000 C 
ATOM     15  C   UNL     1      48.065   8.146  14.208  0.00  0.00    +0.000 C 
BRANCH  14  17
ATOM     16  O   UNL     1      49.195   8.896  17.473  0.00  0.00    +0.000 OA
ATOM     17  C   UNL     1      49.252   8.741  16.267  0.00  0.00    +0.000 C 
BRANCH  17  18
ATOM     18  O   UNL     1      50.390   8.442  15.605  0.00  0.00    +0.000 OA
ATOM     19  H   UNL     1      50.604   7.494  15.552  0.00  0.00    +0.000 HD
ENDBRANCH  17  18
ENDBRANCH  14  17
ENDBRANCH   7  15
ENDBRANCH   1  12
BRANCH   5  20
ATOM     20  O   UNL     1      44.139   3.298   9.313  0.00  0.00    +0.000 OA
BRANCH  20  21
ATOM     21  C   UNL     1      44.823   2.050   9.191  0.00  0.00    +0.000 C 
BRANCH  21  22
ATOM     22  C   UNL     1      45.825   2.171   8.077  0.00  0.00    +0.000 A 
ATOM     23  C   UNL     1      45.885   3.327   7.290  0.00  0.00    +0.000 A 
ATOM     24  C   UNL     1      46.797   3.413   6.237  0.00  0.00    +0.000 A 
ATOM     25  C   UNL     1      47.650   2.343   5.963  0.00  0.00    +0.000 A 
ATOM     26  C   UNL     1      47.594   1.188   6.740  0.00  0.00    +0.000 A 
ATOM     27  C   UNL     1      46.684   1.100   7.791  0.00  0.00    +0.000 A 
ENDBRANCH  21  22
ENDBRANCH  20  21
ENDBRANCH   5  20
TORSDOF 7
ENDMDL
MODEL 9
REMARK VINA RESULT:    -7.015      3.205      8.444
REMARK INTER + INTRA:         -10.656
REMARK INTER:                  -9.772
REMARK INTRA:                  -0.884
REMARK UNBOUND:                -0.975
REMARK  Name = 
REMARK  7 active torsions:
REMARK  status: ('A' for Active; 'I' for Inactive)
REMARK    1  A    between atoms: C_2  and  O_3
REMARK    2  A    between atoms: C_2  and  C_4
REMARK    3  A    between atoms: C_5  and  C_6
REMARK    4  A    between atoms: C_11  and  C_12
REMARK    5  A    between atoms: C_16  and  O_17
REMARK    6  A    between atoms: O_17  and  C_18
REMARK    7  A    between atoms: C_18  and  C_19
REMARK                            x       y       z     vdW  Elec       q    Type
REMARK                         _______ _______ _______ _____ _____    ______ ____
ROOT
ATOM      1  C   UNL     1      45.517   6.530  11.405  0.00  0.00    +0.000 A 
ATOM      2  C   UNL     1      44.628   7.622  11.398  0.00  0.00    +0.000 A 
ATOM      3  C   UNL     1      45.006   8.878  11.867  0.00  0.00    +0.000 A 
ATOM      4  C   UNL     1      46.287   9.069  12.374  0.00  0.00    +0.000 A 
ATOM      5  C   UNL     1      47.175   7.997  12.442  0.00  0.00    +0.000 A 
ATOM      6  C   UNL     1      46.798   6.744  11.942  0.00  0.00    +0.000 A 
ENDROOT
BRANCH   1  12
ATOM      7  C   UNL     1      45.325   3.819   8.972  0.00  0.00    +0.000 A 
ATOM      8  C   UNL     1      44.518   2.860   9.547  0.00  0.00    +0.000 A 
ATOM      9  C   UNL     1      43.996   3.138  10.800  0.00  0.00    +0.000 A 
ATOM     10  F   UNL     1      43.201   2.236  11.393  0.00  0.00    +0.000 F 
ATOM     11  C   UNL     1      44.280   4.325  11.462  0.00  0.00    +0.000 A 
ATOM     12  C   UNL     1      45.104   5.237  10.826  0.00  0.00    +0.000 A 
ATOM     13  N   UNL     1      45.610   4.987   9.593  0.00  0.00    +0.000 NA
BRANCH   7  15
ATOM     14  C   UNL     1      46.758   2.598   7.392  0.00  0.00    +0.000 C 
ATOM     15  C   UNL     1      45.931   3.630   7.649  0.00  0.00    +0.000 C 
BRANCH  14  17
ATOM     16  O   UNL     1      46.827   2.771   5.015  0.00  0.00    +0.000 OA
ATOM     17  C   UNL     1      47.353   2.425   6.058  0.00  0.00    +0.000 C 
BRANCH  17  18
ATOM     18  O   UNL     1      48.566   1.835   6.123  0.00  0.00    +0.000 OA
ATOM     19  H   UNL     1      48.868   1.605   7.020  0.00  0.00    +0.000 HD
ENDBRANCH  17  18
ENDBRANCH  14  17
ENDBRANCH   7  15
ENDBRANCH   1  12
BRANCH   5  20
ATOM     20  O   UNL     1      48.439   8.065  12.961  0.00  0.00    +0.000 OA
BRANCH  20  21
ATOM     21  C   UNL     1      48.846   6.931  13.727  0.00  0.00    +0.000 C 
BRANCH  21  22
ATOM     22  C   UNL     1      48.725   7.280  15.184  0.00  0.00    +0.000 A 
ATOM     23  C   UNL     1      48.580   8.612  15.592  0.00  0.00    +0.000 A 
ATOM     24  C   UNL     1      48.503   8.926  16.949  0.00  0.00    +0.000 A 
ATOM     25  C   UNL     1      48.575   7.912  17.906  0.00  0.00    +0.000 A 
ATOM     26  C   UNL     1      48.722   6.586  17.508  0.00  0.00    +0.000 A 
ATOM     27  C   UNL     1      48.800   6.270  16.153  0.00  0.00    +0.000 A 
ENDBRANCH  21  22
ENDBRANCH  20  21
ENDBRANCH   5  20
TORSDOF 7
ENDMDL
