MODEL 1
REMARK VINA RESULT:    -7.281      0.000      0.000
REMARK INTER + INTRA:         -11.192
REMARK INTER:                 -11.112
REMARK INTRA:                  -0.080
REMARK UNBOUND:                -0.080
REMARK  Name = 
REMARK  12 active torsions:
REMARK  status: ('A' for Active; 'I' for Inactive)
REMARK    1  A    between atoms: C_1  and  C_2
REMARK    2  A    between atoms: C_3  and  C_4
REMARK    3  A    between atoms: C_4  and  C_5
REMARK    4  A    between atoms: C_4  and  C_16
REMARK    5  A    between atoms: C_5  and  O_6
REMARK    6  A    between atoms: O_6  and  C_7
REMARK    7  A    between atoms: C_10  and  C_11
REMARK    8  A    between atoms: C_20  and  O_21
REMARK    9  A    between atoms: O_21  and  C_22
REMARK   10  A    between atoms: N_24  and  C_25
REMARK   11  A    between atoms: C_25  and  C_26
REMARK   12  A    between atoms: C_25  and  C_27
REMARK                            x       y       z     vdW  Elec       q    Type
REMARK                         _______ _______ _______ _____ _____    ______ ____
ROOT
ATOM      1  C   UNL     1      46.333   5.347  13.758  0.00  0.00    +0.000 C 
ENDROOT
BRANCH   1   2
ATOM      2  C   UNL     1      45.097   5.023  12.922  0.00  0.00    +0.000 A 
ATOM      3  C   UNL     1      43.932   5.796  13.016  0.00  0.00    +0.000 A 
ATOM      4  C   UNL     1      42.799   5.456  12.305  0.00  0.00    +0.000 A 
ATOM      5  C   UNL     1      42.853   4.358  11.462  0.00  0.00    +0.000 A 
ATOM      6  C   UNL     1      44.047   3.659  11.364  0.00  0.00    +0.000 A 
ATOM      7  N   UNL     1      45.165   3.968  12.061  0.00  0.00    +0.000 NA
BRANCH   6   8
ATOM      8  O   UNL     1      44.071   2.565  10.505  0.00  0.00    +0.000 OA
BRANCH   8   9
ATOM      9  C   UNL     1      45.129   2.579   9.514  0.00  0.00    +0.000 C 
ATOM     10  C   UNL     1      44.889   3.466   8.279  0.00  0.00    +0.000 C 
ATOM     11  N   UNL     1      45.430   2.406   7.389  0.00  0.00    +0.000 NA
ATOM     12  C   UNL     1      45.221   1.418   8.491  0.00  0.00    +0.000 C 
BRANCH  11  13
ATOM     13  C   UNL     1      46.864   2.642   7.120  0.00  0.00    +0.000 C 
ATOM     14  C   UNL     1      47.643   1.319   7.120  0.00  0.00    +0.000 C 
ATOM     15  C   UNL     1      47.047   3.289   5.735  0.00  0.00    +0.000 C 
ENDBRANCH  11  13
ENDBRANCH   8   9
ENDBRANCH   6   8
ENDBRANCH   1   2
BRANCH   1  18
ATOM     16  C   UNL     1      49.399   7.660  11.816  0.00  0.00    +0.000 C 
ATOM     17  C   UNL     1      48.263   6.901  12.481  0.00  0.00    +0.000 C 
ATOM     18  C   UNL     1      47.288   6.250  13.051  0.00  0.00    +0.000 C 
ENDBRANCH   1  18
BRANCH   1  19
ATOM     19  C   UNL     1      47.077   4.069  14.252  0.00  0.00    +0.000 C 
BRANCH  19  20
ATOM     20  O   UNL     1      46.894   3.893  15.670  0.00  0.00    +0.000 OA
BRANCH  20  21
ATOM     21  C   UNL     1      48.071   3.830  16.384  0.00  0.00    +0.000 A 
ATOM     22  C   UNL     1      48.526   2.562  16.702  0.00  0.00    +0.000 A 
ATOM     23  C   UNL     1      49.768   2.448  17.326  0.00  0.00    +0.000 A 
ATOM     24  C   UNL     1      50.510   3.602  17.617  0.00  0.00    +0.000 A 
ATOM     25  C   UNL     1      49.954   4.815  17.260  0.00  0.00    +0.000 A 
ATOM     26  N   UNL     1      48.744   4.964  16.664  0.00  0.00    +0.000 NA
BRANCH  24  27
ATOM     27  C   UNL     1      51.843   3.449  18.274  0.00  0.00    +0.000 C 
ATOM     28  N   UNL     1      52.353   2.206  18.453  0.00  0.00    +0.000 N 
ATOM     29  O   UNL     1      52.463   4.433  18.634  0.00  0.00    +0.000 OA
ATOM     30  H   UNL     1      51.928   1.329  18.178  0.00  0.00    +0.000 HD
ATOM     31  H   UNL     1      53.259   2.159  18.892  0.00  0.00    +0.000 HD
ENDBRANCH  24  27
ENDBRANCH  20  21
ENDBRANCH  19  20
ENDBRANCH   1  19
TORSDOF 9
ENDMDL
MODEL 2
REMARK VINA RESULT:    -7.205      2.348      8.987
REMARK INTER + INTRA:         -11.076
REMARK INTER:                 -11.029
REMARK INTRA:                  -0.047
REMARK UNBOUND:                -0.080
REMARK  Name = 
REMARK  12 active torsions:
REMARK  status: ('A' for Active; 'I' for Inactive)
REMARK    1  A    between atoms: C_1  and  C_2
REMARK    2  A    between atoms: C_3  and  C_4
REMARK    3  A    between atoms: C_4  and  C_5
REMARK    4  A    between atoms: C_4  and  C_16
REMARK    5  A    between atoms: C_5  and  O_6
REMARK    6  A    between atoms: O_6  and  C_7
REMARK    7  A    between atoms: C_10  and  C_11
REMARK    8  A    between atoms: C_20  and  O_21
REMARK    9  A    between atoms: O_21  and  C_22
REMARK   10  A    between atoms: N_24  and  C_25
REMARK   11  A    between atoms: C_25  and  C_26
REMARK   12  A    between atoms: C_25  and  C_27
REMARK                            x       y       z     vdW  Elec       q    Type
REMARK                         _______ _______ _______ _____ _____    ______ ____
ROOT
ATOM      1  C   UNL     1      45.563   6.288  11.306  0.00  0.00    +0.000 C 
ENDROOT
BRANCH   1   2
ATOM      2  C   UNL     1      46.612   6.418  12.407  0.00  0.00    +0.000 A 
ATOM      3  C   UNL     1      47.496   7.503  12.446  0.00  0.00    +0.000 A 
ATOM      4  C   UNL     1      48.483   7.578  13.408  0.00  0.00    +0.000 A 
ATOM      5  C   UNL     1      48.552   6.575  14.361  0.00  0.00    +0.000 A 
ATOM      6  C   UNL     1      47.620   5.551  14.311  0.00  0.00    +0.000 A 
ATOM      7  N   UNL     1      46.652   5.453  13.370  0.00  0.00    +0.000 NA
BRANCH   6   8
ATOM      8  O   UNL     1      47.712   4.561  15.285  0.00  0.00    +0.000 OA
BRANCH   8   9
ATOM      9  C   UNL     1      48.056   5.030  16.613  0.00  0.00    +0.000 C 
ATOM     10  C   UNL     1      49.207   4.289  17.317  0.00  0.00    +0.000 C 
ATOM     11  N   UNL     1      48.450   4.289  18.596  0.00  0.00    +0.000 NA
ATOM     12  C   UNL     1      47.202   4.567  17.821  0.00  0.00    +0.000 C 
BRANCH  11  13
ATOM     13  C   UNL     1      48.852   5.441  19.431  0.00  0.00    +0.000 C 
ATOM     14  C   UNL     1      47.694   5.891  20.333  0.00  0.00    +0.000 C 
ATOM     15  C   UNL     1      50.028   5.052  20.345  0.00  0.00    +0.000 C 
ENDBRANCH  11  13
ENDBRANCH   8   9
ENDBRANCH   6   8
ENDBRANCH   1   2
BRANCH   1  18
ATOM     16  C   UNL     1      43.358   9.963  10.906  0.00  0.00    +0.000 C 
ATOM     17  C   UNL     1      44.067   8.629  11.070  0.00  0.00    +0.000 C 
ATOM     18  C   UNL     1      44.676   7.484  11.210  0.00  0.00    +0.000 C 
ENDBRANCH   1  18
BRANCH   1  19
ATOM     19  C   UNL     1      44.700   4.998  11.445  0.00  0.00    +0.000 C 
BRANCH  19  20
ATOM     20  O   UNL     1      44.040   4.693  10.201  0.00  0.00    +0.000 OA
BRANCH  20  21
ATOM     21  C   UNL     1      44.792   3.924   9.340  0.00  0.00    +0.000 A 
ATOM     22  C   UNL     1      45.592   4.613   8.445  0.00  0.00    +0.000 A 
ATOM     23  C   UNL     1      46.451   3.876   7.631  0.00  0.00    +0.000 A 
ATOM     24  C   UNL     1      46.479   2.477   7.734  0.00  0.00    +0.000 A 
ATOM     25  C   UNL     1      45.633   1.896   8.658  0.00  0.00    +0.000 A 
ATOM     26  N   UNL     1      44.775   2.581   9.455  0.00  0.00    +0.000 NA
BRANCH  24  27
ATOM     27  C   UNL     1      47.420   1.714   6.859  0.00  0.00    +0.000 C 
ATOM     28  N   UNL     1      48.431   2.374   6.242  0.00  0.00    +0.000 N 
ATOM     29  O   UNL     1      47.281   0.514   6.713  0.00  0.00    +0.000 OA
ATOM     30  H   UNL     1      48.644   3.361   6.309  0.00  0.00    +0.000 HD
ATOM     31  H   UNL     1      49.043   1.810   5.672  0.00  0.00    +0.000 HD
ENDBRANCH  24  27
ENDBRANCH  20  21
ENDBRANCH  19  20
ENDBRANCH   1  19
TORSDOF 9
ENDMDL
MODEL 3
REMARK VINA RESULT:    -6.871      4.353      8.913
REMARK INTER + INTRA:         -10.566
REMARK INTER:                 -10.393
REMARK INTRA:                  -0.173
REMARK UNBOUND:                -0.080
REMARK  Name = 
REMARK  12 active torsions:
REMARK  status: ('A' for Active; 'I' for Inactive)
REMARK    1  A    between atoms: C_1  and  C_2
REMARK    2  A    between atoms: C_3  and  C_4
REMARK    3  A    between atoms: C_4  and  C_5
REMARK    4  A    between atoms: C_4  and  C_16
REMARK    5  A    between atoms: C_5  and  O_6
REMARK    6  A    between atoms: O_6  and  C_7
REMARK    7  A    between atoms: C_10  and  C_11
REMARK    8  A    between atoms: C_20  and  O_21
REMARK    9  A    between atoms: O_21  and  C_22
REMARK   10  A    between atoms: N_24  and  C_25
REMARK   11  A    between atoms: C_25  and  C_26
REMARK   12  A    between atoms: C_25  and  C_27
REMARK                            x       y       z     vdW  Elec       q    Type
REMARK                         _______ _______ _______ _____ _____    ______ ____
ROOT
ATOM      1  C   UNL     1      44.602   6.365  12.120  0.00  0.00    +0.000 C 
ENDROOT
BRANCH   1   2
ATOM      2  C   UNL     1      45.117   7.794  11.960  0.00  0.00    +0.000 A 
ATOM      3  C   UNL     1      46.443   8.127  12.263  0.00  0.00    +0.000 A 
ATOM      4  C   UNL     1      46.881   9.433  12.178  0.00  0.00    +0.000 A 
ATOM      5  C   UNL     1      45.990  10.401  11.743  0.00  0.00    +0.000 A 
ATOM      6  C   UNL     1      44.704  10.010  11.403  0.00  0.00    +0.000 A 
ATOM      7  N   UNL     1      44.251   8.737  11.491  0.00  0.00    +0.000 NA
BRANCH   6   8
ATOM      8  O   UNL     1      43.834  11.004  10.965  0.00  0.00    +0.000 OA
BRANCH   8   9
ATOM      9  C   UNL     1      42.433  10.775  11.261  0.00  0.00    +0.000 C 
ATOM     10  C   UNL     1      41.475  10.789  10.056  0.00  0.00    +0.000 C 
ATOM     11  N   UNL     1      40.483  11.578  10.831  0.00  0.00    +0.000 NA
ATOM     12  C   UNL     1      41.571  11.951  11.785  0.00  0.00    +0.000 C 
BRANCH  11  13
ATOM     13  C   UNL     1      39.484  10.682  11.451  0.00  0.00    +0.000 C 
ATOM     14  C   UNL     1      38.797  11.370  12.640  0.00  0.00    +0.000 C 
ATOM     15  C   UNL     1      38.391  10.315  10.431  0.00  0.00    +0.000 C 
ENDBRANCH  11  13
ENDBRANCH   8   9
ENDBRANCH   6   8
ENDBRANCH   1   2
BRANCH   1  18
ATOM     16  C   UNL     1      47.135   3.502  14.096  0.00  0.00    +0.000 C 
ATOM     17  C   UNL     1      46.281   4.572  13.437  0.00  0.00    +0.000 C 
ATOM     18  C   UNL     1      45.549   5.491  12.871  0.00  0.00    +0.000 C 
ENDBRANCH   1  18
BRANCH   1  19
ATOM     19  C   UNL     1      44.233   5.702  10.758  0.00  0.00    +0.000 C 
BRANCH  19  20
ATOM     20  O   UNL     1      44.460   4.281  10.809  0.00  0.00    +0.000 OA
BRANCH  20  21
ATOM     21  C   UNL     1      45.051   3.765   9.676  0.00  0.00    +0.000 A 
ATOM     22  C   UNL     1      45.595   4.685   8.798  0.00  0.00    +0.000 A 
ATOM     23  C   UNL     1      46.300   4.203   7.696  0.00  0.00    +0.000 A 
ATOM     24  C   UNL     1      46.433   2.819   7.505  0.00  0.00    +0.000 A 
ATOM     25  C   UNL     1      45.843   1.994   8.443  0.00  0.00    +0.000 A 
ATOM     26  N   UNL     1      45.139   2.429   9.519  0.00  0.00    +0.000 NA
BRANCH  24  27
ATOM     27  C   UNL     1      47.205   2.330   6.323  0.00  0.00    +0.000 C 
ATOM     28  N   UNL     1      48.489   1.929   6.492  0.00  0.00    +0.000 N 
ATOM     29  O   UNL     1      46.679   2.285   5.226  0.00  0.00    +0.000 OA
ATOM     30  H   UNL     1      49.012   1.912   7.358  0.00  0.00    +0.000 HD
ATOM     31  H   UNL     1      48.961   1.599   5.664  0.00  0.00    +0.000 HD
ENDBRANCH  24  27
ENDBRANCH  20  21
ENDBRANCH  19  20
ENDBRANCH   1  19
TORSDOF 9
ENDMDL
MODEL 4
REMARK VINA RESULT:    -6.803      2.631      8.053
REMARK INTER + INTRA:         -10.463
REMARK INTER:                  -9.923
REMARK INTRA:                  -0.540
REMARK UNBOUND:                -0.080
REMARK  Name = 
REMARK  12 active torsions:
REMARK  status: ('A' for Active; 'I' for Inactive)
REMARK    1  A    between atoms: C_1  and  C_2
REMARK    2  A    between atoms: C_3  and  C_4
REMARK    3  A    between atoms: C_4  and  C_5
REMARK    4  A    between atoms: C_4  and  C_16
REMARK    5  A    between atoms: C_5  and  O_6
REMARK    6  A    between atoms: O_6  and  C_7
REMARK    7  A    between atoms: C_10  and  C_11
REMARK    8  A    between atoms: C_20  and  O_21
REMARK    9  A    between atoms: O_21  and  C_22
REMARK   10  A    between atoms: N_24  and  C_25
REMARK   11  A    between atoms: C_25  and  C_26
REMARK   12  A    between atoms: C_25  and  C_27
REMARK                            x       y       z     vdW  Elec       q    Type
REMARK                         _______ _______ _______ _____ _____    ______ ____
ROOT
ATOM      1  C   UNL     1      47.774   3.611  16.778  0.00  0.00    +0.000 C 
ENDROOT
BRANCH   1   2
ATOM      2  C   UNL     1      47.925   4.994  17.406  0.00  0.00    +0.000 A 
ATOM      3  C   UNL     1      47.237   5.341  18.576  0.00  0.00    +0.000 A 
ATOM      4  C   UNL     1      47.329   6.614  19.100  0.00  0.00    +0.000 A 
ATOM      5  C   UNL     1      48.153   7.530  18.466  0.00  0.00    +0.000 A 
ATOM      6  C   UNL     1      48.854   7.121  17.342  0.00  0.00    +0.000 A 
ATOM      7  N   UNL     1      48.769   5.881  16.806  0.00  0.00    +0.000 NA
BRANCH   6   8
ATOM      8  O   UNL     1      49.677   8.062  16.731  0.00  0.00    +0.000 OA
BRANCH   8   9
ATOM      9  C   UNL     1      49.885   7.872  15.309  0.00  0.00    +0.000 C 
ATOM     10  C   UNL     1      50.878   8.836  14.634  0.00  0.00    +0.000 C 
ATOM     11  N   UNL     1      49.968   8.986  13.469  0.00  0.00    +0.000 NA
ATOM     12  C   UNL     1      48.853   8.455  14.310  0.00  0.00    +0.000 C 
BRANCH  11  13
ATOM     13  C   UNL     1      50.350   8.046  12.393  0.00  0.00    +0.000 C 
ATOM     14  C   UNL     1      49.172   7.803  11.439  0.00  0.00    +0.000 C 
ATOM     15  C   UNL     1      51.509   8.627  11.564  0.00  0.00    +0.000 C 
ENDBRANCH  11  13
ENDBRANCH   8   9
ENDBRANCH   6   8
ENDBRANCH   1   2
BRANCH   1  18
ATOM     16  C   UNL     1      51.448   1.424  17.270  0.00  0.00    +0.000 C 
ATOM     17  C   UNL     1      50.111   2.132  17.128  0.00  0.00    +0.000 C 
ATOM     18  C   UNL     1      48.964   2.740  17.005  0.00  0.00    +0.000 C 
ENDBRANCH   1  18
BRANCH   1  19
ATOM     19  C   UNL     1      47.447   3.674  15.255  0.00  0.00    +0.000 C 
BRANCH  19  20
ATOM     20  O   UNL     1      46.206   4.371  15.032  0.00  0.00    +0.000 OA
BRANCH  20  21
ATOM     21  C   UNL     1      45.863   4.497  13.703  0.00  0.00    +0.000 A 
ATOM     22  C   UNL     1      46.351   5.614  13.049  0.00  0.00    +0.000 A 
ATOM     23  C   UNL     1      46.122   5.724  11.678  0.00  0.00    +0.000 A 
ATOM     24  C   UNL     1      45.408   4.719  11.008  0.00  0.00    +0.000 A 
ATOM     25  C   UNL     1      44.963   3.652  11.764  0.00  0.00    +0.000 A 
ATOM     26  N   UNL     1      45.156   3.519  13.101  0.00  0.00    +0.000 NA
BRANCH  24  27
ATOM     27  C   UNL     1      45.188   4.856   9.537  0.00  0.00    +0.000 C 
ATOM     28  N   UNL     1      44.009   4.453   9.004  0.00  0.00    +0.000 N 
ATOM     29  O   UNL     1      46.058   5.334   8.831  0.00  0.00    +0.000 OA
ATOM     30  H   UNL     1      43.219   4.060   9.501  0.00  0.00    +0.000 HD
ATOM     31  H   UNL     1      43.908   4.576   8.008  0.00  0.00    +0.000 HD
ENDBRANCH  24  27
ENDBRANCH  20  21
ENDBRANCH  19  20
ENDBRANCH   1  19
TORSDOF 9
ENDMDL
MODEL 5
REMARK VINA RESULT:    -6.774      3.630      8.100
REMARK INTER + INTRA:         -10.419
REMARK INTER:                 -10.266
REMARK INTRA:                  -0.153
REMARK UNBOUND:                -0.080
REMARK  Name = 
REMARK  12 active torsions:
REMARK  status: ('A' for Active; 'I' for Inactive)
REMARK    1  A    between atoms: C_1  and  C_2
REMARK    2  A    between atoms: C_3  and  C_4
REMARK    3  A    between atoms: C_4  and  C_5
REMARK    4  A    between atoms: C_4  and  C_16
REMARK    5  A    between atoms: C_5  and  O_6
REMARK    6  A    between atoms: O_6  and  C_7
REMARK    7  A    between atoms: C_10  and  C_11
REMARK    8  A    between atoms: C_20  and  O_21
REMARK    9  A    between atoms: O_21  and  C_22
REMARK   10  A    between atoms: N_24  and  C_25
REMARK   11  A    between atoms: C_25  and  C_26
REMARK   12  A    between atoms: C_25  and  C_27
REMARK                            x       y       z     vdW  Elec       q    Type
REMARK                         _______ _______ _______ _____ _____    ______ ____
ROOT
ATOM      1  C   UNL     1      43.972   5.624  12.011  0.00  0.00    +0.000 C 
ENDROOT
BRANCH   1   2
ATOM      2  C   UNL     1      44.445   7.075  11.945  0.00  0.00    +0.000 A 
ATOM      3  C   UNL     1      43.812   8.010  11.117  0.00  0.00    +0.000 A 
ATOM      4  C   UNL     1      44.288   9.302  11.016  0.00  0.00    +0.000 A 
ATOM      5  C   UNL     1      45.382   9.664  11.786  0.00  0.00    +0.000 A 
ATOM      6  C   UNL     1      45.938   8.716  12.631  0.00  0.00    +0.000 A 
ATOM      7  N   UNL     1      45.494   7.441  12.736  0.00  0.00    +0.000 NA
BRANCH   6   8
ATOM      8  O   UNL     1      47.031   9.112  13.395  0.00  0.00    +0.000 OA
BRANCH   8   9
ATOM      9  C   UNL     1      48.294   9.172  12.684  0.00  0.00    +0.000 C 
ATOM     10  C   UNL     1      48.778   7.856  12.050  0.00  0.00    +0.000 C 
ATOM     11  N   UNL     1      50.165   8.122  12.512  0.00  0.00    +0.000 NA
ATOM     12  C   UNL     1      49.617   9.110  13.489  0.00  0.00    +0.000 C 
BRANCH  11  13
ATOM     13  C   UNL     1      50.948   8.775  11.441  0.00  0.00    +0.000 C 
ATOM     14  C   UNL     1      51.991   9.732  12.036  0.00  0.00    +0.000 C 
ATOM     15  C   UNL     1      51.703   7.720  10.613  0.00  0.00    +0.000 C 
ENDBRANCH  11  13
ENDBRANCH   8   9
ENDBRANCH   6   8
ENDBRANCH   1   2
BRANCH   1  18
ATOM     16  C   UNL     1      47.069   3.333  13.929  0.00  0.00    +0.000 C 
ATOM     17  C   UNL     1      45.952   4.074  13.214  0.00  0.00    +0.000 C 
ATOM     18  C   UNL     1      44.993   4.710  12.600  0.00  0.00    +0.000 C 
ENDBRANCH   1  18
BRANCH   1  19
ATOM     19  C   UNL     1      43.508   5.080  10.626  0.00  0.00    +0.000 C 
BRANCH  19  20
ATOM     20  O   UNL     1      43.743   3.661  10.535  0.00  0.00    +0.000 OA
BRANCH  20  21
ATOM     21  C   UNL     1      44.594   3.298   9.514  0.00  0.00    +0.000 A 
ATOM     22  C   UNL     1      45.158   4.333   8.789  0.00  0.00    +0.000 A 
ATOM     23  C   UNL     1      46.109   4.015   7.821  0.00  0.00    +0.000 A 
ATOM     24  C   UNL     1      46.461   2.674   7.604  0.00  0.00    +0.000 A 
ATOM     25  C   UNL     1      45.828   1.723   8.382  0.00  0.00    +0.000 A 
ATOM     26  N   UNL     1      44.890   1.996   9.323  0.00  0.00    +0.000 NA
BRANCH  24  27
ATOM     27  C   UNL     1      47.493   2.363   6.569  0.00  0.00    +0.000 C 
ATOM     28  N   UNL     1      47.376   2.910   5.334  0.00  0.00    +0.000 N 
ATOM     29  O   UNL     1      48.430   1.635   6.841  0.00  0.00    +0.000 OA
ATOM     30  H   UNL     1      46.649   3.536   5.013  0.00  0.00    +0.000 HD
ATOM     31  H   UNL     1      48.104   2.675   4.677  0.00  0.00    +0.000 HD
ENDBRANCH  24  27
ENDBRANCH  20  21
ENDBRANCH  19  20
ENDBRANCH   1  19
TORSDOF 9
ENDMDL
MODEL 6
REMARK VINA RESULT:    -6.755      3.115      8.626
REMARK INTER + INTRA:         -10.390
REMARK INTER:                 -10.168
REMARK INTRA:                  -0.223
REMARK UNBOUND:                -0.080
REMARK  Name = 
REMARK  12 active torsions:
REMARK  status: ('A' for Active; 'I' for Inactive)
REMARK    1  A    between atoms: C_1  and  C_2
REMARK    2  A    between atoms: C_3  and  C_4
REMARK    3  A    between atoms: C_4  and  C_5
REMARK    4  A    between atoms: C_4  and  C_16
REMARK    5  A    between atoms: C_5  and  O_6
REMARK    6  A    between atoms: O_6  and  C_7
REMARK    7  A    between atoms: C_10  and  C_11
REMARK    8  A    between atoms: C_20  and  O_21
REMARK    9  A    between atoms: O_21  and  C_22
REMARK   10  A    between atoms: N_24  and  C_25
REMARK   11  A    between atoms: C_25  and  C_26
REMARK   12  A    between atoms: C_25  and  C_27
REMARK                            x       y       z     vdW  Elec       q    Type
REMARK                         _______ _______ _______ _____ _____    ______ ____
ROOT
ATOM      1  C   UNL     1      44.285   5.833  11.924  0.00  0.00    +0.000 C 
ENDROOT
BRANCH   1   2
ATOM      2  C   UNL     1      44.714   7.298  11.876  0.00  0.00    +0.000 A 
ATOM      3  C   UNL     1      43.956   8.256  11.193  0.00  0.00    +0.000 A 
ATOM      4  C   UNL     1      44.387   9.565  11.101  0.00  0.00    +0.000 A 
ATOM      5  C   UNL     1      45.566   9.917  11.738  0.00  0.00    +0.000 A 
ATOM      6  C   UNL     1      46.250   8.943  12.447  0.00  0.00    +0.000 A 
ATOM      7  N   UNL     1      45.852   7.652  12.539  0.00  0.00    +0.000 NA
BRANCH   6   8
ATOM      8  O   UNL     1      47.428   9.329  13.080  0.00  0.00    +0.000 OA
BRANCH   8   9
ATOM      9  C   UNL     1      47.738   8.613  14.302  0.00  0.00    +0.000 C 
ATOM     10  C   UNL     1      48.690   9.323  15.281  0.00  0.00    +0.000 C 
ATOM     11  N   UNL     1      49.416   8.050  15.528  0.00  0.00    +0.000 NA
ATOM     12  C   UNL     1      48.819   7.503  14.272  0.00  0.00    +0.000 C 
BRANCH  11  13
ATOM     13  C   UNL     1      48.884   7.380  16.734  0.00  0.00    +0.000 C 
ATOM     14  C   UNL     1      49.035   5.856  16.622  0.00  0.00    +0.000 C 
ATOM     15  C   UNL     1      49.660   7.834  17.983  0.00  0.00    +0.000 C 
ENDBRANCH  11  13
ENDBRANCH   8   9
ENDBRANCH   6   8
ENDBRANCH   1   2
BRANCH   1  18
ATOM     16  C   UNL     1      47.135   3.516  14.166  0.00  0.00    +0.000 C 
ATOM     17  C   UNL     1      46.148   4.290  13.309  0.00  0.00    +0.000 C 
ATOM     18  C   UNL     1      45.301   4.954  12.573  0.00  0.00    +0.000 C 
ENDBRANCH   1  18
BRANCH   1  19
ATOM     19  C   UNL     1      43.915   5.269  10.519  0.00  0.00    +0.000 C 
BRANCH  19  20
ATOM     20  O   UNL     1      44.081   3.838  10.488  0.00  0.00    +0.000 OA
BRANCH  20  21
ATOM     21  C   UNL     1      44.834   3.382   9.428  0.00  0.00    +0.000 A 
ATOM     22  C   UNL     1      45.357   4.350   8.588  0.00  0.00    +0.000 A 
ATOM     23  C   UNL     1      46.216   3.941   7.569  0.00  0.00    +0.000 A 
ATOM     24  C   UNL     1      46.519   2.579   7.419  0.00  0.00    +0.000 A 
ATOM     25  C   UNL     1      45.935   1.701   8.311  0.00  0.00    +0.000 A 
ATOM     26  N   UNL     1      45.085   2.063   9.305  0.00  0.00    +0.000 NA
BRANCH  24  27
ATOM     27  C   UNL     1      47.453   2.170   6.326  0.00  0.00    +0.000 C 
ATOM     28  N   UNL     1      48.743   2.583   6.371  0.00  0.00    +0.000 N 
ATOM     29  O   UNL     1      47.056   1.466   5.416  0.00  0.00    +0.000 OA
ATOM     30  H   UNL     1      49.175   3.153   7.087  0.00  0.00    +0.000 HD
ATOM     31  H   UNL     1      49.333   2.271   5.615  0.00  0.00    +0.000 HD
ENDBRANCH  24  27
ENDBRANCH  20  21
ENDBRANCH  19  20
ENDBRANCH   1  19
TORSDOF 9
ENDMDL
MODEL 7
REMARK VINA RESULT:    -6.675      1.982      2.346
REMARK INTER + INTRA:         -10.267
REMARK INTER:                 -10.608
REMARK INTRA:                   0.341
REMARK UNBOUND:                -0.080
REMARK  Name = 
REMARK  12 active torsions:
REMARK  status: ('A' for Active; 'I' for Inactive)
REMARK    1  A    between atoms: C_1  and  C_2
REMARK    2  A    between atoms: C_3  and  C_4
REMARK    3  A    between atoms: C_4  and  C_5
REMARK    4  A    between atoms: C_4  and  C_16
REMARK    5  A    between atoms: C_5  and  O_6
REMARK    6  A    between atoms: O_6  and  C_7
REMARK    7  A    between atoms: C_10  and  C_11
REMARK    8  A    between atoms: C_20  and  O_21
REMARK    9  A    between atoms: O_21  and  C_22
REMARK   10  A    between atoms: N_24  and  C_25
REMARK   11  A    between atoms: C_25  and  C_26
REMARK   12  A    between atoms: C_25  and  C_27
REMARK                            x       y       z     vdW  Elec       q    Type
REMARK                         _______ _______ _______ _____ _____    ______ ____
ROOT
ATOM      1  C   UNL     1      45.763   5.516  13.276  0.00  0.00    +0.000 C 
ENDROOT
BRANCH   1   2
ATOM      2  C   UNL     1      44.939   4.690  12.292  0.00  0.00    +0.000 A 
ATOM      3  C   UNL     1      44.096   3.662  12.732  0.00  0.00    +0.000 A 
ATOM      4  C   UNL     1      43.405   2.878  11.829  0.00  0.00    +0.000 A 
ATOM      5  C   UNL     1      43.532   3.160  10.479  0.00  0.00    +0.000 A 
ATOM      6  C   UNL     1      44.337   4.223  10.099  0.00  0.00    +0.000 A 
ATOM      7  N   UNL     1      45.031   4.995  10.966  0.00  0.00    +0.000 NA
BRANCH   6   8
ATOM      8  O   UNL     1      44.440   4.483   8.736  0.00  0.00    +0.000 OA
BRANCH   8   9
ATOM      9  C   UNL     1      45.056   3.433   7.949  0.00  0.00    +0.000 C 
ATOM     10  C   UNL     1      45.888   2.400   8.731  0.00  0.00    +0.000 C 
ATOM     11  N   UNL     1      46.944   2.432   7.686  0.00  0.00    +0.000 NA
ATOM     12  C   UNL     1      46.381   3.728   7.201  0.00  0.00    +0.000 C 
BRANCH  11  13
ATOM     13  C   UNL     1      46.738   1.338   6.713  0.00  0.00    +0.000 C 
ATOM     14  C   UNL     1      47.702   1.476   5.526  0.00  0.00    +0.000 C 
ATOM     15  C   UNL     1      47.009  -0.024   7.376  0.00  0.00    +0.000 C 
ENDBRANCH  11  13
ENDBRANCH   8   9
ENDBRANCH   6   8
ENDBRANCH   1   2
BRANCH   1  18
ATOM     16  C   UNL     1      46.661   9.571  12.149  0.00  0.00    +0.000 C 
ATOM     17  C   UNL     1      46.364   8.116  12.471  0.00  0.00    +0.000 C 
ATOM     18  C   UNL     1      46.109   6.868  12.748  0.00  0.00    +0.000 C 
ENDBRANCH   1  18
BRANCH   1  19
ATOM     19  C   UNL     1      47.057   4.782  13.743  0.00  0.00    +0.000 C 
BRANCH  19  20
ATOM     20  O   UNL     1      46.752   3.822  14.772  0.00  0.00    +0.000 OA
BRANCH  20  21
ATOM     21  C   UNL     1      47.416   4.040  15.959  0.00  0.00    +0.000 A 
ATOM     22  C   UNL     1      48.075   5.251  16.078  0.00  0.00    +0.000 A 
ATOM     23  C   UNL     1      48.666   5.560  17.302  0.00  0.00    +0.000 A 
ATOM     24  C   UNL     1      48.585   4.648  18.365  0.00  0.00    +0.000 A 
ATOM     25  C   UNL     1      47.907   3.467  18.131  0.00  0.00    +0.000 A 
ATOM     26  N   UNL     1      47.332   3.128  16.949  0.00  0.00    +0.000 NA
BRANCH  24  27
ATOM     27  C   UNL     1      49.215   5.010  19.670  0.00  0.00    +0.000 C 
ATOM     28  N   UNL     1      49.181   4.119  20.691  0.00  0.00    +0.000 N 
ATOM     29  O   UNL     1      49.761   6.090  19.805  0.00  0.00    +0.000 OA
ATOM     30  H   UNL     1      48.770   3.195  20.678  0.00  0.00    +0.000 HD
ATOM     31  H   UNL     1      49.629   4.410  21.546  0.00  0.00    +0.000 HD
ENDBRANCH  24  27
ENDBRANCH  20  21
ENDBRANCH  19  20
ENDBRANCH   1  19
TORSDOF 9
ENDMDL
MODEL 8
REMARK VINA RESULT:    -6.531      2.239      3.030
REMARK INTER + INTRA:         -10.048
REMARK INTER:                  -9.814
REMARK INTRA:                  -0.234
REMARK UNBOUND:                -0.080
REMARK  Name = 
REMARK  12 active torsions:
REMARK  status: ('A' for Active; 'I' for Inactive)
REMARK    1  A    between atoms: C_1  and  C_2
REMARK    2  A    between atoms: C_3  and  C_4
REMARK    3  A    between atoms: C_4  and  C_5
REMARK    4  A    between atoms: C_4  and  C_16
REMARK    5  A    between atoms: C_5  and  O_6
REMARK    6  A    between atoms: O_6  and  C_7
REMARK    7  A    between atoms: C_10  and  C_11
REMARK    8  A    between atoms: C_20  and  O_21
REMARK    9  A    between atoms: O_21  and  C_22
REMARK   10  A    between atoms: N_24  and  C_25
REMARK   11  A    between atoms: C_25  and  C_26
REMARK   12  A    between atoms: C_25  and  C_27
REMARK                            x       y       z     vdW  Elec       q    Type
REMARK                         _______ _______ _______ _____ _____    ______ ____
ROOT
ATOM      1  C   UNL     1      47.285   8.196  12.816  0.00  0.00    +0.000 C 
ENDROOT
BRANCH   1   2
ATOM      2  C   UNL     1      45.992   7.690  12.180  0.00  0.00    +0.000 A 
ATOM      3  C   UNL     1      45.004   8.578  11.738  0.00  0.00    +0.000 A 
ATOM      4  C   UNL     1      43.811   8.109  11.224  0.00  0.00    +0.000 A 
ATOM      5  C   UNL     1      43.632   6.740  11.117  0.00  0.00    +0.000 A 
ATOM      6  C   UNL     1      44.663   5.905  11.519  0.00  0.00    +0.000 A 
ATOM      7  N   UNL     1      45.835   6.344  12.036  0.00  0.00    +0.000 NA
BRANCH   6   8
ATOM      8  O   UNL     1      44.454   4.535  11.394  0.00  0.00    +0.000 OA
BRANCH   8   9
ATOM      9  C   UNL     1      45.211   3.888  10.339  0.00  0.00    +0.000 C 
ATOM     10  C   UNL     1      44.965   4.408   8.911  0.00  0.00    +0.000 C 
ATOM     11  N   UNL     1      44.947   3.017   8.388  0.00  0.00    +0.000 NA
ATOM     12  C   UNL     1      44.716   2.529   9.781  0.00  0.00    +0.000 C 
BRANCH  11  13
ATOM     13  C   UNL     1      46.285   2.641   7.882  0.00  0.00    +0.000 C 
ATOM     14  C   UNL     1      46.453   1.115   7.869  0.00  0.00    +0.000 C 
ATOM     15  C   UNL     1      46.469   3.142   6.438  0.00  0.00    +0.000 C 
ENDBRANCH  11  13
ENDBRANCH   8   9
ENDBRANCH   6   8
ENDBRANCH   1   2
BRANCH   1  18
ATOM     16  C   UNL     1      49.166  11.299  10.503  0.00  0.00    +0.000 C 
ATOM     17  C   UNL     1      48.463  10.262  11.362  0.00  0.00    +0.000 C 
ATOM     18  C   UNL     1      47.860   9.371  12.099  0.00  0.00    +0.000 C 
ENDBRANCH   1  18
BRANCH   1  19
ATOM     19  C   UNL     1      48.364   7.079  12.956  0.00  0.00    +0.000 C 
BRANCH  19  20
ATOM     20  O   UNL     1      49.010   7.157  14.241  0.00  0.00    +0.000 OA
BRANCH  20  21
ATOM     21  C   UNL     1      48.693   6.121  15.093  0.00  0.00    +0.000 A 
ATOM     22  C   UNL     1      49.342   6.114  16.315  0.00  0.00    +0.000 A 
ATOM     23  C   UNL     1      48.970   5.149  17.250  0.00  0.00    +0.000 A 
ATOM     24  C   UNL     1      47.968   4.220  16.931  0.00  0.00    +0.000 A 
ATOM     25  C   UNL     1      47.394   4.318  15.678  0.00  0.00    +0.000 A 
ATOM     26  N   UNL     1      47.740   5.235  14.740  0.00  0.00    +0.000 NA
BRANCH  24  27
ATOM     27  C   UNL     1      47.581   3.205  17.957  0.00  0.00    +0.000 C 
ATOM     28  N   UNL     1      48.264   3.153  19.126  0.00  0.00    +0.000 N 
ATOM     29  O   UNL     1      46.655   2.443  17.743  0.00  0.00    +0.000 OA
ATOM     30  H   UNL     1      49.033   3.747  19.408  0.00  0.00    +0.000 HD
ATOM     31  H   UNL     1      47.956   2.457  19.787  0.00  0.00    +0.000 HD
ENDBRANCH  24  27
ENDBRANCH  20  21
ENDBRANCH  19  20
ENDBRANCH   1  19
TORSDOF 9
ENDMDL
MODEL 9
REMARK VINA RESULT:    -6.528      3.729      6.813
REMARK INTER + INTRA:         -10.043
REMARK INTER:                  -9.986
REMARK INTRA:                  -0.056
REMARK UNBOUND:                -0.080
REMARK  Name = 
REMARK  12 active torsions:
REMARK  status: ('A' for Active; 'I' for Inactive)
REMARK    1  A    between atoms: C_1  and  C_2
REMARK    2  A    between atoms: C_3  and  C_4
REMARK    3  A    between atoms: C_4  and  C_5
REMARK    4  A    between atoms: C_4  and  C_16
REMARK    5  A    between atoms: C_5  and  O_6
REMARK    6  A    between atoms: O_6  and  C_7
REMARK    7  A    between atoms: C_10  and  C_11
REMARK    8  A    between atoms: C_20  and  O_21
REMARK    9  A    between atoms: O_21  and  C_22
REMARK   10  A    between atoms: N_24  and  C_25
REMARK   11  A    between atoms: C_25  and  C_26
REMARK   12  A    between atoms: C_25  and  C_27
REMARK                            x       y       z     vdW  Elec       q    Type
REMARK                         _______ _______ _______ _____ _____    ______ ____
ROOT
ATOM      1  C   UNL     1      46.613   5.420  12.928  0.00  0.00    +0.000 C 
ENDROOT
BRANCH   1   2
ATOM      2  C   UNL     1      45.433   4.732  12.247  0.00  0.00    +0.000 A 
ATOM      3  C   UNL     1      44.531   3.945  12.975  0.00  0.00    +0.000 A 
ATOM      4  C   UNL     1      43.505   3.274  12.340  0.00  0.00    +0.000 A 
ATOM      5  C   UNL     1      43.362   3.431  10.971  0.00  0.00    +0.000 A 
ATOM      6  C   UNL     1      44.248   4.265  10.306  0.00  0.00    +0.000 A 
ATOM      7  N   UNL     1      45.267   4.922  10.908  0.00  0.00    +0.000 NA
BRANCH   6   8
ATOM      8  O   UNL     1      44.075   4.407   8.933  0.00  0.00    +0.000 OA
BRANCH   8   9
ATOM      9  C   UNL     1      44.819   3.469   8.115  0.00  0.00    +0.000 C 
ATOM     10  C   UNL     1      45.518   2.321   8.865  0.00  0.00    +0.000 C 
ATOM     11  N   UNL     1      46.731   2.484   8.023  0.00  0.00    +0.000 NA
ATOM     12  C   UNL     1      46.247   3.845   7.644  0.00  0.00    +0.000 C 
BRANCH  11  13
ATOM     13  C   UNL     1      46.696   1.544   6.882  0.00  0.00    +0.000 C 
ATOM     14  C   UNL     1      47.762   1.911   5.840  0.00  0.00    +0.000 C 
ATOM     15  C   UNL     1      46.989   0.111   7.362  0.00  0.00    +0.000 C 
ENDBRANCH  11  13
ENDBRANCH   8   9
ENDBRANCH   6   8
ENDBRANCH   1   2
BRANCH   1  18
ATOM     16  C   UNL     1      47.511   3.672  16.757  0.00  0.00    +0.000 C 
ATOM     17  C   UNL     1      47.254   4.245  15.373  0.00  0.00    +0.000 C 
ATOM     18  C   UNL     1      47.034   4.736  14.186  0.00  0.00    +0.000 C 
ENDBRANCH   1  18
BRANCH   1  19
ATOM     19  C   UNL     1      46.349   6.931  13.209  0.00  0.00    +0.000 C 
BRANCH  19  20
ATOM     20  O   UNL     1      46.763   7.734  12.087  0.00  0.00    +0.000 OA
BRANCH  20  21
ATOM     21  C   UNL     1      45.902   8.767  11.788  0.00  0.00    +0.000 A 
ATOM     22  C   UNL     1      44.650   8.405  11.324  0.00  0.00    +0.000 A 
ATOM     23  C   UNL     1      43.710   9.413  11.114  0.00  0.00    +0.000 A 
ATOM     24  C   UNL     1      44.054  10.749  11.369  0.00  0.00    +0.000 A 
ATOM     25  C   UNL     1      45.335  10.995  11.824  0.00  0.00    +0.000 A 
ATOM     26  N   UNL     1      46.278  10.040  12.026  0.00  0.00    +0.000 NA
BRANCH  24  27
ATOM     27  C   UNL     1      43.023  11.808  11.149  0.00  0.00    +0.000 C 
ATOM     28  N   UNL     1      42.028  11.586  10.255  0.00  0.00    +0.000 N 
ATOM     29  O   UNL     1      43.075  12.851  11.774  0.00  0.00    +0.000 OA
ATOM     30  H   UNL     1      41.885  10.752   9.699  0.00  0.00    +0.000 HD
ATOM     31  H   UNL     1      41.353  12.328  10.152  0.00  0.00    +0.000 HD
ENDBRANCH  24  27
ENDBRANCH  20  21
ENDBRANCH  19  20
ENDBRANCH   1  19
TORSDOF 9
ENDMDL
