MODEL 1
REMARK VINA RESULT:    -8.506      0.000      0.000
REMARK INTER + INTRA:         -13.225
REMARK INTER:                 -12.236
REMARK INTRA:                  -0.990
REMARK UNBOUND:                -0.990
REMARK  Name = 
REMARK  9 active torsions:
REMARK  status: ('A' for Active; 'I' for Inactive)
REMARK    1  A    between atoms: C_1  and  C_2
REMARK    2  A    between atoms: C_2  and  O_3
REMARK    3  A    between atoms: C_2  and  C_4
REMARK    4  A    between atoms: C_2  and  C_15
REMARK    5  A    between atoms: C_4  and  O_5
REMARK    6  A    between atoms: O_5  and  C_6
REMARK    7  A    between atoms: C_9  and  C_10
REMARK    8  A    between atoms: C_19  and  O_20
REMARK    9  A    between atoms: O_20  and  C_21
REMARK                            x       y       z     vdW  Elec       q    Type
REMARK                         _______ _______ _______ _____ _____    ______ ____
ROOT
ATOM      1  C   UNL     1      42.949   4.714  13.159  0.00  0.00    +0.000 C 
ATOM      2  C   UNL     1      44.079   4.205  12.251  0.00  0.00    +0.000 C 
ENDROOT
BRANCH   2   3
ATOM      3  C   UNL     1      45.422   4.898  12.484  0.00  0.00    +0.000 A 
ATOM      4  C   UNL     1      45.901   5.862  11.580  0.00  0.00    +0.000 A 
ATOM      5  C   UNL     1      47.068   6.583  11.850  0.00  0.00    +0.000 A 
ATOM      6  C   UNL     1      47.782   6.358  13.027  0.00  0.00    +0.000 A 
ATOM      7  C   UNL     1      47.330   5.399  13.927  0.00  0.00    +0.000 A 
ATOM      8  C   UNL     1      46.160   4.683  13.658  0.00  0.00    +0.000 A 
BRANCH   7   9
ATOM      9  O   UNL     1      47.912   5.106  15.133  0.00  0.00    +0.000 OA
BRANCH   9  10
ATOM     10  C   UNL     1      47.246   4.195  16.033  0.00  0.00    +0.000 C 
ATOM     11  C   UNL     1      47.280   4.502  17.536  0.00  0.00    +0.000 C 
ATOM     12  O   UNL     1      47.827   3.195  17.837  0.00  0.00    +0.000 OA
ATOM     13  C   UNL     1      48.076   2.966  16.431  0.00  0.00    +0.000 C 
ENDBRANCH   9  10
ENDBRANCH   7   9
ENDBRANCH   2   3
BRANCH   2  14
ATOM     14  O   UNL     1      44.220   2.804  12.534  0.00  0.00    +0.000 OA
ATOM     15  H   UNL     1      43.362   2.512  12.894  0.00  0.00    +0.000 HD
ENDBRANCH   2  14
BRANCH   2  16
ATOM     16  C   UNL     1      43.715   4.373  10.755  0.00  0.00    +0.000 C 
BRANCH  16  17
ATOM     17  O   UNL     1      43.715   3.095  10.100  0.00  0.00    +0.000 OA
BRANCH  17  18
ATOM     18  C   UNL     1      44.671   2.917   9.139  0.00  0.00    +0.000 A 
ATOM     19  C   UNL     1      45.152   3.888   8.263  0.00  0.00    +0.000 A 
ATOM     20  C   UNL     1      46.144   3.557   7.342  0.00  0.00    +0.000 A 
ATOM     21  C   UNL     1      46.624   2.254   7.326  0.00  0.00    +0.000 A 
ATOM     22  N   UNL     1      46.174   1.272   8.155  0.00  0.00    +0.000 NA
ATOM     23  C   UNL     1      45.208   1.635   9.035  0.00  0.00    +0.000 A 
BRANCH  21  24
ATOM     24  C   UNL     1      47.708   1.880   6.363  0.00  0.00    +0.000 C 
ATOM     25  N   UNL     1      48.814   2.684   6.384  0.00  0.00    +0.000 N 
ATOM     26  O   UNL     1      47.616   0.925   5.602  0.00  0.00    +0.000 OA
ATOM     27  H   UNL     1      48.844   3.475   7.017  0.00  0.00    +0.000 HD
ATOM     28  H   UNL     1      49.573   2.506   5.744  0.00  0.00    +0.000 HD
ENDBRANCH  21  24
ENDBRANCH  17  18
ENDBRANCH  16  17
ENDBRANCH   2  16
TORSDOF 8
ENDMDL
MODEL 2
REMARK VINA RESULT:    -8.142      1.324      1.572
REMARK INTER + INTRA:         -12.701
REMARK INTER:                 -11.843
REMARK INTRA:                  -0.857
REMARK UNBOUND:                -0.990
REMARK  Name = 
REMARK  9 active torsions:
REMARK  status: ('A' for Active; 'I' for Inactive)
REMARK    1  A    between atoms: C_1  and  C_2
REMARK    2  A    between atoms: C_2  and  O_3
REMARK    3  A    between atoms: C_2  and  C_4
REMARK    4  A    between atoms: C_2  and  C_15
REMARK    5  A    between atoms: C_4  and  O_5
REMARK    6  A    between atoms: O_5  and  C_6
REMARK    7  A    between atoms: C_9  and  C_10
REMARK    8  A    between atoms: C_19  and  O_20
REMARK    9  A    between atoms: O_20  and  C_21
REMARK                            x       y       z     vdW  Elec       q    Type
REMARK                         _______ _______ _______ _____ _____    ______ ____
ROOT
ATOM      1  C   UNL     1      43.153   6.350  11.303  0.00  0.00    +0.000 C 
ATOM      2  C   UNL     1      43.672   5.312  12.309  0.00  0.00    +0.000 C 
ENDROOT
BRANCH   2   3
ATOM      3  C   UNL     1      45.120   5.539  12.745  0.00  0.00    +0.000 A 
ATOM      4  C   UNL     1      45.827   6.681  12.330  0.00  0.00    +0.000 A 
ATOM      5  C   UNL     1      47.106   6.954  12.821  0.00  0.00    +0.000 A 
ATOM      6  C   UNL     1      47.709   6.093  13.738  0.00  0.00    +0.000 A 
ATOM      7  C   UNL     1      47.031   4.951  14.151  0.00  0.00    +0.000 A 
ATOM      8  C   UNL     1      45.749   4.683  13.663  0.00  0.00    +0.000 A 
BRANCH   7   9
ATOM      9  O   UNL     1      47.489   4.044  15.072  0.00  0.00    +0.000 OA
BRANCH   9  10
ATOM     10  C   UNL     1      47.303   4.313  16.478  0.00  0.00    +0.000 C 
ATOM     11  C   UNL     1      48.518   4.760  17.300  0.00  0.00    +0.000 C 
ATOM     12  O   UNL     1      48.321   3.692  18.258  0.00  0.00    +0.000 OA
ATOM     13  C   UNL     1      47.355   3.071  17.379  0.00  0.00    +0.000 C 
ENDBRANCH   9  10
ENDBRANCH   7   9
ENDBRANCH   2   3
BRANCH   2  14
ATOM     14  O   UNL     1      42.817   5.406  13.459  0.00  0.00    +0.000 OA
ATOM     15  H   UNL     1      41.906   5.457  13.116  0.00  0.00    +0.000 HD
ENDBRANCH   2  14
BRANCH   2  16
ATOM     16  C   UNL     1      43.573   3.876  11.735  0.00  0.00    +0.000 C 
BRANCH  16  17
ATOM     17  O   UNL     1      43.302   3.926  10.325  0.00  0.00    +0.000 OA
BRANCH  17  18
ATOM     18  C   UNL     1      44.291   3.449   9.511  0.00  0.00    +0.000 A 
ATOM     19  C   UNL     1      44.763   2.139   9.466  0.00  0.00    +0.000 A 
ATOM     20  C   UNL     1      45.773   1.799   8.566  0.00  0.00    +0.000 A 
ATOM     21  C   UNL     1      46.281   2.790   7.737  0.00  0.00    +0.000 A 
ATOM     22  N   UNL     1      45.857   4.084   7.756  0.00  0.00    +0.000 NA
ATOM     23  C   UNL     1      44.876   4.373   8.646  0.00  0.00    +0.000 A 
BRANCH  21  24
ATOM     24  C   UNL     1      47.347   2.445   6.743  0.00  0.00    +0.000 C 
ATOM     25  N   UNL     1      47.249   3.077   5.534  0.00  0.00    +0.000 N 
ATOM     26  O   UNL     1      48.244   1.648   6.986  0.00  0.00    +0.000 OA
ATOM     27  H   UNL     1      46.481   3.717   5.366  0.00  0.00    +0.000 HD
ATOM     28  H   UNL     1      47.919   2.873   4.808  0.00  0.00    +0.000 HD
ENDBRANCH  21  24
ENDBRANCH  17  18
ENDBRANCH  16  17
ENDBRANCH   2  16
TORSDOF 8
ENDMDL
MODEL 3
REMARK VINA RESULT:    -7.489      2.335      3.786
REMARK INTER + INTRA:         -11.763
REMARK INTER:                 -10.954
REMARK INTRA:                  -0.809
REMARK UNBOUND:                -0.990
REMARK  Name = 
REMARK  9 active torsions:
REMARK  status: ('A' for Active; 'I' for Inactive)
REMARK    1  A    between atoms: C_1  and  C_2
REMARK    2  A    between atoms: C_2  and  O_3
REMARK    3  A    between atoms: C_2  and  C_4
REMARK    4  A    between atoms: C_2  and  C_15
REMARK    5  A    between atoms: C_4  and  O_5
REMARK    6  A    between atoms: O_5  and  C_6
REMARK    7  A    between atoms: C_9  and  C_10
REMARK    8  A    between atoms: C_19  and  O_20
REMARK    9  A    between atoms: O_20  and  C_21
REMARK                            x       y       z     vdW  Elec       q    Type
REMARK                         _______ _______ _______ _____ _____    ______ ____
ROOT
ATOM      1  C   UNL     1      42.699   5.783  11.528  0.00  0.00    +0.000 C 
ATOM      2  C   UNL     1      43.535   4.825  12.389  0.00  0.00    +0.000 C 
ENDROOT
BRANCH   2   3
ATOM      3  C   UNL     1      44.900   5.383  12.794  0.00  0.00    +0.000 A 
ATOM      4  C   UNL     1      45.776   4.631  13.596  0.00  0.00    +0.000 A 
ATOM      5  C   UNL     1      47.070   5.085  13.869  0.00  0.00    +0.000 A 
ATOM      6  C   UNL     1      47.517   6.299  13.348  0.00  0.00    +0.000 A 
ATOM      7  C   UNL     1      46.660   7.063  12.564  0.00  0.00    +0.000 A 
ATOM      8  C   UNL     1      45.368   6.605  12.287  0.00  0.00    +0.000 A 
BRANCH   7   9
ATOM      9  O   UNL     1      46.982   8.251  11.960  0.00  0.00    +0.000 OA
BRANCH   9  10
ATOM     10  C   UNL     1      46.462   9.482  12.506  0.00  0.00    +0.000 C 
ATOM     11  C   UNL     1      45.122  10.006  11.973  0.00  0.00    +0.000 C 
ATOM     12  O   UNL     1      45.705  11.291  11.641  0.00  0.00    +0.000 OA
ATOM     13  C   UNL     1      47.030  10.757  11.867  0.00  0.00    +0.000 C 
ENDBRANCH   9  10
ENDBRANCH   7   9
ENDBRANCH   2   3
BRANCH   2  14
ATOM     14  O   UNL     1      42.762   4.573  13.573  0.00  0.00    +0.000 OA
ATOM     15  H   UNL     1      41.901   4.234  13.268  0.00  0.00    +0.000 HD
ENDBRANCH   2  14
BRANCH   2  16
ATOM     16  C   UNL     1      43.774   3.479  11.659  0.00  0.00    +0.000 C 
BRANCH  16  17
ATOM     17  O   UNL     1      43.446   3.607  10.267  0.00  0.00    +0.000 OA
BRANCH  17  18
ATOM     18  C   UNL     1      44.441   3.286   9.387  0.00  0.00    +0.000 A 
ATOM     19  C   UNL     1      45.150   4.176   8.582  0.00  0.00    +0.000 A 
ATOM     20  C   UNL     1      46.153   3.698   7.740  0.00  0.00    +0.000 A 
ATOM     21  C   UNL     1      46.414   2.334   7.731  0.00  0.00    +0.000 A 
ATOM     22  N   UNL     1      45.740   1.429   8.492  0.00  0.00    +0.000 NA
ATOM     23  C   UNL     1      44.771   1.935   9.295  0.00  0.00    +0.000 A 
BRANCH  21  24
ATOM     24  C   UNL     1      47.505   1.798   6.856  0.00  0.00    +0.000 C 
ATOM     25  N   UNL     1      48.499   2.686   6.548  0.00  0.00    +0.000 N 
ATOM     26  O   UNL     1      47.510   0.649   6.435  0.00  0.00    +0.000 OA
ATOM     27  H   UNL     1      48.449   3.635   6.903  0.00  0.00    +0.000 HD
ATOM     28  H   UNL     1      49.253   2.401   5.941  0.00  0.00    +0.000 HD
ENDBRANCH  21  24
ENDBRANCH  17  18
ENDBRANCH  16  17
ENDBRANCH   2  16
TORSDOF 8
ENDMDL
MODEL 4
REMARK VINA RESULT:    -6.563      2.687      3.301
REMARK INTER + INTRA:         -10.430
REMARK INTER:                  -9.692
REMARK INTRA:                  -0.738
REMARK UNBOUND:                -0.990
REMARK  Name = 
REMARK  9 active torsions:
REMARK  status: ('A' for Active; 'I' for Inactive)
REMARK    1  A    between atoms: C_1  and  C_2
REMARK    2  A    between atoms: C_2  and  O_3
REMARK    3  A    between atoms: C_2  and  C_4
REMARK    4  A    between atoms: C_2  and  C_15
REMARK    5  A    between atoms: C_4  and  O_5
REMARK    6  A    between atoms: O_5  and  C_6
REMARK    7  A    between atoms: C_9  and  C_10
REMARK    8  A    between atoms: C_19  and  O_20
REMARK    9  A    between atoms: O_20  and  C_21
REMARK                            x       y       z     vdW  Elec       q    Type
REMARK                         _______ _______ _______ _____ _____    ______ ____
ROOT
ATOM      1  C   UNL     1      42.490   5.342  11.706  0.00  0.00    +0.000 C 
ATOM      2  C   UNL     1      43.925   5.324  12.253  0.00  0.00    +0.000 C 
ENDROOT
BRANCH   2   3
ATOM      3  C   UNL     1      44.649   6.667  12.143  0.00  0.00    +0.000 A 
ATOM      4  C   UNL     1      44.113   7.712  11.371  0.00  0.00    +0.000 A 
ATOM      5  C   UNL     1      44.706   8.978  11.363  0.00  0.00    +0.000 A 
ATOM      6  C   UNL     1      45.846   9.228  12.127  0.00  0.00    +0.000 A 
ATOM      7  C   UNL     1      46.398   8.202  12.887  0.00  0.00    +0.000 A 
ATOM      8  C   UNL     1      45.800   6.939  12.898  0.00  0.00    +0.000 A 
BRANCH   7   9
ATOM      9  O   UNL     1      47.490   8.321  13.709  0.00  0.00    +0.000 OA
BRANCH   9  10
ATOM     10  C   UNL     1      48.748   8.754  13.150  0.00  0.00    +0.000 C 
ATOM     11  C   UNL     1      49.651   7.703  12.492  0.00  0.00    +0.000 C 
ATOM     12  O   UNL     1      50.771   8.071  13.335  0.00  0.00    +0.000 OA
ATOM     13  C   UNL     1      49.894   8.867  14.165  0.00  0.00    +0.000 C 
ENDBRANCH   9  10
ENDBRANCH   7   9
ENDBRANCH   2   3
BRANCH   2  14
ATOM     14  O   UNL     1      43.821   4.960  13.639  0.00  0.00    +0.000 OA
ATOM     15  H   UNL     1      42.871   4.833  13.816  0.00  0.00    +0.000 HD
ENDBRANCH   2  14
BRANCH   2  16
ATOM     16  C   UNL     1      44.789   4.262  11.527  0.00  0.00    +0.000 C 
BRANCH  16  17
ATOM     17  O   UNL     1      44.128   3.822  10.330  0.00  0.00    +0.000 OA
BRANCH  17  18
ATOM     18  C   UNL     1      44.944   3.381   9.326  0.00  0.00    +0.000 A 
ATOM     19  C   UNL     1      45.363   2.068   9.120  0.00  0.00    +0.000 A 
ATOM     20  C   UNL     1      46.188   1.768   8.037  0.00  0.00    +0.000 A 
ATOM     21  C   UNL     1      46.570   2.800   7.191  0.00  0.00    +0.000 A 
ATOM     22  N   UNL     1      46.194   4.097   7.362  0.00  0.00    +0.000 NA
ATOM     23  C   UNL     1      45.394   4.347   8.427  0.00  0.00    +0.000 A 
BRANCH  21  24
ATOM     24  C   UNL     1      47.434   2.499   6.005  0.00  0.00    +0.000 C 
ATOM     25  N   UNL     1      48.778   2.451   6.256  0.00  0.00    +0.000 N 
ATOM     26  O   UNL     1      46.978   2.315   4.884  0.00  0.00    +0.000 OA
ATOM     27  H   UNL     1      49.117   2.626   7.195  0.00  0.00    +0.000 HD
ATOM     28  H   UNL     1      49.422   2.279   5.498  0.00  0.00    +0.000 HD
ENDBRANCH  21  24
ENDBRANCH  17  18
ENDBRANCH  16  17
ENDBRANCH   2  16
TORSDOF 8
ENDMDL
MODEL 5
REMARK VINA RESULT:    -6.492      2.992      7.713
REMARK INTER + INTRA:         -10.328
REMARK INTER:                  -9.605
REMARK INTRA:                  -0.723
REMARK UNBOUND:                -0.990
REMARK  Name = 
REMARK  9 active torsions:
REMARK  status: ('A' for Active; 'I' for Inactive)
REMARK    1  A    between atoms: C_1  and  C_2
REMARK    2  A    between atoms: C_2  and  O_3
REMARK    3  A    between atoms: C_2  and  C_4
REMARK    4  A    between atoms: C_2  and  C_15
REMARK    5  A    between atoms: C_4  and  O_5
REMARK    6  A    between atoms: O_5  and  C_6
REMARK    7  A    between atoms: C_9  and  C_10
REMARK    8  A    between atoms: C_19  and  O_20
REMARK    9  A    between atoms: O_20  and  C_21
REMARK                            x       y       z     vdW  Elec       q    Type
REMARK                         _______ _______ _______ _____ _____    ______ ____
ROOT
ATOM      1  C   UNL     1      42.923   6.433  11.385  0.00  0.00    +0.000 C 
ATOM      2  C   UNL     1      44.399   6.015  11.313  0.00  0.00    +0.000 C 
ENDROOT
BRANCH   2   3
ATOM      3  C   UNL     1      44.639   4.712  10.550  0.00  0.00    +0.000 A 
ATOM      4  C   UNL     1      44.044   3.510  10.971  0.00  0.00    +0.000 A 
ATOM      5  C   UNL     1      44.162   2.343  10.211  0.00  0.00    +0.000 A 
ATOM      6  C   UNL     1      44.877   2.350   9.013  0.00  0.00    +0.000 A 
ATOM      7  C   UNL     1      45.484   3.527   8.586  0.00  0.00    +0.000 A 
ATOM      8  C   UNL     1      45.360   4.694   9.346  0.00  0.00    +0.000 A 
BRANCH   7   9
ATOM      9  O   UNL     1      46.181   3.682   7.416  0.00  0.00    +0.000 OA
BRANCH   9  10
ATOM     10  C   UNL     1      46.497   2.517   6.625  0.00  0.00    +0.000 C 
ATOM     11  C   UNL     1      47.793   1.757   6.936  0.00  0.00    +0.000 C 
ATOM     12  O   UNL     1      48.243   1.869   5.563  0.00  0.00    +0.000 OA
ATOM     13  C   UNL     1      47.188   2.820   5.287  0.00  0.00    +0.000 C 
ENDBRANCH   9  10
ENDBRANCH   7   9
ENDBRANCH   2   3
BRANCH   2  14
ATOM     14  O   UNL     1      45.086   7.084  10.643  0.00  0.00    +0.000 OA
ATOM     15  H   UNL     1      44.421   7.779  10.487  0.00  0.00    +0.000 HD
ENDBRANCH   2  14
BRANCH   2  16
ATOM     16  C   UNL     1      45.004   5.850  12.730  0.00  0.00    +0.000 C 
BRANCH  16  17
ATOM     17  O   UNL     1      46.401   5.531  12.636  0.00  0.00    +0.000 OA
BRANCH  17  18
ATOM     18  C   UNL     1      46.995   5.104  13.791  0.00  0.00    +0.000 A 
ATOM     19  C   UNL     1      47.599   5.909  14.755  0.00  0.00    +0.000 A 
ATOM     20  C   UNL     1      48.152   5.324  15.893  0.00  0.00    +0.000 A 
ATOM     21  C   UNL     1      48.083   3.945  16.030  0.00  0.00    +0.000 A 
ATOM     22  N   UNL     1      47.512   3.121  15.108  0.00  0.00    +0.000 NA
ATOM     23  C   UNL     1      46.988   3.728  14.015  0.00  0.00    +0.000 A 
BRANCH  21  24
ATOM     24  C   UNL     1      48.646   3.296  17.256  0.00  0.00    +0.000 C 
ATOM     25  N   UNL     1      50.009   3.327  17.363  0.00  0.00    +0.000 N 
ATOM     26  O   UNL     1      47.942   2.765  18.106  0.00  0.00    +0.000 OA
ATOM     27  H   UNL     1      50.558   3.761  16.629  0.00  0.00    +0.000 HD
ATOM     28  H   UNL     1      50.459   2.886  18.152  0.00  0.00    +0.000 HD
ENDBRANCH  21  24
ENDBRANCH  17  18
ENDBRANCH  16  17
ENDBRANCH   2  16
TORSDOF 8
ENDMDL
MODEL 6
REMARK VINA RESULT:    -6.346      2.987      4.481
REMARK INTER + INTRA:         -10.118
REMARK INTER:                  -9.391
REMARK INTRA:                  -0.727
REMARK UNBOUND:                -0.990
REMARK  Name = 
REMARK  9 active torsions:
REMARK  status: ('A' for Active; 'I' for Inactive)
REMARK    1  A    between atoms: C_1  and  C_2
REMARK    2  A    between atoms: C_2  and  O_3
REMARK    3  A    between atoms: C_2  and  C_4
REMARK    4  A    between atoms: C_2  and  C_15
REMARK    5  A    between atoms: C_4  and  O_5
REMARK    6  A    between atoms: O_5  and  C_6
REMARK    7  A    between atoms: C_9  and  C_10
REMARK    8  A    between atoms: C_19  and  O_20
REMARK    9  A    between atoms: O_20  and  C_21
REMARK                            x       y       z     vdW  Elec       q    Type
REMARK                         _______ _______ _______ _____ _____    ______ ____
ROOT
ATOM      1  C   UNL     1      46.151   4.955   8.486  0.00  0.00    +0.000 C 
ATOM      2  C   UNL     1      45.108   3.889   8.854  0.00  0.00    +0.000 C 
ENDROOT
BRANCH   2   3
ATOM      3  C   UNL     1      44.578   4.005  10.284  0.00  0.00    +0.000 A 
ATOM      4  C   UNL     1      43.963   2.910  10.914  0.00  0.00    +0.000 A 
ATOM      5  C   UNL     1      43.585   2.974  12.259  0.00  0.00    +0.000 A 
ATOM      6  C   UNL     1      43.815   4.131  13.003  0.00  0.00    +0.000 A 
ATOM      7  C   UNL     1      44.410   5.229  12.392  0.00  0.00    +0.000 A 
ATOM      8  C   UNL     1      44.792   5.162  11.049  0.00  0.00    +0.000 A 
BRANCH   7   9
ATOM      9  O   UNL     1      44.726   6.410  13.014  0.00  0.00    +0.000 OA
BRANCH   9  10
ATOM     10  C   UNL     1      45.703   7.284  12.410  0.00  0.00    +0.000 C 
ATOM     11  C   UNL     1      46.725   7.973  13.324  0.00  0.00    +0.000 C 
ATOM     12  O   UNL     1      46.364   9.282  12.818  0.00  0.00    +0.000 OA
ATOM     13  C   UNL     1      45.210   8.716  12.155  0.00  0.00    +0.000 C 
ENDBRANCH   9  10
ENDBRANCH   7   9
ENDBRANCH   2   3
BRANCH   2  14
ATOM     14  O   UNL     1      44.018   4.061   7.935  0.00  0.00    +0.000 OA
ATOM     15  H   UNL     1      43.660   4.952   8.103  0.00  0.00    +0.000 HD
ENDBRANCH   2  14
BRANCH   2  16
ATOM     16  C   UNL     1      45.681   2.460   8.678  0.00  0.00    +0.000 C 
BRANCH  16  17
ATOM     17  O   UNL     1      46.929   2.512   7.968  0.00  0.00    +0.000 OA
BRANCH  17  18
ATOM     18  C   UNL     1      46.918   1.993   6.704  0.00  0.00    +0.000 A 
ATOM     19  C   UNL     1      46.766   2.709   5.519  0.00  0.00    +0.000 A 
ATOM     20  C   UNL     1      46.791   2.037   4.298  0.00  0.00    +0.000 A 
ATOM     21  C   UNL     1      46.968   0.660   4.304  0.00  0.00    +0.000 A 
ATOM     22  N   UNL     1      47.110  -0.079   5.438  0.00  0.00    +0.000 NA
ATOM     23  C   UNL     1      47.078   0.611   6.604  0.00  0.00    +0.000 A 
BRANCH  21  24
ATOM     24  C   UNL     1      47.026  -0.082   3.004  0.00  0.00    +0.000 C 
ATOM     25  N   UNL     1      46.068   0.263   2.089  0.00  0.00    +0.000 N 
ATOM     26  O   UNL     1      47.864  -0.943   2.770  0.00  0.00    +0.000 OA
ATOM     27  H   UNL     1      45.381   0.969   2.328  0.00  0.00    +0.000 HD
ATOM     28  H   UNL     1      46.031  -0.215   1.201  0.00  0.00    +0.000 HD
ENDBRANCH  21  24
ENDBRANCH  17  18
ENDBRANCH  16  17
ENDBRANCH   2  16
TORSDOF 8
ENDMDL
MODEL 7
REMARK VINA RESULT:    -6.221      3.232      7.489
REMARK INTER + INTRA:          -9.938
REMARK INTER:                  -9.298
REMARK INTRA:                  -0.640
REMARK UNBOUND:                -0.990
REMARK  Name = 
REMARK  9 active torsions:
REMARK  status: ('A' for Active; 'I' for Inactive)
REMARK    1  A    between atoms: C_1  and  C_2
REMARK    2  A    between atoms: C_2  and  O_3
REMARK    3  A    between atoms: C_2  and  C_4
REMARK    4  A    between atoms: C_2  and  C_15
REMARK    5  A    between atoms: C_4  and  O_5
REMARK    6  A    between atoms: O_5  and  C_6
REMARK    7  A    between atoms: C_9  and  C_10
REMARK    8  A    between atoms: C_19  and  O_20
REMARK    9  A    between atoms: O_20  and  C_21
REMARK                            x       y       z     vdW  Elec       q    Type
REMARK                         _______ _______ _______ _____ _____    ______ ____
ROOT
ATOM      1  C   UNL     1      43.536   2.298  12.164  0.00  0.00    +0.000 C 
ATOM      2  C   UNL     1      43.667   3.773  11.754  0.00  0.00    +0.000 C 
ENDROOT
BRANCH   2   3
ATOM      3  C   UNL     1      44.497   3.994  10.489  0.00  0.00    +0.000 A 
ATOM      4  C   UNL     1      45.000   5.268  10.171  0.00  0.00    +0.000 A 
ATOM      5  C   UNL     1      45.857   5.452   9.082  0.00  0.00    +0.000 A 
ATOM      6  C   UNL     1      46.232   4.369   8.288  0.00  0.00    +0.000 A 
ATOM      7  C   UNL     1      45.734   3.103   8.579  0.00  0.00    +0.000 A 
ATOM      8  C   UNL     1      44.881   2.920   9.671  0.00  0.00    +0.000 A 
BRANCH   7   9
ATOM      9  O   UNL     1      46.050   1.951   7.905  0.00  0.00    +0.000 OA
BRANCH   9  10
ATOM     10  C   UNL     1      46.647   2.042   6.595  0.00  0.00    +0.000 C 
ATOM     11  C   UNL     1      47.145   0.752   5.931  0.00  0.00    +0.000 C 
ATOM     12  O   UNL     1      48.468   1.309   5.735  0.00  0.00    +0.000 OA
ATOM     13  C   UNL     1      48.134   2.424   6.593  0.00  0.00    +0.000 C 
ENDBRANCH   9  10
ENDBRANCH   7   9
ENDBRANCH   2   3
BRANCH   2  14
ATOM     14  O   UNL     1      42.329   4.244  11.524  0.00  0.00    +0.000 OA
ATOM     15  H   UNL     1      42.379   4.836  10.751  0.00  0.00    +0.000 HD
ENDBRANCH   2  14
BRANCH   2  16
ATOM     16  C   UNL     1      44.301   4.617  12.888  0.00  0.00    +0.000 C 
BRANCH  16  17
ATOM     17  O   UNL     1      45.448   3.940  13.424  0.00  0.00    +0.000 OA
BRANCH  17  18
ATOM     18  C   UNL     1      46.461   4.744  13.869  0.00  0.00    +0.000 A 
ATOM     19  C   UNL     1      46.959   5.875  13.227  0.00  0.00    +0.000 A 
ATOM     20  C   UNL     1      47.992   6.605  13.816  0.00  0.00    +0.000 A 
ATOM     21  C   UNL     1      48.495   6.173  15.036  0.00  0.00    +0.000 A 
ATOM     22  N   UNL     1      48.045   5.069  15.691  0.00  0.00    +0.000 NA
ATOM     23  C   UNL     1      47.043   4.386  15.085  0.00  0.00    +0.000 A 
BRANCH  21  24
ATOM     24  C   UNL     1      49.585   6.955  15.701  0.00  0.00    +0.000 C 
ATOM     25  N   UNL     1      49.812   6.644  17.014  0.00  0.00    +0.000 N 
ATOM     26  O   UNL     1      50.229   7.819  15.119  0.00  0.00    +0.000 OA
ATOM     27  H   UNL     1      49.246   5.934  17.464  0.00  0.00    +0.000 HD
ATOM     28  H   UNL     1      50.515   7.149  17.532  0.00  0.00    +0.000 HD
ENDBRANCH  21  24
ENDBRANCH  17  18
ENDBRANCH  16  17
ENDBRANCH   2  16
TORSDOF 8
ENDMDL
MODEL 8
REMARK VINA RESULT:    -6.164      2.978      5.074
REMARK INTER + INTRA:          -9.856
REMARK INTER:                  -8.910
REMARK INTRA:                  -0.946
REMARK UNBOUND:                -0.990
REMARK  Name = 
REMARK  9 active torsions:
REMARK  status: ('A' for Active; 'I' for Inactive)
REMARK    1  A    between atoms: C_1  and  C_2
REMARK    2  A    between atoms: C_2  and  O_3
REMARK    3  A    between atoms: C_2  and  C_4
REMARK    4  A    between atoms: C_2  and  C_15
REMARK    5  A    between atoms: C_4  and  O_5
REMARK    6  A    between atoms: O_5  and  C_6
REMARK    7  A    between atoms: C_9  and  C_10
REMARK    8  A    between atoms: C_19  and  O_20
REMARK    9  A    between atoms: O_20  and  C_21
REMARK                            x       y       z     vdW  Elec       q    Type
REMARK                         _______ _______ _______ _____ _____    ______ ____
ROOT
ATOM      1  C   UNL     1      49.131   8.871  12.446  0.00  0.00    +0.000 C 
ATOM      2  C   UNL     1      48.019   8.913  13.504  0.00  0.00    +0.000 C 
ENDROOT
BRANCH   2   3
ATOM      3  C   UNL     1      48.421   8.317  14.853  0.00  0.00    +0.000 A 
ATOM      4  C   UNL     1      48.463   9.115  16.009  0.00  0.00    +0.000 A 
ATOM      5  C   UNL     1      48.713   8.551  17.264  0.00  0.00    +0.000 A 
ATOM      6  C   UNL     1      48.927   7.179  17.392  0.00  0.00    +0.000 A 
ATOM      7  C   UNL     1      48.903   6.375  16.257  0.00  0.00    +0.000 A 
ATOM      8  C   UNL     1      48.647   6.940  15.004  0.00  0.00    +0.000 A 
BRANCH   7   9
ATOM      9  O   UNL     1      49.059   5.013  16.245  0.00  0.00    +0.000 OA
BRANCH   9  10
ATOM     10  C   UNL     1      48.442   4.224  17.284  0.00  0.00    +0.000 C 
ATOM     11  C   UNL     1      48.214   2.729  17.023  0.00  0.00    +0.000 C 
ATOM     12  O   UNL     1      46.802   2.845  17.329  0.00  0.00    +0.000 OA
ATOM     13  C   UNL     1      46.908   4.287  17.311  0.00  0.00    +0.000 C 
ENDBRANCH   9  10
ENDBRANCH   7   9
ENDBRANCH   2   3
BRANCH   2  14
ATOM     14  O   UNL     1      47.691  10.300  13.684  0.00  0.00    +0.000 OA
ATOM     15  H   UNL     1      48.214  10.606  14.448  0.00  0.00    +0.000 HD
ENDBRANCH   2  14
BRANCH   2  16
ATOM     16  C   UNL     1      46.752   8.165  13.017  0.00  0.00    +0.000 C 
BRANCH  16  17
ATOM     17  O   UNL     1      47.072   7.337  11.888  0.00  0.00    +0.000 OA
BRANCH  17  18
ATOM     18  C   UNL     1      46.344   6.186  11.767  0.00  0.00    +0.000 A 
ATOM     19  C   UNL     1      46.136   5.233  12.763  0.00  0.00    +0.000 A 
ATOM     20  C   UNL     1      45.354   4.111  12.492  0.00  0.00    +0.000 A 
ATOM     21  C   UNL     1      44.804   3.978  11.224  0.00  0.00    +0.000 A 
ATOM     22  N   UNL     1      44.992   4.878  10.220  0.00  0.00    +0.000 NA
ATOM     23  C   UNL     1      45.759   5.954  10.524  0.00  0.00    +0.000 A 
BRANCH  21  24
ATOM     24  C   UNL     1      43.939   2.795  10.917  0.00  0.00    +0.000 C 
ATOM     25  N   UNL     1      44.367   2.009   9.883  0.00  0.00    +0.000 N 
ATOM     26  O   UNL     1      42.914   2.547  11.539  0.00  0.00    +0.000 OA
ATOM     27  H   UNL     1      45.212   2.259   9.382  0.00  0.00    +0.000 HD
ATOM     28  H   UNL     1      43.818   1.209   9.604  0.00  0.00    +0.000 HD
ENDBRANCH  21  24
ENDBRANCH  17  18
ENDBRANCH  16  17
ENDBRANCH   2  16
TORSDOF 8
ENDMDL
MODEL 9
REMARK VINA RESULT:    -6.158      3.495      7.514
REMARK INTER + INTRA:          -9.847
REMARK INTER:                  -9.155
REMARK INTRA:                  -0.692
REMARK UNBOUND:                -0.990
REMARK  Name = 
REMARK  9 active torsions:
REMARK  status: ('A' for Active; 'I' for Inactive)
REMARK    1  A    between atoms: C_1  and  C_2
REMARK    2  A    between atoms: C_2  and  O_3
REMARK    3  A    between atoms: C_2  and  C_4
REMARK    4  A    between atoms: C_2  and  C_15
REMARK    5  A    between atoms: C_4  and  O_5
REMARK    6  A    between atoms: O_5  and  C_6
REMARK    7  A    between atoms: C_9  and  C_10
REMARK    8  A    between atoms: C_19  and  O_20
REMARK    9  A    between atoms: O_20  and  C_21
REMARK                            x       y       z     vdW  Elec       q    Type
REMARK                         _______ _______ _______ _____ _____    ______ ____
ROOT
ATOM      1  C   UNL     1      43.333   5.418  12.724  0.00  0.00    +0.000 C 
ATOM      2  C   UNL     1      43.954   5.693  11.346  0.00  0.00    +0.000 C 
ENDROOT
BRANCH   2   3
ATOM      3  C   UNL     1      44.333   4.430  10.571  0.00  0.00    +0.000 A 
ATOM      4  C   UNL     1      43.809   3.177  10.937  0.00  0.00    +0.000 A 
ATOM      5  C   UNL     1      44.057   2.041  10.162  0.00  0.00    +0.000 A 
ATOM      6  C   UNL     1      44.831   2.129   9.005  0.00  0.00    +0.000 A 
ATOM      7  C   UNL     1      45.368   3.357   8.635  0.00  0.00    +0.000 A 
ATOM      8  C   UNL     1      45.115   4.494   9.408  0.00  0.00    +0.000 A 
BRANCH   7   9
ATOM      9  O   UNL     1      46.112   3.592   7.507  0.00  0.00    +0.000 OA
BRANCH   9  10
ATOM     10  C   UNL     1      46.484   2.481   6.665  0.00  0.00    +0.000 C 
ATOM     11  C   UNL     1      47.818   1.775   6.938  0.00  0.00    +0.000 C 
ATOM     12  O   UNL     1      48.254   1.971   5.570  0.00  0.00    +0.000 OA
ATOM     13  C   UNL     1      47.150   2.876   5.339  0.00  0.00    +0.000 C 
ENDBRANCH   9  10
ENDBRANCH   7   9
ENDBRANCH   2   3
BRANCH   2  14
ATOM     14  O   UNL     1      42.965   6.420  10.600  0.00  0.00    +0.000 OA
ATOM     15  H   UNL     1      43.211   6.329   9.661  0.00  0.00    +0.000 HD
ENDBRANCH   2  14
BRANCH   2  16
ATOM     16  C   UNL     1      45.225   6.570  11.468  0.00  0.00    +0.000 C 
BRANCH  16  17
ATOM     17  O   UNL     1      46.230   5.880  12.227  0.00  0.00    +0.000 OA
BRANCH  17  18
ATOM     18  C   UNL     1      47.399   6.561  12.428  0.00  0.00    +0.000 A 
ATOM     19  C   UNL     1      47.968   7.495  11.566  0.00  0.00    +0.000 A 
ATOM     20  C   UNL     1      49.164   8.121  11.918  0.00  0.00    +0.000 A 
ATOM     21  C   UNL     1      49.754   7.786  13.129  0.00  0.00    +0.000 A 
ATOM     22  N   UNL     1      49.238   6.871  13.995  0.00  0.00    +0.000 NA
ATOM     23  C   UNL     1      48.076   6.284  13.615  0.00  0.00    +0.000 A 
BRANCH  21  24
ATOM     24  C   UNL     1      51.024   8.463  13.543  0.00  0.00    +0.000 C 
ATOM     25  N   UNL     1      50.945   9.212  14.684  0.00  0.00    +0.000 N 
ATOM     26  O   UNL     1      52.064   8.364  12.904  0.00  0.00    +0.000 OA
ATOM     27  H   UNL     1      50.060   9.283  15.174  0.00  0.00    +0.000 HD
ATOM     28  H   UNL     1      51.756   9.718  15.007  0.00  0.00    +0.000 HD
ENDBRANCH  21  24
ENDBRANCH  17  18
ENDBRANCH  16  17
ENDBRANCH   2  16
TORSDOF 8
ENDMDL
