MODEL 1
REMARK VINA RESULT:    -8.094      0.000      0.000
REMARK INTER + INTRA:         -13.016
REMARK INTER:                 -11.879
REMARK INTRA:                  -1.138
REMARK UNBOUND:                -1.138
REMARK  Name = 
REMARK  12 active torsions:
REMARK  status: ('A' for Active; 'I' for Inactive)
REMARK    1  A    between atoms: C_1  and  O_2
REMARK    2  A    between atoms: O_2  and  C_3
REMARK    3  A    between atoms: C_5  and  C_6
REMARK    4  A    between atoms: C_6  and  C_7
REMARK    5  A    between atoms: C_6  and  C_8
REMARK    6  A    between atoms: C_8  and  N_9
REMARK    7  A    between atoms: N_9  and  C_10
REMARK    8  A    between atoms: C_13  and  C_14
REMARK    9  A    between atoms: C_20  and  O_21
REMARK   10  A    between atoms: O_21  and  C_22
REMARK   11  A    between atoms: C_23  and  C_24
REMARK   12  A    between atoms: C_28  and  C_29
REMARK                            x       y       z     vdW  Elec       q    Type
REMARK                         _______ _______ _______ _____ _____    ______ ____
ROOT
ATOM      1  C   UNL     1      46.776   5.172  13.799  0.00  0.00    +0.000 A 
ATOM      2  C   UNL     1      45.572   4.535  13.451  0.00  0.00    +0.000 A 
ATOM      3  C   UNL     1      44.540   5.219  12.796  0.00  0.00    +0.000 A 
ATOM      4  C   UNL     1      44.728   6.580  12.541  0.00  0.00    +0.000 A 
ATOM      5  C   UNL     1      45.913   7.245  12.885  0.00  0.00    +0.000 A 
ATOM      6  C   UNL     1      46.996   6.540  13.472  0.00  0.00    +0.000 A 
ENDROOT
BRANCH   6   7
ATOM      7  C   UNL     1      48.328   7.196  13.676  0.00  0.00    +0.000 A 
ATOM      8  C   UNL     1      48.793   7.589  14.936  0.00  0.00    +0.000 A 
ATOM      9  C   UNL     1      50.072   8.109  15.065  0.00  0.00    +0.000 A 
ATOM     10  N   UNL     1      50.911   8.322  14.032  0.00  0.00    +0.000 NA
ATOM     11  C   UNL     1      50.460   7.980  12.807  0.00  0.00    +0.000 A 
ATOM     12  C   UNL     1      51.359   8.245  11.637  0.00  0.00    +0.000 C 
ATOM     13  C   UNL     1      49.207   7.408  12.600  0.00  0.00    +0.000 A 
ENDBRANCH   6   7
BRANCH   1  15
ATOM     14  C   UNL     1      47.620   4.051  15.751  0.00  0.00    +0.000 C 
ATOM     15  O   UNL     1      47.805   4.497  14.414  0.00  0.00    +0.000 OA
ENDBRANCH   1  15
BRANCH   3  16
ATOM     16  C   UNL     1      43.288   4.458  12.361  0.00  0.00    +0.000 C 
ATOM     17  C   UNL     1      42.240   5.436  11.805  0.00  0.00    +0.000 C 
BRANCH  16  18
ATOM     18  C   UNL     1      43.504   3.352  11.297  0.00  0.00    +0.000 C 
BRANCH  18  19
ATOM     19  N   UNL     1      43.586   3.893   9.935  0.00  0.00    +0.000 N 
ATOM     20  H   UNL     1      43.513   4.908   9.899  0.00  0.00    +0.000 HD
BRANCH  19  21
ATOM     21  C   UNL     1      44.559   3.377   9.072  0.00  0.00    +0.000 A 
ATOM     22  C   UNL     1      45.256   4.170   8.154  0.00  0.00    +0.000 A 
ATOM     23  C   UNL     1      46.257   3.626   7.351  0.00  0.00    +0.000 A 
ATOM     24  C   UNL     1      46.569   2.286   7.513  0.00  0.00    +0.000 A 
ATOM     25  N   UNL     1      45.962   1.473   8.422  0.00  0.00    +0.000 NA
ATOM     26  C   UNL     1      44.994   2.052   9.181  0.00  0.00    +0.000 A 
BRANCH  24  27
ATOM     27  C   UNL     1      47.631   1.679   6.657  0.00  0.00    +0.000 C 
ATOM     28  N   UNL     1      48.751   2.446   6.481  0.00  0.00    +0.000 N 
ATOM     29  O   UNL     1      47.520   0.572   6.142  0.00  0.00    +0.000 OA
ATOM     30  H   UNL     1      48.803   3.361   6.913  0.00  0.00    +0.000 HD
ATOM     31  H   UNL     1      49.503   2.099   5.905  0.00  0.00    +0.000 HD
ENDBRANCH  24  27
ENDBRANCH  19  21
ENDBRANCH  18  19
ENDBRANCH  16  18
ENDBRANCH   3  16
BRANCH   5  32
ATOM     32  O   UNL     1      46.084   8.587  12.628  0.00  0.00    +0.000 OA
ATOM     33  C   UNL     1      45.084   9.237  11.852  0.00  0.00    +0.000 C 
ENDBRANCH   5  32
TORSDOF 8
ENDMDL
MODEL 2
REMARK VINA RESULT:    -8.056      0.601      2.386
REMARK INTER + INTRA:         -12.961
REMARK INTER:                 -11.677
REMARK INTRA:                  -1.285
REMARK UNBOUND:                -1.138
REMARK  Name = 
REMARK  12 active torsions:
REMARK  status: ('A' for Active; 'I' for Inactive)
REMARK    1  A    between atoms: C_1  and  O_2
REMARK    2  A    between atoms: O_2  and  C_3
REMARK    3  A    between atoms: C_5  and  C_6
REMARK    4  A    between atoms: C_6  and  C_7
REMARK    5  A    between atoms: C_6  and  C_8
REMARK    6  A    between atoms: C_8  and  N_9
REMARK    7  A    between atoms: N_9  and  C_10
REMARK    8  A    between atoms: C_13  and  C_14
REMARK    9  A    between atoms: C_20  and  O_21
REMARK   10  A    between atoms: O_21  and  C_22
REMARK   11  A    between atoms: C_23  and  C_24
REMARK   12  A    between atoms: C_28  and  C_29
REMARK                            x       y       z     vdW  Elec       q    Type
REMARK                         _______ _______ _______ _____ _____    ______ ____
ROOT
ATOM      1  C   UNL     1      46.162   7.222  12.526  0.00  0.00    +0.000 A 
ATOM      2  C   UNL     1      45.035   6.451  12.189  0.00  0.00    +0.000 A 
ATOM      3  C   UNL     1      44.846   5.162  12.703  0.00  0.00    +0.000 A 
ATOM      4  C   UNL     1      45.846   4.643  13.530  0.00  0.00    +0.000 A 
ATOM      5  C   UNL     1      46.984   5.384  13.876  0.00  0.00    +0.000 A 
ATOM      6  C   UNL     1      47.143   6.722  13.428  0.00  0.00    +0.000 A 
ENDROOT
BRANCH   6   7
ATOM      7  C   UNL     1      48.259   7.582  13.936  0.00  0.00    +0.000 A 
ATOM      8  C   UNL     1      48.163   8.330  15.115  0.00  0.00    +0.000 A 
ATOM      9  C   UNL     1      49.266   9.034  15.574  0.00  0.00    +0.000 A 
ATOM     10  N   UNL     1      50.446   9.100  14.927  0.00  0.00    +0.000 NA
ATOM     11  C   UNL     1      50.541   8.411  13.770  0.00  0.00    +0.000 A 
ATOM     12  C   UNL     1      51.829   8.502  13.010  0.00  0.00    +0.000 C 
ATOM     13  C   UNL     1      49.494   7.642  13.266  0.00  0.00    +0.000 A 
ENDBRANCH   6   7
BRANCH   1  15
ATOM     14  C   UNL     1      45.283   9.440  12.227  0.00  0.00    +0.000 C 
ATOM     15  O   UNL     1      46.336   8.501  12.050  0.00  0.00    +0.000 OA
ENDBRANCH   1  15
BRANCH   3  16
ATOM     16  C   UNL     1      43.562   4.401  12.376  0.00  0.00    +0.000 C 
ATOM     17  C   UNL     1      42.490   5.369  11.850  0.00  0.00    +0.000 C 
BRANCH  16  18
ATOM     18  C   UNL     1      43.700   3.253  11.346  0.00  0.00    +0.000 C 
BRANCH  18  19
ATOM     19  N   UNL     1      43.676   3.738   9.960  0.00  0.00    +0.000 N 
ATOM     20  H   UNL     1      43.509   4.740   9.887  0.00  0.00    +0.000 HD
BRANCH  19  21
ATOM     21  C   UNL     1      44.656   3.272   9.075  0.00  0.00    +0.000 A 
ATOM     22  C   UNL     1      45.369   4.120   8.221  0.00  0.00    +0.000 A 
ATOM     23  C   UNL     1      46.376   3.622   7.395  0.00  0.00    +0.000 A 
ATOM     24  C   UNL     1      46.675   2.271   7.470  0.00  0.00    +0.000 A 
ATOM     25  N   UNL     1      46.050   1.404   8.314  0.00  0.00    +0.000 NA
ATOM     26  C   UNL     1      45.079   1.939   9.099  0.00  0.00    +0.000 A 
BRANCH  24  27
ATOM     27  C   UNL     1      47.743   1.715   6.586  0.00  0.00    +0.000 C 
ATOM     28  N   UNL     1      48.781   2.564   6.316  0.00  0.00    +0.000 N 
ATOM     29  O   UNL     1      47.704   0.577   6.130  0.00  0.00    +0.000 OA
ATOM     30  H   UNL     1      48.773   3.501   6.700  0.00  0.00    +0.000 HD
ATOM     31  H   UNL     1      49.531   2.255   5.717  0.00  0.00    +0.000 HD
ENDBRANCH  24  27
ENDBRANCH  19  21
ENDBRANCH  18  19
ENDBRANCH  16  18
ENDBRANCH   3  16
BRANCH   5  32
ATOM     32  O   UNL     1      47.962   4.860  14.692  0.00  0.00    +0.000 OA
ATOM     33  C   UNL     1      47.589   4.516  16.022  0.00  0.00    +0.000 C 
ENDBRANCH   5  32
TORSDOF 8
ENDMDL
MODEL 3
REMARK VINA RESULT:    -7.246      1.585      2.441
REMARK INTER + INTRA:         -11.773
REMARK INTER:                 -10.608
REMARK INTRA:                  -1.165
REMARK UNBOUND:                -1.138
REMARK  Name = 
REMARK  12 active torsions:
REMARK  status: ('A' for Active; 'I' for Inactive)
REMARK    1  A    between atoms: C_1  and  O_2
REMARK    2  A    between atoms: O_2  and  C_3
REMARK    3  A    between atoms: C_5  and  C_6
REMARK    4  A    between atoms: C_6  and  C_7
REMARK    5  A    between atoms: C_6  and  C_8
REMARK    6  A    between atoms: C_8  and  N_9
REMARK    7  A    between atoms: N_9  and  C_10
REMARK    8  A    between atoms: C_13  and  C_14
REMARK    9  A    between atoms: C_20  and  O_21
REMARK   10  A    between atoms: O_21  and  C_22
REMARK   11  A    between atoms: C_23  and  C_24
REMARK   12  A    between atoms: C_28  and  C_29
REMARK                            x       y       z     vdW  Elec       q    Type
REMARK                         _______ _______ _______ _____ _____    ______ ____
ROOT
ATOM      1  C   UNL     1      47.649   5.368  14.935  0.00  0.00    +0.000 A 
ATOM      2  C   UNL     1      46.711   4.725  14.107  0.00  0.00    +0.000 A 
ATOM      3  C   UNL     1      46.153   5.364  12.993  0.00  0.00    +0.000 A 
ATOM      4  C   UNL     1      46.524   6.691  12.757  0.00  0.00    +0.000 A 
ATOM      5  C   UNL     1      47.448   7.361  13.570  0.00  0.00    +0.000 A 
ATOM      6  C   UNL     1      48.083   6.693  14.650  0.00  0.00    +0.000 A 
ENDROOT
BRANCH   6   7
ATOM      7  C   UNL     1      49.201   7.338  15.410  0.00  0.00    +0.000 A 
ATOM      8  C   UNL     1      50.533   7.292  14.982  0.00  0.00    +0.000 A 
ATOM      9  C   UNL     1      51.505   7.986  15.687  0.00  0.00    +0.000 A 
ATOM     10  N   UNL     1      51.271   8.681  16.817  0.00  0.00    +0.000 NA
ATOM     11  C   UNL     1      49.996   8.703  17.260  0.00  0.00    +0.000 A 
ATOM     12  C   UNL     1      49.717   9.435  18.538  0.00  0.00    +0.000 C 
ATOM     13  C   UNL     1      48.955   8.072  16.584  0.00  0.00    +0.000 A 
ENDBRANCH   6   7
BRANCH   1  15
ATOM     14  C   UNL     1      47.409   3.891  16.817  0.00  0.00    +0.000 C 
ATOM     15  O   UNL     1      48.224   4.732  16.011  0.00  0.00    +0.000 OA
ENDBRANCH   1  15
BRANCH   3  16
ATOM     16  C   UNL     1      45.206   4.592  12.075  0.00  0.00    +0.000 C 
ATOM     17  C   UNL     1      44.147   3.852  12.909  0.00  0.00    +0.000 C 
BRANCH  16  18
ATOM     18  C   UNL     1      44.459   5.434  11.012  0.00  0.00    +0.000 C 
BRANCH  18  19
ATOM     19  N   UNL     1      43.946   4.615   9.907  0.00  0.00    +0.000 N 
ATOM     20  H   UNL     1      43.242   5.090   9.345  0.00  0.00    +0.000 HD
BRANCH  19  21
ATOM     21  C   UNL     1      44.861   3.879   9.144  0.00  0.00    +0.000 A 
ATOM     22  C   UNL     1      44.948   2.484   9.203  0.00  0.00    +0.000 A 
ATOM     23  C   UNL     1      45.835   1.787   8.385  0.00  0.00    +0.000 A 
ATOM     24  C   UNL     1      46.602   2.510   7.485  0.00  0.00    +0.000 A 
ATOM     25  N   UNL     1      46.528   3.863   7.346  0.00  0.00    +0.000 NA
ATOM     26  C   UNL     1      45.648   4.495   8.165  0.00  0.00    +0.000 A 
BRANCH  24  27
ATOM     27  C   UNL     1      47.566   1.784   6.606  0.00  0.00    +0.000 C 
ATOM     28  N   UNL     1      48.753   2.427   6.381  0.00  0.00    +0.000 N 
ATOM     29  O   UNL     1      47.323   0.686   6.114  0.00  0.00    +0.000 OA
ATOM     30  H   UNL     1      48.913   3.338   6.794  0.00  0.00    +0.000 HD
ATOM     31  H   UNL     1      49.445   1.996   5.788  0.00  0.00    +0.000 HD
ENDBRANCH  24  27
ENDBRANCH  19  21
ENDBRANCH  18  19
ENDBRANCH  16  18
ENDBRANCH   3  16
BRANCH   5  32
ATOM     32  O   UNL     1      47.805   8.669  13.325  0.00  0.00    +0.000 OA
ATOM     33  C   UNL     1      48.093   9.027  11.978  0.00  0.00    +0.000 C 
ENDBRANCH   5  32
TORSDOF 8
ENDMDL
MODEL 4
REMARK VINA RESULT:    -7.224      2.362      2.832
REMARK INTER + INTRA:         -11.740
REMARK INTER:                 -10.569
REMARK INTRA:                  -1.170
REMARK UNBOUND:                -1.138
REMARK  Name = 
REMARK  12 active torsions:
REMARK  status: ('A' for Active; 'I' for Inactive)
REMARK    1  A    between atoms: C_1  and  O_2
REMARK    2  A    between atoms: O_2  and  C_3
REMARK    3  A    between atoms: C_5  and  C_6
REMARK    4  A    between atoms: C_6  and  C_7
REMARK    5  A    between atoms: C_6  and  C_8
REMARK    6  A    between atoms: C_8  and  N_9
REMARK    7  A    between atoms: N_9  and  C_10
REMARK    8  A    between atoms: C_13  and  C_14
REMARK    9  A    between atoms: C_20  and  O_21
REMARK   10  A    between atoms: O_21  and  C_22
REMARK   11  A    between atoms: C_23  and  C_24
REMARK   12  A    between atoms: C_28  and  C_29
REMARK                            x       y       z     vdW  Elec       q    Type
REMARK                         _______ _______ _______ _____ _____    ______ ____
ROOT
ATOM      1  C   UNL     1      48.113   7.749  12.260  0.00  0.00    +0.000 A 
ATOM      2  C   UNL     1      47.438   6.522  12.138  0.00  0.00    +0.000 A 
ATOM      3  C   UNL     1      46.050   6.461  11.962  0.00  0.00    +0.000 A 
ATOM      4  C   UNL     1      45.345   7.668  11.961  0.00  0.00    +0.000 A 
ATOM      5  C   UNL     1      45.989   8.905  12.090  0.00  0.00    +0.000 A 
ATOM      6  C   UNL     1      47.404   8.981  12.183  0.00  0.00    +0.000 A 
ENDROOT
BRANCH   6   7
ATOM      7  C   UNL     1      48.114  10.300  12.138  0.00  0.00    +0.000 A 
ATOM      8  C   UNL     1      48.438  11.025  13.290  0.00  0.00    +0.000 A 
ATOM      9  C   UNL     1      49.175  12.195  13.181  0.00  0.00    +0.000 A 
ATOM     10  N   UNL     1      49.572  12.734  12.011  0.00  0.00    +0.000 NA
ATOM     11  C   UNL     1      49.235  12.062  10.890  0.00  0.00    +0.000 A 
ATOM     12  C   UNL     1      49.630  12.663   9.575  0.00  0.00    +0.000 C 
ATOM     13  C   UNL     1      48.538  10.857  10.918  0.00  0.00    +0.000 A 
ENDBRANCH   6   7
BRANCH   1  15
ATOM     14  C   UNL     1      50.035   7.692  13.703  0.00  0.00    +0.000 C 
ATOM     15  O   UNL     1      49.480   7.816  12.400  0.00  0.00    +0.000 OA
ENDBRANCH   1  15
BRANCH   3  16
ATOM     16  C   UNL     1      45.376   5.106  11.747  0.00  0.00    +0.000 C 
ATOM     17  C   UNL     1      45.016   4.471  13.100  0.00  0.00    +0.000 C 
BRANCH  16  18
ATOM     18  C   UNL     1      44.090   5.120  10.882  0.00  0.00    +0.000 C 
BRANCH  18  19
ATOM     19  N   UNL     1      43.820   3.819  10.259  0.00  0.00    +0.000 N 
ATOM     20  H   UNL     1      42.842   3.688  10.005  0.00  0.00    +0.000 HD
BRANCH  19  21
ATOM     21  C   UNL     1      44.712   3.347   9.289  0.00  0.00    +0.000 A 
ATOM     22  C   UNL     1      45.320   4.184   8.347  0.00  0.00    +0.000 A 
ATOM     23  C   UNL     1      46.245   3.682   7.434  0.00  0.00    +0.000 A 
ATOM     24  C   UNL     1      46.574   2.338   7.508  0.00  0.00    +0.000 A 
ATOM     25  N   UNL     1      46.054   1.482   8.432  0.00  0.00    +0.000 NA
ATOM     26  C   UNL     1      45.158   2.021   9.299  0.00  0.00    +0.000 A 
BRANCH  24  27
ATOM     27  C   UNL     1      47.556   1.776   6.533  0.00  0.00    +0.000 C 
ATOM     28  N   UNL     1      48.695   2.513   6.358  0.00  0.00    +0.000 N 
ATOM     29  O   UNL     1      47.365   0.727   5.925  0.00  0.00    +0.000 OA
ATOM     30  H   UNL     1      48.812   3.380   6.868  0.00  0.00    +0.000 HD
ATOM     31  H   UNL     1      49.395   2.195   5.705  0.00  0.00    +0.000 HD
ENDBRANCH  24  27
ENDBRANCH  19  21
ENDBRANCH  18  19
ENDBRANCH  16  18
ENDBRANCH   3  16
BRANCH   5  32
ATOM     32  O   UNL     1      45.282  10.087  12.087  0.00  0.00    +0.000 OA
ATOM     33  C   UNL     1      44.340  10.283  11.038  0.00  0.00    +0.000 C 
ENDBRANCH   5  32
TORSDOF 8
ENDMDL
MODEL 5
REMARK VINA RESULT:    -7.076      2.800      7.659
REMARK INTER + INTRA:         -11.523
REMARK INTER:                  -9.904
REMARK INTRA:                  -1.619
REMARK UNBOUND:                -1.138
REMARK  Name = 
REMARK  12 active torsions:
REMARK  status: ('A' for Active; 'I' for Inactive)
REMARK    1  A    between atoms: C_1  and  O_2
REMARK    2  A    between atoms: O_2  and  C_3
REMARK    3  A    between atoms: C_5  and  C_6
REMARK    4  A    between atoms: C_6  and  C_7
REMARK    5  A    between atoms: C_6  and  C_8
REMARK    6  A    between atoms: C_8  and  N_9
REMARK    7  A    between atoms: N_9  and  C_10
REMARK    8  A    between atoms: C_13  and  C_14
REMARK    9  A    between atoms: C_20  and  O_21
REMARK   10  A    between atoms: O_21  and  C_22
REMARK   11  A    between atoms: C_23  and  C_24
REMARK   12  A    between atoms: C_28  and  C_29
REMARK                            x       y       z     vdW  Elec       q    Type
REMARK                         _______ _______ _______ _____ _____    ______ ____
ROOT
ATOM      1  C   UNL     1      47.380   5.697  13.432  0.00  0.00    +0.000 A 
ATOM      2  C   UNL     1      48.224   6.468  14.251  0.00  0.00    +0.000 A 
ATOM      3  C   UNL     1      48.043   7.848  14.402  0.00  0.00    +0.000 A 
ATOM      4  C   UNL     1      47.019   8.450  13.665  0.00  0.00    +0.000 A 
ATOM      5  C   UNL     1      46.169   7.710  12.832  0.00  0.00    +0.000 A 
ATOM      6  C   UNL     1      46.291   6.298  12.740  0.00  0.00    +0.000 A 
ENDROOT
BRANCH   6   7
ATOM      7  C   UNL     1      45.278   5.480  12.000  0.00  0.00    +0.000 A 
ATOM      8  C   UNL     1      44.097   5.019  12.592  0.00  0.00    +0.000 A 
ATOM      9  C   UNL     1      43.161   4.343  11.824  0.00  0.00    +0.000 A 
ATOM     10  N   UNL     1      43.328   4.037  10.522  0.00  0.00    +0.000 NA
ATOM     11  C   UNL     1      44.479   4.445   9.947  0.00  0.00    +0.000 A 
ATOM     12  C   UNL     1      44.707   4.082   8.511  0.00  0.00    +0.000 C 
ATOM     13  C   UNL     1      45.447   5.171  10.638  0.00  0.00    +0.000 A 
ENDBRANCH   6   7
BRANCH   1  15
ATOM     14  C   UNL     1      47.122   3.506  14.385  0.00  0.00    +0.000 C 
ATOM     15  O   UNL     1      47.533   4.336  13.307  0.00  0.00    +0.000 OA
ENDBRANCH   1  15
BRANCH   3  16
ATOM     16  C   UNL     1      48.932   8.625  15.373  0.00  0.00    +0.000 C 
ATOM     17  C   UNL     1      49.121  10.069  14.881  0.00  0.00    +0.000 C 
BRANCH  16  18
ATOM     18  C   UNL     1      48.434   8.692  16.839  0.00  0.00    +0.000 C 
BRANCH  18  19
ATOM     19  N   UNL     1      49.340   8.009  17.770  0.00  0.00    +0.000 N 
ATOM     20  H   UNL     1      49.244   8.327  18.733  0.00  0.00    +0.000 HD
BRANCH  19  21
ATOM     21  C   UNL     1      49.490   6.622  17.657  0.00  0.00    +0.000 A 
ATOM     22  C   UNL     1      48.422   5.730  17.807  0.00  0.00    +0.000 A 
ATOM     23  C   UNL     1      48.604   4.360  17.631  0.00  0.00    +0.000 A 
ATOM     24  C   UNL     1      49.863   3.908  17.268  0.00  0.00    +0.000 A 
ATOM     25  N   UNL     1      50.930   4.729  17.060  0.00  0.00    +0.000 NA
ATOM     26  C   UNL     1      50.700   6.056  17.242  0.00  0.00    +0.000 A 
BRANCH  24  27
ATOM     27  C   UNL     1      50.082   2.442  17.084  0.00  0.00    +0.000 C 
ATOM     28  N   UNL     1      51.003   1.878  17.923  0.00  0.00    +0.000 N 
ATOM     29  O   UNL     1      49.484   1.779  16.243  0.00  0.00    +0.000 OA
ATOM     30  H   UNL     1      51.487   2.459  18.597  0.00  0.00    +0.000 HD
ATOM     31  H   UNL     1      51.207   0.893  17.846  0.00  0.00    +0.000 HD
ENDBRANCH  24  27
ENDBRANCH  19  21
ENDBRANCH  18  19
ENDBRANCH  16  18
ENDBRANCH   3  16
BRANCH   5  32
ATOM     32  O   UNL     1      45.163   8.316  12.112  0.00  0.00    +0.000 OA
ATOM     33  C   UNL     1      45.257   9.722  11.913  0.00  0.00    +0.000 C 
ENDBRANCH   5  32
TORSDOF 8
ENDMDL
MODEL 6
REMARK VINA RESULT:    -6.769      2.718      8.276
REMARK INTER + INTRA:         -11.072
REMARK INTER:                  -9.422
REMARK INTRA:                  -1.650
REMARK UNBOUND:                -1.138
REMARK  Name = 
REMARK  12 active torsions:
REMARK  status: ('A' for Active; 'I' for Inactive)
REMARK    1  A    between atoms: C_1  and  O_2
REMARK    2  A    between atoms: O_2  and  C_3
REMARK    3  A    between atoms: C_5  and  C_6
REMARK    4  A    between atoms: C_6  and  C_7
REMARK    5  A    between atoms: C_6  and  C_8
REMARK    6  A    between atoms: C_8  and  N_9
REMARK    7  A    between atoms: N_9  and  C_10
REMARK    8  A    between atoms: C_13  and  C_14
REMARK    9  A    between atoms: C_20  and  O_21
REMARK   10  A    between atoms: O_21  and  C_22
REMARK   11  A    between atoms: C_23  and  C_24
REMARK   12  A    between atoms: C_28  and  C_29
REMARK                            x       y       z     vdW  Elec       q    Type
REMARK                         _______ _______ _______ _____ _____    ______ ____
ROOT
ATOM      1  C   UNL     1      46.186   8.027  12.577  0.00  0.00    +0.000 A 
ATOM      2  C   UNL     1      47.247   8.827  13.035  0.00  0.00    +0.000 A 
ATOM      3  C   UNL     1      48.393   8.268  13.615  0.00  0.00    +0.000 A 
ATOM      4  C   UNL     1      48.426   6.879  13.771  0.00  0.00    +0.000 A 
ATOM      5  C   UNL     1      47.380   6.057  13.333  0.00  0.00    +0.000 A 
ATOM      6  C   UNL     1      46.253   6.608  12.667  0.00  0.00    +0.000 A 
ENDROOT
BRANCH   6   7
ATOM      7  C   UNL     1      45.219   5.727  12.035  0.00  0.00    +0.000 A 
ATOM      8  C   UNL     1      44.061   5.318  12.706  0.00  0.00    +0.000 A 
ATOM      9  C   UNL     1      43.102   4.576  12.032  0.00  0.00    +0.000 A 
ATOM     10  N   UNL     1      43.225   4.160  10.756  0.00  0.00    +0.000 NA
ATOM     11  C   UNL     1      44.355   4.517  10.109  0.00  0.00    +0.000 A 
ATOM     12  C   UNL     1      44.534   4.031   8.703  0.00  0.00    +0.000 C 
ATOM     13  C   UNL     1      45.343   5.301  10.701  0.00  0.00    +0.000 A 
ENDBRANCH   6   7
BRANCH   1  15
ATOM     14  C   UNL     1      44.957   9.985  11.918  0.00  0.00    +0.000 C 
ATOM     15  O   UNL     1      45.074   8.569  11.976  0.00  0.00    +0.000 OA
ENDBRANCH   1  15
BRANCH   3  16
ATOM     16  C   UNL     1      49.556   9.176  14.016  0.00  0.00    +0.000 C 
ATOM     17  C   UNL     1      49.039  10.363  14.846  0.00  0.00    +0.000 C 
BRANCH  16  18
ATOM     18  C   UNL     1      50.693   8.501  14.824  0.00  0.00    +0.000 C 
BRANCH  18  19
ATOM     19  N   UNL     1      50.437   8.513  16.269  0.00  0.00    +0.000 N 
ATOM     20  H   UNL     1      49.969   9.359  16.589  0.00  0.00    +0.000 HD
BRANCH  19  21
ATOM     21  C   UNL     1      49.944   7.348  16.867  0.00  0.00    +0.000 A 
ATOM     22  C   UNL     1      48.739   7.311  17.578  0.00  0.00    +0.000 A 
ATOM     23  C   UNL     1      48.258   6.117  18.111  0.00  0.00    +0.000 A 
ATOM     24  C   UNL     1      48.985   4.959  17.885  0.00  0.00    +0.000 A 
ATOM     25  N   UNL     1      50.138   4.921  17.161  0.00  0.00    +0.000 NA
ATOM     26  C   UNL     1      50.565   6.110  16.663  0.00  0.00    +0.000 A 
BRANCH  24  27
ATOM     27  C   UNL     1      48.492   3.670  18.455  0.00  0.00    +0.000 C 
ATOM     28  N   UNL     1      48.516   3.586  19.821  0.00  0.00    +0.000 N 
ATOM     29  O   UNL     1      48.090   2.744  17.758  0.00  0.00    +0.000 OA
ATOM     30  H   UNL     1      48.867   4.366  20.363  0.00  0.00    +0.000 HD
ATOM     31  H   UNL     1      48.207   2.738  20.270  0.00  0.00    +0.000 HD
ENDBRANCH  24  27
ENDBRANCH  19  21
ENDBRANCH  18  19
ENDBRANCH  16  18
ENDBRANCH   3  16
BRANCH   5  32
ATOM     32  O   UNL     1      47.426   4.690  13.493  0.00  0.00    +0.000 OA
ATOM     33  C   UNL     1      47.072   4.167  14.768  0.00  0.00    +0.000 C 
ENDBRANCH   5  32
TORSDOF 8
ENDMDL
MODEL 7
REMARK VINA RESULT:    -6.461      3.561      5.991
REMARK INTER + INTRA:         -10.620
REMARK INTER:                  -9.308
REMARK INTRA:                  -1.311
REMARK UNBOUND:                -1.138
REMARK  Name = 
REMARK  12 active torsions:
REMARK  status: ('A' for Active; 'I' for Inactive)
REMARK    1  A    between atoms: C_1  and  O_2
REMARK    2  A    between atoms: O_2  and  C_3
REMARK    3  A    between atoms: C_5  and  C_6
REMARK    4  A    between atoms: C_6  and  C_7
REMARK    5  A    between atoms: C_6  and  C_8
REMARK    6  A    between atoms: C_8  and  N_9
REMARK    7  A    between atoms: N_9  and  C_10
REMARK    8  A    between atoms: C_13  and  C_14
REMARK    9  A    between atoms: C_20  and  O_21
REMARK   10  A    between atoms: O_21  and  C_22
REMARK   11  A    between atoms: C_23  and  C_24
REMARK   12  A    between atoms: C_28  and  C_29
REMARK                            x       y       z     vdW  Elec       q    Type
REMARK                         _______ _______ _______ _____ _____    ______ ____
ROOT
ATOM      1  C   UNL     1      48.730   8.361  16.737  0.00  0.00    +0.000 A 
ATOM      2  C   UNL     1      48.626   8.753  15.391  0.00  0.00    +0.000 A 
ATOM      3  C   UNL     1      48.471   7.816  14.361  0.00  0.00    +0.000 A 
ATOM      4  C   UNL     1      48.475   6.463  14.714  0.00  0.00    +0.000 A 
ATOM      5  C   UNL     1      48.587   6.042  16.045  0.00  0.00    +0.000 A 
ATOM      6  C   UNL     1      48.657   6.987  17.102  0.00  0.00    +0.000 A 
ENDROOT
BRANCH   6   7
ATOM      7  C   UNL     1      48.594   6.553  18.535  0.00  0.00    +0.000 A 
ATOM      8  C   UNL     1      47.402   6.530  19.268  0.00  0.00    +0.000 A 
ATOM      9  C   UNL     1      47.400   6.033  20.562  0.00  0.00    +0.000 A 
ATOM     10  N   UNL     1      48.501   5.605  21.211  0.00  0.00    +0.000 NA
ATOM     11  C   UNL     1      49.664   5.655  20.527  0.00  0.00    +0.000 A 
ATOM     12  C   UNL     1      50.909   5.223  21.241  0.00  0.00    +0.000 C 
ATOM     13  C   UNL     1      49.741   6.096  19.208  0.00  0.00    +0.000 A 
ENDBRANCH   6   7
BRANCH   1  15
ATOM     14  C   UNL     1      47.791  10.208  17.956  0.00  0.00    +0.000 C 
ATOM     15  O   UNL     1      48.849   9.279  17.755  0.00  0.00    +0.000 OA
ENDBRANCH   1  15
BRANCH   3  16
ATOM     16  C   UNL     1      48.274   8.299  12.925  0.00  0.00    +0.000 C 
ATOM     17  C   UNL     1      48.927   7.314  11.940  0.00  0.00    +0.000 C 
BRANCH  16  18
ATOM     18  C   UNL     1      46.805   8.503  12.476  0.00  0.00    +0.000 C 
BRANCH  18  19
ATOM     19  N   UNL     1      45.862   7.704  13.267  0.00  0.00    +0.000 N 
ATOM     20  H   UNL     1      45.162   8.266  13.749  0.00  0.00    +0.000 HD
BRANCH  19  21
ATOM     21  C   UNL     1      45.339   6.536  12.699  0.00  0.00    +0.000 A 
ATOM     22  C   UNL     1      45.020   6.431  11.341  0.00  0.00    +0.000 A 
ATOM     23  C   UNL     1      44.554   5.232  10.805  0.00  0.00    +0.000 A 
ATOM     24  C   UNL     1      44.449   4.136  11.647  0.00  0.00    +0.000 A 
ATOM     25  N   UNL     1      44.788   4.161  12.966  0.00  0.00    +0.000 NA
ATOM     26  C   UNL     1      45.238   5.353  13.439  0.00  0.00    +0.000 A 
BRANCH  24  27
ATOM     27  C   UNL     1      43.942   2.844  11.096  0.00  0.00    +0.000 C 
ATOM     28  N   UNL     1      44.659   2.331  10.050  0.00  0.00    +0.000 N 
ATOM     29  O   UNL     1      42.952   2.272  11.543  0.00  0.00    +0.000 OA
ATOM     30  H   UNL     1      45.463   2.837   9.700  0.00  0.00    +0.000 HD
ATOM     31  H   UNL     1      44.364   1.465   9.625  0.00  0.00    +0.000 HD
ENDBRANCH  24  27
ENDBRANCH  19  21
ENDBRANCH  18  19
ENDBRANCH  16  18
ENDBRANCH   3  16
BRANCH   5  32
ATOM     32  O   UNL     1      48.588   4.705  16.378  0.00  0.00    +0.000 OA
ATOM     33  C   UNL     1      47.364   3.993  16.231  0.00  0.00    +0.000 C 
ENDBRANCH   5  32
TORSDOF 8
ENDMDL
MODEL 8
REMARK VINA RESULT:    -6.364      3.019      8.465
REMARK INTER + INTRA:         -10.478
REMARK INTER:                  -9.217
REMARK INTRA:                  -1.261
REMARK UNBOUND:                -1.138
REMARK  Name = 
REMARK  12 active torsions:
REMARK  status: ('A' for Active; 'I' for Inactive)
REMARK    1  A    between atoms: C_1  and  O_2
REMARK    2  A    between atoms: O_2  and  C_3
REMARK    3  A    between atoms: C_5  and  C_6
REMARK    4  A    between atoms: C_6  and  C_7
REMARK    5  A    between atoms: C_6  and  C_8
REMARK    6  A    between atoms: C_8  and  N_9
REMARK    7  A    between atoms: N_9  and  C_10
REMARK    8  A    between atoms: C_13  and  C_14
REMARK    9  A    between atoms: C_20  and  O_21
REMARK   10  A    between atoms: O_21  and  C_22
REMARK   11  A    between atoms: C_23  and  C_24
REMARK   12  A    between atoms: C_28  and  C_29
REMARK                            x       y       z     vdW  Elec       q    Type
REMARK                         _______ _______ _______ _____ _____    ______ ____
ROOT
ATOM      1  C   UNL     1      47.245   5.592  13.423  0.00  0.00    +0.000 A 
ATOM      2  C   UNL     1      48.043   6.593  14.006  0.00  0.00    +0.000 A 
ATOM      3  C   UNL     1      47.835   7.951  13.734  0.00  0.00    +0.000 A 
ATOM      4  C   UNL     1      46.831   8.280  12.819  0.00  0.00    +0.000 A 
ATOM      5  C   UNL     1      46.026   7.304  12.215  0.00  0.00    +0.000 A 
ATOM      6  C   UNL     1      46.174   5.933  12.549  0.00  0.00    +0.000 A 
ENDROOT
BRANCH   6   7
ATOM      7  C   UNL     1      45.205   4.904  12.051  0.00  0.00    +0.000 A 
ATOM      8  C   UNL     1      44.091   4.493  12.790  0.00  0.00    +0.000 A 
ATOM      9  C   UNL     1      43.185   3.603  12.232  0.00  0.00    +0.000 A 
ATOM     10  N   UNL     1      43.326   3.045  11.013  0.00  0.00    +0.000 NA
ATOM     11  C   UNL     1      44.415   3.407  10.304  0.00  0.00    +0.000 A 
ATOM     12  C   UNL     1      44.615   2.768   8.962  0.00  0.00    +0.000 C 
ATOM     13  C   UNL     1      45.346   4.330  10.775  0.00  0.00    +0.000 A 
ENDBRANCH   6   7
BRANCH   1  15
ATOM     14  C   UNL     1      47.206   3.819  15.046  0.00  0.00    +0.000 C 
ATOM     15  O   UNL     1      47.425   4.259  13.712  0.00  0.00    +0.000 OA
ENDBRANCH   1  15
BRANCH   3  16
ATOM     16  C   UNL     1      48.671   9.003  14.461  0.00  0.00    +0.000 C 
ATOM     17  C   UNL     1      48.606  10.344  13.711  0.00  0.00    +0.000 C 
BRANCH  16  18
ATOM     18  C   UNL     1      48.284   9.274  15.937  0.00  0.00    +0.000 C 
BRANCH  18  19
ATOM     19  N   UNL     1      49.355   8.911  16.873  0.00  0.00    +0.000 N 
ATOM     20  H   UNL     1      49.765   9.713  17.348  0.00  0.00    +0.000 HD
BRANCH  19  21
ATOM     21  C   UNL     1      49.158   7.809  17.714  0.00  0.00    +0.000 A 
ATOM     22  C   UNL     1      48.304   7.844  18.821  0.00  0.00    +0.000 A 
ATOM     23  C   UNL     1      48.094   6.707  19.600  0.00  0.00    +0.000 A 
ATOM     24  C   UNL     1      48.727   5.532  19.226  0.00  0.00    +0.000 A 
ATOM     25  N   UNL     1      49.532   5.422  18.133  0.00  0.00    +0.000 NA
ATOM     26  C   UNL     1      49.703   6.557  17.406  0.00  0.00    +0.000 A 
BRANCH  24  27
ATOM     27  C   UNL     1      48.524   4.305  20.052  0.00  0.00    +0.000 C 
ATOM     28  N   UNL     1      48.378   3.141  19.347  0.00  0.00    +0.000 N 
ATOM     29  O   UNL     1      48.490   4.325  21.278  0.00  0.00    +0.000 OA
ATOM     30  H   UNL     1      48.399   3.165  18.334  0.00  0.00    +0.000 HD
ATOM     31  H   UNL     1      48.227   2.276  19.844  0.00  0.00    +0.000 HD
ENDBRANCH  24  27
ENDBRANCH  19  21
ENDBRANCH  18  19
ENDBRANCH  16  18
ENDBRANCH   3  16
BRANCH   5  32
ATOM     32  O   UNL     1      45.041   7.643  11.314  0.00  0.00    +0.000 OA
ATOM     33  C   UNL     1      44.525   8.968  11.377  0.00  0.00    +0.000 C 
ENDBRANCH   5  32
TORSDOF 8
ENDMDL
MODEL 9
REMARK VINA RESULT:    -6.311      3.579      5.824
REMARK INTER + INTRA:         -10.400
REMARK INTER:                  -9.231
REMARK INTRA:                  -1.169
REMARK UNBOUND:                -1.138
REMARK  Name = 
REMARK  12 active torsions:
REMARK  status: ('A' for Active; 'I' for Inactive)
REMARK    1  A    between atoms: C_1  and  O_2
REMARK    2  A    between atoms: O_2  and  C_3
REMARK    3  A    between atoms: C_5  and  C_6
REMARK    4  A    between atoms: C_6  and  C_7
REMARK    5  A    between atoms: C_6  and  C_8
REMARK    6  A    between atoms: C_8  and  N_9
REMARK    7  A    between atoms: N_9  and  C_10
REMARK    8  A    between atoms: C_13  and  C_14
REMARK    9  A    between atoms: C_20  and  O_21
REMARK   10  A    between atoms: O_21  and  C_22
REMARK   11  A    between atoms: C_23  and  C_24
REMARK   12  A    between atoms: C_28  and  C_29
REMARK                            x       y       z     vdW  Elec       q    Type
REMARK                         _______ _______ _______ _____ _____    ______ ____
ROOT
ATOM      1  C   UNL     1      48.678   5.936  16.162  0.00  0.00    +0.000 A 
ATOM      2  C   UNL     1      48.514   6.388  14.841  0.00  0.00    +0.000 A 
ATOM      3  C   UNL     1      48.464   7.754  14.532  0.00  0.00    +0.000 A 
ATOM      4  C   UNL     1      48.532   8.659  15.595  0.00  0.00    +0.000 A 
ATOM      5  C   UNL     1      48.685   8.238  16.923  0.00  0.00    +0.000 A 
ATOM      6  C   UNL     1      48.823   6.859  17.235  0.00  0.00    +0.000 A 
ENDROOT
BRANCH   6   7
ATOM      7  C   UNL     1      49.168   6.410  18.622  0.00  0.00    +0.000 A 
ATOM      8  C   UNL     1      50.485   6.195  19.043  0.00  0.00    +0.000 A 
ATOM      9  C   UNL     1      50.739   5.867  20.367  0.00  0.00    +0.000 A 
ATOM     10  N   UNL     1      49.783   5.680  21.298  0.00  0.00    +0.000 NA
ATOM     11  C   UNL     1      48.505   5.850  20.895  0.00  0.00    +0.000 A 
ATOM     12  C   UNL     1      47.422   5.608  21.902  0.00  0.00    +0.000 C 
ATOM     13  C   UNL     1      48.171   6.226  19.597  0.00  0.00    +0.000 A 
ENDBRANCH   6   7
BRANCH   1  15
ATOM     14  C   UNL     1      47.578   3.810  16.393  0.00  0.00    +0.000 C 
ATOM     15  O   UNL     1      48.760   4.597  16.467  0.00  0.00    +0.000 OA
ENDBRANCH   1  15
BRANCH   3  16
ATOM     16  C   UNL     1      48.374   8.194  13.072  0.00  0.00    +0.000 C 
ATOM     17  C   UNL     1      49.193   7.246  12.180  0.00  0.00    +0.000 C 
BRANCH  16  18
ATOM     18  C   UNL     1      46.946   8.277  12.477  0.00  0.00    +0.000 C 
BRANCH  18  19
ATOM     19  N   UNL     1      45.963   7.534  13.275  0.00  0.00    +0.000 N 
ATOM     20  H   UNL     1      45.288   8.134  13.746  0.00  0.00    +0.000 HD
BRANCH  19  21
ATOM     21  C   UNL     1      45.390   6.383  12.722  0.00  0.00    +0.000 A 
ATOM     22  C   UNL     1      44.812   6.361  11.448  0.00  0.00    +0.000 A 
ATOM     23  C   UNL     1      44.302   5.180  10.913  0.00  0.00    +0.000 A 
ATOM     24  C   UNL     1      44.415   4.020  11.662  0.00  0.00    +0.000 A 
ATOM     25  N   UNL     1      45.009   3.966  12.887  0.00  0.00    +0.000 NA
ATOM     26  C   UNL     1      45.491   5.143  13.363  0.00  0.00    +0.000 A 
BRANCH  24  27
ATOM     27  C   UNL     1      43.866   2.744  11.112  0.00  0.00    +0.000 C 
ATOM     28  N   UNL     1      44.512   2.256  10.009  0.00  0.00    +0.000 N 
ATOM     29  O   UNL     1      42.905   2.165  11.606  0.00  0.00    +0.000 OA
ATOM     30  H   UNL     1      45.295   2.768   9.621  0.00  0.00    +0.000 HD
ATOM     31  H   UNL     1      44.186   1.403   9.581  0.00  0.00    +0.000 HD
ENDBRANCH  24  27
ENDBRANCH  19  21
ENDBRANCH  18  19
ENDBRANCH  16  18
ENDBRANCH   3  16
BRANCH   5  32
ATOM     32  O   UNL     1      48.752   9.141  17.960  0.00  0.00    +0.000 OA
ATOM     33  C   UNL     1      47.830  10.225  17.943  0.00  0.00    +0.000 C 
ENDBRANCH   5  32
TORSDOF 8
ENDMDL
