MODEL 1
REMARK VINA RESULT:    -8.608      0.000      0.000
REMARK INTER + INTRA:         -13.429
REMARK INTER:                 -12.383
REMARK INTRA:                  -1.047
REMARK UNBOUND:                -1.047
REMARK  Name = 
REMARK  8 active torsions:
REMARK  status: ('A' for Active; 'I' for Inactive)
REMARK    1  A    between atoms: C_2  and  C_27
REMARK    2  A    between atoms: N_3  and  CA_4
REMARK    3  A    between atoms: CA_4  and  C_5
REMARK    4  A    between atoms: CA_4  and  C_7
REMARK    5  A    between atoms: C_5  and  O_6
REMARK    6  A    between atoms: C_11  and  C_12
REMARK    7  A    between atoms: C_12  and  N_13
REMARK    8  A    between atoms: C_14  and  C_16
REMARK                            x       y       z     vdW  Elec       q    Type
REMARK                         _______ _______ _______ _____ _____    ______ ____
ROOT
ATOM      1  C   UNL     1      44.907   7.140  11.676  0.00  0.00    +0.000 A 
ATOM      2  C   UNL     1      44.125   8.229  11.262  0.00  0.00    +0.000 A 
ATOM      3  C   UNL     1      44.511   9.537  11.558  0.00  0.00    +0.000 A 
ATOM      4  C   UNL     1      45.697   9.775  12.251  0.00  0.00    +0.000 A 
ATOM      5  C   UNL     1      46.526   8.707  12.618  0.00  0.00    +0.000 A 
ATOM      6  C   UNL     1      46.121   7.396  12.329  0.00  0.00    +0.000 A 
ENDROOT
BRANCH   1   7
ATOM      7  CA  UNL     1      44.420   5.710  11.523  0.00  0.00    +0.000 C 
BRANCH   7  10
ATOM      8  O   UNL     1      43.711   3.170  10.446  0.00  0.00    +0.000 OA
ATOM      9  C   UNL     1      44.700   3.757  10.024  0.00  0.00    +0.000 C 
ATOM     10  N   UNL     1      45.153   4.966  10.503  0.00  0.00    +0.000 N 
ATOM     11  H   UNL     1      45.641   5.554   9.837  0.00  0.00    +0.000 HD
BRANCH   9  12
ATOM     12  C   UNL     1      45.476   3.186   8.886  0.00  0.00    +0.000 A 
ATOM     13  C   UNL     1      45.903   4.040   7.860  0.00  0.00    +0.000 A 
ATOM     14  C   UNL     1      46.595   3.527   6.762  0.00  0.00    +0.000 A 
ATOM     15  C   UNL     1      46.854   2.159   6.680  0.00  0.00    +0.000 A 
ATOM     16  C   UNL     1      46.423   1.310   7.699  0.00  0.00    +0.000 A 
ATOM     17 CL   UNL     1      46.727  -0.381   7.584  0.00  0.00    +0.000 Cl
ATOM     18  C   UNL     1      45.737   1.813   8.803  0.00  0.00    +0.000 A 
ENDBRANCH   9  12
ENDBRANCH   7  10
BRANCH   7  19
ATOM     19  C   UNL     1      42.914   5.729  11.168  0.00  0.00    +0.000 C 
BRANCH  19  20
ATOM     20  O   UNL     1      42.152   5.026  12.152  0.00  0.00    +0.000 OA
ATOM     21  H   UNL     1      41.346   4.705  11.709  0.00  0.00    +0.000 HD
ENDBRANCH  19  20
ENDBRANCH   7  19
ENDBRANCH   1   7
BRANCH   5  22
ATOM     22  C   UNL     1      47.808   8.951  13.365  0.00  0.00    +0.000 C 
BRANCH  22  23
ATOM     23  N   UNL     1      47.914   8.078  14.509  0.00  0.00    +0.000 N 
ATOM     24  C   UNL     1      49.079   7.436  14.839  0.00  0.00    +0.000 C 
ATOM     25  O   UNL     1      50.117   7.588  14.199  0.00  0.00    +0.000 OA
ATOM     26  H   UNL     1      47.040   7.758  14.911  0.00  0.00    +0.000 HD
BRANCH  24  27
ATOM     27  C   UNL     1      49.047   6.597  16.042  0.00  0.00    +0.000 A 
ATOM     28  C   UNL     1      49.825   6.948  17.136  0.00  0.00    +0.000 A 
ATOM     29  S   UNL     1      49.639   5.907  18.472  0.00  0.00    +0.000 S 
ATOM     30  C   UNL     1      48.549   4.919  17.619  0.00  0.00    +0.000 A 
ATOM     31  N   UNL     1      48.012   3.811  18.198  0.00  0.00    +0.000 NA
ATOM     32  C   UNL     1      47.227   3.134  17.429  0.00  0.00    +0.000 A 
ATOM     33  N   UNL     1      46.929   3.466  16.136  0.00  0.00    +0.000 N 
ATOM     34  C   UNL     1      47.407   4.600  15.523  0.00  0.00    +0.000 A 
ATOM     35  O   UNL     1      47.055   4.907  14.388  0.00  0.00    +0.000 OA
ATOM     36  C   UNL     1      48.317   5.387  16.337  0.00  0.00    +0.000 A 
ATOM     37  H   UNL     1      46.292   2.900  15.590  0.00  0.00    +0.000 HD
ENDBRANCH  24  27
ENDBRANCH  22  23
ENDBRANCH   5  22
TORSDOF 8
ENDMDL
MODEL 2
REMARK VINA RESULT:    -8.181      2.225      3.436
REMARK INTER + INTRA:         -12.816
REMARK INTER:                 -12.278
REMARK INTRA:                  -0.538
REMARK UNBOUND:                -1.047
REMARK  Name = 
REMARK  8 active torsions:
REMARK  status: ('A' for Active; 'I' for Inactive)
REMARK    1  A    between atoms: C_2  and  C_27
REMARK    2  A    between atoms: N_3  and  CA_4
REMARK    3  A    between atoms: CA_4  and  C_5
REMARK    4  A    between atoms: CA_4  and  C_7
REMARK    5  A    between atoms: C_5  and  O_6
REMARK    6  A    between atoms: C_11  and  C_12
REMARK    7  A    between atoms: C_12  and  N_13
REMARK    8  A    between atoms: C_14  and  C_16
REMARK                            x       y       z     vdW  Elec       q    Type
REMARK                         _______ _______ _______ _____ _____    ______ ____
ROOT
ATOM      1  C   UNL     1      45.369   4.697  11.790  0.00  0.00    +0.000 A 
ATOM      2  C   UNL     1      45.751   6.045  11.718  0.00  0.00    +0.000 A 
ATOM      3  C   UNL     1      46.607   6.595  12.673  0.00  0.00    +0.000 A 
ATOM      4  C   UNL     1      47.114   5.799  13.698  0.00  0.00    +0.000 A 
ATOM      5  C   UNL     1      46.798   4.435  13.753  0.00  0.00    +0.000 A 
ATOM      6  C   UNL     1      45.923   3.896  12.798  0.00  0.00    +0.000 A 
ENDROOT
BRANCH   1   7
ATOM      7  CA  UNL     1      44.303   4.124  10.873  0.00  0.00    +0.000 C 
BRANCH   7  10
ATOM      8  O   UNL     1      45.701   5.085   8.585  0.00  0.00    +0.000 OA
ATOM      9  C   UNL     1      45.551   3.880   8.746  0.00  0.00    +0.000 C 
ATOM     10  N   UNL     1      44.858   3.314   9.793  0.00  0.00    +0.000 N 
ATOM     11  H   UNL     1      45.167   2.394  10.087  0.00  0.00    +0.000 HD
BRANCH   9  12
ATOM     12  C   UNL     1      46.179   2.918   7.797  0.00  0.00    +0.000 A 
ATOM     13  C   UNL     1      46.635   3.387   6.557  0.00  0.00    +0.000 A 
ATOM     14  C   UNL     1      47.190   2.501   5.632  0.00  0.00    +0.000 A 
ATOM     15  C   UNL     1      47.281   1.142   5.937  0.00  0.00    +0.000 A 
ATOM     16  C   UNL     1      46.822   0.677   7.169  0.00  0.00    +0.000 A 
ATOM     17 CL   UNL     1      46.919  -1.002   7.534  0.00  0.00    +0.000 Cl
ATOM     18  C   UNL     1      46.273   1.554   8.103  0.00  0.00    +0.000 A 
ENDBRANCH   9  12
ENDBRANCH   7  10
BRANCH   7  19
ATOM     19  C   UNL     1      43.478   5.288  10.276  0.00  0.00    +0.000 C 
BRANCH  19  20
ATOM     20  O   UNL     1      42.358   5.597  11.110  0.00  0.00    +0.000 OA
ATOM     21  H   UNL     1      41.988   6.438  10.787  0.00  0.00    +0.000 HD
ENDBRANCH  19  20
ENDBRANCH   7  19
ENDBRANCH   1   7
BRANCH   5  22
ATOM     22  C   UNL     1      47.338   3.565  14.855  0.00  0.00    +0.000 C 
BRANCH  22  23
ATOM     23  N   UNL     1      47.768   4.361  15.978  0.00  0.00    +0.000 N 
ATOM     24  C   UNL     1      47.337   4.124  17.258  0.00  0.00    +0.000 C 
ATOM     25  O   UNL     1      46.579   3.197  17.533  0.00  0.00    +0.000 OA
ATOM     26  H   UNL     1      48.199   5.252  15.758  0.00  0.00    +0.000 HD
BRANCH  24  27
ATOM     27  C   UNL     1      47.876   4.999  18.304  0.00  0.00    +0.000 A 
ATOM     28  C   UNL     1      47.000   5.717  19.107  0.00  0.00    +0.000 A 
ATOM     29  S   UNL     1      47.774   6.645  20.307  0.00  0.00    +0.000 S 
ATOM     30  C   UNL     1      49.312   6.162  19.765  0.00  0.00    +0.000 A 
ATOM     31  N   UNL     1      50.440   6.625  20.367  0.00  0.00    +0.000 NA
ATOM     32  C   UNL     1      51.539   6.205  19.835  0.00  0.00    +0.000 A 
ATOM     33  N   UNL     1      51.611   5.363  18.760  0.00  0.00    +0.000 N 
ATOM     34  C   UNL     1      50.500   4.829  18.149  0.00  0.00    +0.000 A 
ATOM     35  O   UNL     1      50.605   4.015  17.237  0.00  0.00    +0.000 OA
ATOM     36  C   UNL     1      49.235   5.289  18.693  0.00  0.00    +0.000 A 
ATOM     37  H   UNL     1      52.506   5.058  18.400  0.00  0.00    +0.000 HD
ENDBRANCH  24  27
ENDBRANCH  22  23
ENDBRANCH   5  22
TORSDOF 8
ENDMDL
MODEL 3
REMARK VINA RESULT:    -8.044      1.663      2.019
REMARK INTER + INTRA:         -12.617
REMARK INTER:                 -11.476
REMARK INTRA:                  -1.142
REMARK UNBOUND:                -1.047
REMARK  Name = 
REMARK  8 active torsions:
REMARK  status: ('A' for Active; 'I' for Inactive)
REMARK    1  A    between atoms: C_2  and  C_27
REMARK    2  A    between atoms: N_3  and  CA_4
REMARK    3  A    between atoms: CA_4  and  C_5
REMARK    4  A    between atoms: CA_4  and  C_7
REMARK    5  A    between atoms: C_5  and  O_6
REMARK    6  A    between atoms: C_11  and  C_12
REMARK    7  A    between atoms: C_12  and  N_13
REMARK    8  A    between atoms: C_14  and  C_16
REMARK                            x       y       z     vdW  Elec       q    Type
REMARK                         _______ _______ _______ _____ _____    ______ ____
ROOT
ATOM      1  C   UNL     1      45.352   6.596  12.169  0.00  0.00    +0.000 A 
ATOM      2  C   UNL     1      44.837   7.902  12.160  0.00  0.00    +0.000 A 
ATOM      3  C   UNL     1      45.508   8.936  12.813  0.00  0.00    +0.000 A 
ATOM      4  C   UNL     1      46.715   8.685  13.462  0.00  0.00    +0.000 A 
ATOM      5  C   UNL     1      47.281   7.404  13.429  0.00  0.00    +0.000 A 
ATOM      6  C   UNL     1      46.590   6.367  12.784  0.00  0.00    +0.000 A 
ENDROOT
BRANCH   1   7
ATOM      7  CA  UNL     1      44.554   5.425  11.623  0.00  0.00    +0.000 C 
BRANCH   7  10
ATOM      8  O   UNL     1      43.703   3.013  10.368  0.00  0.00    +0.000 OA
ATOM      9  C   UNL     1      44.734   3.561   9.999  0.00  0.00    +0.000 C 
ATOM     10  N   UNL     1      45.255   4.704  10.564  0.00  0.00    +0.000 N 
ATOM     11  H   UNL     1      45.791   5.303   9.946  0.00  0.00    +0.000 HD
BRANCH   9  12
ATOM     12  C   UNL     1      45.491   3.019   8.835  0.00  0.00    +0.000 A 
ATOM     13  C   UNL     1      45.839   3.884   7.789  0.00  0.00    +0.000 A 
ATOM     14  C   UNL     1      46.511   3.396   6.668  0.00  0.00    +0.000 A 
ATOM     15  C   UNL     1      46.829   2.039   6.582  0.00  0.00    +0.000 A 
ATOM     16  C   UNL     1      46.477   1.179   7.622  0.00  0.00    +0.000 A 
ATOM     17 CL   UNL     1      46.853  -0.496   7.505  0.00  0.00    +0.000 Cl
ATOM     18  C   UNL     1      45.812   1.658   8.749  0.00  0.00    +0.000 A 
ENDBRANCH   9  12
ENDBRANCH   7  10
BRANCH   7  19
ATOM     19  C   UNL     1      43.201   5.948  11.085  0.00  0.00    +0.000 C 
BRANCH  19  20
ATOM     20  O   UNL     1      42.109   5.270  11.711  0.00  0.00    +0.000 OA
ATOM     21  H   UNL     1      41.565   5.951  12.145  0.00  0.00    +0.000 HD
ENDBRANCH  19  20
ENDBRANCH   7  19
ENDBRANCH   1   7
BRANCH   5  22
ATOM     22  C   UNL     1      48.583   7.121  14.126  0.00  0.00    +0.000 C 
BRANCH  22  23
ATOM     23  N   UNL     1      48.382   6.935  15.542  0.00  0.00    +0.000 N 
ATOM     24  C   UNL     1      48.847   7.825  16.476  0.00  0.00    +0.000 C 
ATOM     25  O   UNL     1      49.438   8.856  16.162  0.00  0.00    +0.000 OA
ATOM     26  H   UNL     1      48.109   6.004  15.838  0.00  0.00    +0.000 HD
BRANCH  24  27
ATOM     27  C   UNL     1      48.549   7.519  17.879  0.00  0.00    +0.000 A 
ATOM     28  C   UNL     1      48.000   8.504  18.687  0.00  0.00    +0.000 A 
ATOM     29  S   UNL     1      47.663   7.981  20.273  0.00  0.00    +0.000 S 
ATOM     30  C   UNL     1      48.286   6.432  19.952  0.00  0.00    +0.000 A 
ATOM     31  N   UNL     1      48.313   5.477  20.921  0.00  0.00    +0.000 NA
ATOM     32  C   UNL     1      48.842   4.358  20.552  0.00  0.00    +0.000 A 
ATOM     33  N   UNL     1      49.343   4.108  19.304  0.00  0.00    +0.000 N 
ATOM     34  C   UNL     1      49.293   5.023  18.279  0.00  0.00    +0.000 A 
ATOM     35  O   UNL     1      49.681   4.735  17.150  0.00  0.00    +0.000 OA
ATOM     36  C   UNL     1      48.729   6.310  18.647  0.00  0.00    +0.000 A 
ATOM     37  H   UNL     1      49.731   3.203  19.074  0.00  0.00    +0.000 HD
ENDBRANCH  24  27
ENDBRANCH  22  23
ENDBRANCH   5  22
TORSDOF 8
ENDMDL
MODEL 4
REMARK VINA RESULT:    -7.910      1.534      2.337
REMARK INTER + INTRA:         -12.425
REMARK INTER:                 -10.868
REMARK INTRA:                  -1.557
REMARK UNBOUND:                -1.047
REMARK  Name = 
REMARK  8 active torsions:
REMARK  status: ('A' for Active; 'I' for Inactive)
REMARK    1  A    between atoms: C_2  and  C_27
REMARK    2  A    between atoms: N_3  and  CA_4
REMARK    3  A    between atoms: CA_4  and  C_5
REMARK    4  A    between atoms: CA_4  and  C_7
REMARK    5  A    between atoms: C_5  and  O_6
REMARK    6  A    between atoms: C_11  and  C_12
REMARK    7  A    between atoms: C_12  and  N_13
REMARK    8  A    between atoms: C_14  and  C_16
REMARK                            x       y       z     vdW  Elec       q    Type
REMARK                         _______ _______ _______ _____ _____    ______ ____
ROOT
ATOM      1  C   UNL     1      46.307   8.823  11.892  0.00  0.00    +0.000 A 
ATOM      2  C   UNL     1      46.356  10.226  11.926  0.00  0.00    +0.000 A 
ATOM      3  C   UNL     1      47.538  10.889  12.257  0.00  0.00    +0.000 A 
ATOM      4  C   UNL     1      48.694  10.161  12.533  0.00  0.00    +0.000 A 
ATOM      5  C   UNL     1      48.685   8.763  12.442  0.00  0.00    +0.000 A 
ATOM      6  C   UNL     1      47.488   8.105  12.124  0.00  0.00    +0.000 A 
ENDROOT
BRANCH   1   7
ATOM      7  CA  UNL     1      44.996   8.080  11.711  0.00  0.00    +0.000 C 
BRANCH   7  10
ATOM      8  O   UNL     1      44.409   5.415  12.530  0.00  0.00    +0.000 OA
ATOM      9  C   UNL     1      44.784   5.633  11.385  0.00  0.00    +0.000 C 
ATOM     10  N   UNL     1      45.133   6.874  10.901  0.00  0.00    +0.000 N 
ATOM     11  H   UNL     1      44.978   7.025   9.910  0.00  0.00    +0.000 HD
BRANCH   9  12
ATOM     12  C   UNL     1      44.844   4.518  10.396  0.00  0.00    +0.000 A 
ATOM     13  C   UNL     1      44.238   3.295  10.714  0.00  0.00    +0.000 A 
ATOM     14  C   UNL     1      44.314   2.221   9.826  0.00  0.00    +0.000 A 
ATOM     15  C   UNL     1      45.004   2.362   8.621  0.00  0.00    +0.000 A 
ATOM     16  C   UNL     1      45.610   3.578   8.308  0.00  0.00    +0.000 A 
ATOM     17 CL   UNL     1      46.477   3.742   6.830  0.00  0.00    +0.000 Cl
ATOM     18  C   UNL     1      45.535   4.659   9.186  0.00  0.00    +0.000 A 
ENDBRANCH   9  12
ENDBRANCH   7  10
BRANCH   7  19
ATOM     19  C   UNL     1      43.967   9.031  11.055  0.00  0.00    +0.000 C 
BRANCH  19  20
ATOM     20  O   UNL     1      42.707   8.377  10.887  0.00  0.00    +0.000 OA
ATOM     21  H   UNL     1      42.194   8.909  10.252  0.00  0.00    +0.000 HD
ENDBRANCH  19  20
ENDBRANCH   7  19
ENDBRANCH   1   7
BRANCH   5  22
ATOM     22  C   UNL     1      49.926   7.966  12.738  0.00  0.00    +0.000 C 
BRANCH  22  23
ATOM     23  N   UNL     1      49.737   7.124  13.893  0.00  0.00    +0.000 N 
ATOM     24  C   UNL     1      49.804   7.605  15.175  0.00  0.00    +0.000 C 
ATOM     25  O   UNL     1      50.000   8.793  15.420  0.00  0.00    +0.000 OA
ATOM     26  H   UNL     1      49.802   6.124  13.735  0.00  0.00    +0.000 HD
BRANCH  24  27
ATOM     27  C   UNL     1      49.568   6.638  16.252  0.00  0.00    +0.000 A 
ATOM     28  C   UNL     1      50.329   6.711  17.410  0.00  0.00    +0.000 A 
ATOM     29  S   UNL     1      49.902   5.556  18.586  0.00  0.00    +0.000 S 
ATOM     30  C   UNL     1      48.718   4.880  17.569  0.00  0.00    +0.000 A 
ATOM     31  N   UNL     1      47.977   3.813  17.975  0.00  0.00    +0.000 NA
ATOM     32  C   UNL     1      47.139   3.380  17.094  0.00  0.00    +0.000 A 
ATOM     33  N   UNL     1      46.972   3.919  15.848  0.00  0.00    +0.000 N 
ATOM     34  C   UNL     1      47.661   5.026  15.411  0.00  0.00    +0.000 A 
ATOM     35  O   UNL     1      47.428   5.529  14.316  0.00  0.00    +0.000 OA
ATOM     36  C   UNL     1      48.637   5.540  16.356  0.00  0.00    +0.000 A 
ATOM     37  H   UNL     1      46.285   3.542  15.208  0.00  0.00    +0.000 HD
ENDBRANCH  24  27
ENDBRANCH  22  23
ENDBRANCH   5  22
TORSDOF 8
ENDMDL
MODEL 5
REMARK VINA RESULT:    -7.899      3.328      6.304
REMARK INTER + INTRA:         -12.409
REMARK INTER:                 -10.436
REMARK INTRA:                  -1.974
REMARK UNBOUND:                -1.047
REMARK  Name = 
REMARK  8 active torsions:
REMARK  status: ('A' for Active; 'I' for Inactive)
REMARK    1  A    between atoms: C_2  and  C_27
REMARK    2  A    between atoms: N_3  and  CA_4
REMARK    3  A    between atoms: CA_4  and  C_5
REMARK    4  A    between atoms: CA_4  and  C_7
REMARK    5  A    between atoms: C_5  and  O_6
REMARK    6  A    between atoms: C_11  and  C_12
REMARK    7  A    between atoms: C_12  and  N_13
REMARK    8  A    between atoms: C_14  and  C_16
REMARK                            x       y       z     vdW  Elec       q    Type
REMARK                         _______ _______ _______ _____ _____    ______ ____
ROOT
ATOM      1  C   UNL     1      48.801   5.856  16.562  0.00  0.00    +0.000 A 
ATOM      2  C   UNL     1      49.226   6.138  17.870  0.00  0.00    +0.000 A 
ATOM      3  C   UNL     1      50.216   7.092  18.107  0.00  0.00    +0.000 A 
ATOM      4  C   UNL     1      50.778   7.795  17.043  0.00  0.00    +0.000 A 
ATOM      5  C   UNL     1      50.324   7.577  15.735  0.00  0.00    +0.000 A 
ATOM      6  C   UNL     1      49.340   6.604  15.506  0.00  0.00    +0.000 A 
ENDROOT
BRANCH   1   7
ATOM      7  CA  UNL     1      47.860   4.703  16.266  0.00  0.00    +0.000 C 
BRANCH   7  10
ATOM      8  O   UNL     1      47.379   2.946  14.075  0.00  0.00    +0.000 OA
ATOM      9  C   UNL     1      46.798   4.022  14.133  0.00  0.00    +0.000 C 
ATOM     10  N   UNL     1      46.988   4.960  15.123  0.00  0.00    +0.000 N 
ATOM     11  H   UNL     1      46.191   5.548  15.339  0.00  0.00    +0.000 HD
BRANCH   9  12
ATOM     12  C   UNL     1      45.772   4.370  13.108  0.00  0.00    +0.000 A 
ATOM     13  C   UNL     1      44.981   5.512  13.300  0.00  0.00    +0.000 A 
ATOM     14  C   UNL     1      43.985   5.839  12.379  0.00  0.00    +0.000 A 
ATOM     15  C   UNL     1      43.768   5.022  11.269  0.00  0.00    +0.000 A 
ATOM     16  C   UNL     1      44.552   3.884  11.082  0.00  0.00    +0.000 A 
ATOM     17 CL   UNL     1      44.269   2.869   9.722  0.00  0.00    +0.000 Cl
ATOM     18  C   UNL     1      45.554   3.552  11.993  0.00  0.00    +0.000 A 
ENDBRANCH   9  12
ENDBRANCH   7  10
BRANCH   7  19
ATOM     19  C   UNL     1      46.999   4.423  17.520  0.00  0.00    +0.000 C 
BRANCH  19  20
ATOM     20  O   UNL     1      46.601   3.051  17.567  0.00  0.00    +0.000 OA
ATOM     21  H   UNL     1      47.003   2.613  16.796  0.00  0.00    +0.000 HD
ENDBRANCH  19  20
ENDBRANCH   7  19
ENDBRANCH   1   7
BRANCH   5  22
ATOM     22  C   UNL     1      50.923   8.329  14.579  0.00  0.00    +0.000 C 
BRANCH  22  23
ATOM     23  N   UNL     1      49.919   9.102  13.890  0.00  0.00    +0.000 N 
ATOM     24  C   UNL     1      49.791   9.095  12.525  0.00  0.00    +0.000 C 
ATOM     25  O   UNL     1      50.505   8.403  11.803  0.00  0.00    +0.000 OA
ATOM     26  H   UNL     1      49.477   9.842  14.425  0.00  0.00    +0.000 HD
BRANCH  24  27
ATOM     27  C   UNL     1      48.711   9.913  11.963  0.00  0.00    +0.000 A 
ATOM     28  C   UNL     1      49.026  10.968  11.119  0.00  0.00    +0.000 A 
ATOM     29  S   UNL     1      47.664  11.787  10.507  0.00  0.00    +0.000 S 
ATOM     30  C   UNL     1      46.603  10.794  11.390  0.00  0.00    +0.000 A 
ATOM     31  N   UNL     1      45.257  10.982  11.327  0.00  0.00    +0.000 NA
ATOM     32  C   UNL     1      44.571  10.181  12.071  0.00  0.00    +0.000 A 
ATOM     33  N   UNL     1      45.108   9.208  12.868  0.00  0.00    +0.000 N 
ATOM     34  C   UNL     1      46.457   8.947  12.928  0.00  0.00    +0.000 A 
ATOM     35  O   UNL     1      46.896   8.014  13.594  0.00  0.00    +0.000 OA
ATOM     36  C   UNL     1      47.279   9.838  12.127  0.00  0.00    +0.000 A 
ATOM     37  H   UNL     1      44.513   8.601  13.417  0.00  0.00    +0.000 HD
ENDBRANCH  24  27
ENDBRANCH  22  23
ENDBRANCH   5  22
TORSDOF 8
ENDMDL
MODEL 6
REMARK VINA RESULT:    -7.866      4.110      8.206
REMARK INTER + INTRA:         -12.361
REMARK INTER:                 -12.113
REMARK INTRA:                  -0.249
REMARK UNBOUND:                -1.047
REMARK  Name = 
REMARK  8 active torsions:
REMARK  status: ('A' for Active; 'I' for Inactive)
REMARK    1  A    between atoms: C_2  and  C_27
REMARK    2  A    between atoms: N_3  and  CA_4
REMARK    3  A    between atoms: CA_4  and  C_5
REMARK    4  A    between atoms: CA_4  and  C_7
REMARK    5  A    between atoms: C_5  and  O_6
REMARK    6  A    between atoms: C_11  and  C_12
REMARK    7  A    between atoms: C_12  and  N_13
REMARK    8  A    between atoms: C_14  and  C_16
REMARK                            x       y       z     vdW  Elec       q    Type
REMARK                         _______ _______ _______ _____ _____    ______ ____
ROOT
ATOM      1  C   UNL     1      48.537   5.075  18.230  0.00  0.00    +0.000 A 
ATOM      2  C   UNL     1      48.440   5.990  19.290  0.00  0.00    +0.000 A 
ATOM      3  C   UNL     1      48.507   7.363  19.053  0.00  0.00    +0.000 A 
ATOM      4  C   UNL     1      48.646   7.842  17.752  0.00  0.00    +0.000 A 
ATOM      5  C   UNL     1      48.680   6.950  16.672  0.00  0.00    +0.000 A 
ATOM      6  C   UNL     1      48.628   5.571  16.922  0.00  0.00    +0.000 A 
ENDROOT
BRANCH   1   7
ATOM      7  CA  UNL     1      48.646   3.581  18.479  0.00  0.00    +0.000 C 
BRANCH   7  10
ATOM      8  O   UNL     1      49.972   2.051  16.475  0.00  0.00    +0.000 OA
ATOM      9  C   UNL     1      50.583   2.407  17.475  0.00  0.00    +0.000 C 
ATOM     10  N   UNL     1      50.028   3.112  18.519  0.00  0.00    +0.000 N 
ATOM     11  H   UNL     1      50.656   3.726  19.026  0.00  0.00    +0.000 HD
BRANCH   9  12
ATOM     12  C   UNL     1      52.041   2.120  17.598  0.00  0.00    +0.000 A 
ATOM     13  C   UNL     1      52.919   3.174  17.884  0.00  0.00    +0.000 A 
ATOM     14  C   UNL     1      54.293   2.943  17.964  0.00  0.00    +0.000 A 
ATOM     15  C   UNL     1      54.796   1.659  17.748  0.00  0.00    +0.000 A 
ATOM     16  C   UNL     1      53.922   0.612  17.459  0.00  0.00    +0.000 A 
ATOM     17 CL   UNL     1      54.548  -0.966  17.174  0.00  0.00    +0.000 Cl
ATOM     18  C   UNL     1      52.547   0.832  17.383  0.00  0.00    +0.000 A 
ENDBRANCH   9  12
ENDBRANCH   7  10
BRANCH   7  19
ATOM     19  C   UNL     1      47.876   2.830  17.367  0.00  0.00    +0.000 C 
BRANCH  19  20
ATOM     20  O   UNL     1      46.471   2.833  17.632  0.00  0.00    +0.000 OA
ATOM     21  H   UNL     1      46.035   2.456  16.847  0.00  0.00    +0.000 HD
ENDBRANCH  19  20
ENDBRANCH   7  19
ENDBRANCH   1   7
BRANCH   5  22
ATOM     22  C   UNL     1      48.829   7.454  15.263  0.00  0.00    +0.000 C 
BRANCH  22  23
ATOM     23  N   UNL     1      47.648   7.174  14.485  0.00  0.00    +0.000 N 
ATOM     24  C   UNL     1      47.666   6.352  13.388  0.00  0.00    +0.000 C 
ATOM     25  O   UNL     1      48.686   5.777  13.016  0.00  0.00    +0.000 OA
ATOM     26  H   UNL     1      46.861   7.799  14.623  0.00  0.00    +0.000 HD
BRANCH  24  27
ATOM     27  C   UNL     1      46.384   6.140  12.706  0.00  0.00    +0.000 A 
ATOM     28  C   UNL     1      45.730   7.223  12.137  0.00  0.00    +0.000 A 
ATOM     29  S   UNL     1      44.284   6.808  11.338  0.00  0.00    +0.000 S 
ATOM     30  C   UNL     1      44.452   5.172  11.769  0.00  0.00    +0.000 A 
ATOM     31  N   UNL     1      43.516   4.255  11.403  0.00  0.00    +0.000 NA
ATOM     32  C   UNL     1      43.751   3.057  11.823  0.00  0.00    +0.000 A 
ATOM     33  N   UNL     1      44.836   2.693  12.572  0.00  0.00    +0.000 N 
ATOM     34  C   UNL     1      45.833   3.572  12.924  0.00  0.00    +0.000 A 
ATOM     35  O   UNL     1      46.831   3.193  13.528  0.00  0.00    +0.000 OA
ATOM     36  C   UNL     1      45.607   4.942  12.497  0.00  0.00    +0.000 A 
ATOM     37  H   UNL     1      44.970   1.732  12.856  0.00  0.00    +0.000 HD
ENDBRANCH  24  27
ENDBRANCH  22  23
ENDBRANCH   5  22
TORSDOF 8
ENDMDL
MODEL 7
REMARK VINA RESULT:    -7.785      2.203      3.417
REMARK INTER + INTRA:         -12.245
REMARK INTER:                 -12.023
REMARK INTRA:                  -0.222
REMARK UNBOUND:                -1.047
REMARK  Name = 
REMARK  8 active torsions:
REMARK  status: ('A' for Active; 'I' for Inactive)
REMARK    1  A    between atoms: C_2  and  C_27
REMARK    2  A    between atoms: N_3  and  CA_4
REMARK    3  A    between atoms: CA_4  and  C_5
REMARK    4  A    between atoms: CA_4  and  C_7
REMARK    5  A    between atoms: C_5  and  O_6
REMARK    6  A    between atoms: C_11  and  C_12
REMARK    7  A    between atoms: C_12  and  N_13
REMARK    8  A    between atoms: C_14  and  C_16
REMARK                            x       y       z     vdW  Elec       q    Type
REMARK                         _______ _______ _______ _____ _____    ______ ____
ROOT
ATOM      1  C   UNL     1      45.368   4.760  12.006  0.00  0.00    +0.000 A 
ATOM      2  C   UNL     1      45.741   6.076  11.695  0.00  0.00    +0.000 A 
ATOM      3  C   UNL     1      46.592   6.793  12.537  0.00  0.00    +0.000 A 
ATOM      4  C   UNL     1      47.101   6.196  13.689  0.00  0.00    +0.000 A 
ATOM      5  C   UNL     1      46.794   4.862  13.986  0.00  0.00    +0.000 A 
ATOM      6  C   UNL     1      45.925   4.155  13.142  0.00  0.00    +0.000 A 
ENDROOT
BRANCH   1   7
ATOM      7  CA  UNL     1      44.308   4.025  11.205  0.00  0.00    +0.000 C 
BRANCH   7  10
ATOM      8  O   UNL     1      45.416   5.079   8.801  0.00  0.00    +0.000 OA
ATOM      9  C   UNL     1      45.411   3.870   8.991  0.00  0.00    +0.000 C 
ATOM     10  N   UNL     1      44.865   3.256  10.096  0.00  0.00    +0.000 N 
ATOM     11  H   UNL     1      45.294   2.381  10.379  0.00  0.00    +0.000 HD
BRANCH   9  12
ATOM     12  C   UNL     1      46.067   2.959   8.010  0.00  0.00    +0.000 A 
ATOM     13  C   UNL     1      46.530   3.488   6.798  0.00  0.00    +0.000 A 
ATOM     14  C   UNL     1      47.111   2.652   5.843  0.00  0.00    +0.000 A 
ATOM     15  C   UNL     1      47.222   1.283   6.091  0.00  0.00    +0.000 A 
ATOM     16  C   UNL     1      46.756   0.758   7.296  0.00  0.00    +0.000 A 
ATOM     17 CL   UNL     1      46.876  -0.934   7.591  0.00  0.00    +0.000 Cl
ATOM     18  C   UNL     1      46.180   1.585   8.259  0.00  0.00    +0.000 A 
ENDBRANCH   9  12
ENDBRANCH   7  10
BRANCH   7  19
ATOM     19  C   UNL     1      43.289   5.055  10.660  0.00  0.00    +0.000 C 
BRANCH  19  20
ATOM     20  O   UNL     1      42.373   5.453  11.683  0.00  0.00    +0.000 OA
ATOM     21  H   UNL     1      41.501   5.095  11.437  0.00  0.00    +0.000 HD
ENDBRANCH  19  20
ENDBRANCH   7  19
ENDBRANCH   1   7
BRANCH   5  22
ATOM     22  C   UNL     1      47.337   4.206  15.226  0.00  0.00    +0.000 C 
BRANCH  22  23
ATOM     23  N   UNL     1      47.326   5.121  16.341  0.00  0.00    +0.000 N 
ATOM     24  C   UNL     1      48.472   5.674  16.851  0.00  0.00    +0.000 C 
ATOM     25  O   UNL     1      49.580   5.451  16.368  0.00  0.00    +0.000 OA
ATOM     26  H   UNL     1      46.476   5.144  16.894  0.00  0.00    +0.000 HD
BRANCH  24  27
ATOM     27  C   UNL     1      48.308   6.605  17.973  0.00  0.00    +0.000 A 
ATOM     28  C   UNL     1      48.265   6.108  19.267  0.00  0.00    +0.000 A 
ATOM     29  S   UNL     1      48.123   7.315  20.461  0.00  0.00    +0.000 S 
ATOM     30  C   UNL     1      48.062   8.544  19.288  0.00  0.00    +0.000 A 
ATOM     31  N   UNL     1      47.923   9.848  19.651  0.00  0.00    +0.000 NA
ATOM     32  C   UNL     1      47.858  10.673  18.660  0.00  0.00    +0.000 A 
ATOM     33  N   UNL     1      47.921  10.313  17.342  0.00  0.00    +0.000 N 
ATOM     34  C   UNL     1      48.111   9.016  16.927  0.00  0.00    +0.000 A 
ATOM     35  O   UNL     1      48.242   8.741  15.738  0.00  0.00    +0.000 OA
ATOM     36  C   UNL     1      48.166   8.041  18.003  0.00  0.00    +0.000 A 
ATOM     37  H   UNL     1      47.880  11.012  16.612  0.00  0.00    +0.000 HD
ENDBRANCH  24  27
ENDBRANCH  22  23
ENDBRANCH   5  22
TORSDOF 8
ENDMDL
MODEL 8
REMARK VINA RESULT:    -7.543      3.433      6.002
REMARK INTER + INTRA:         -11.897
REMARK INTER:                 -10.406
REMARK INTRA:                  -1.491
REMARK UNBOUND:                -1.047
REMARK  Name = 
REMARK  8 active torsions:
REMARK  status: ('A' for Active; 'I' for Inactive)
REMARK    1  A    between atoms: C_2  and  C_27
REMARK    2  A    between atoms: N_3  and  CA_4
REMARK    3  A    between atoms: CA_4  and  C_5
REMARK    4  A    between atoms: CA_4  and  C_7
REMARK    5  A    between atoms: C_5  and  O_6
REMARK    6  A    between atoms: C_11  and  C_12
REMARK    7  A    between atoms: C_12  and  N_13
REMARK    8  A    between atoms: C_14  and  C_16
REMARK                            x       y       z     vdW  Elec       q    Type
REMARK                         _______ _______ _______ _____ _____    ______ ____
ROOT
ATOM      1  C   UNL     1      45.847   5.791  12.874  0.00  0.00    +0.000 A 
ATOM      2  C   UNL     1      46.386   4.920  13.833  0.00  0.00    +0.000 A 
ATOM      3  C   UNL     1      47.430   5.331  14.662  0.00  0.00    +0.000 A 
ATOM      4  C   UNL     1      47.932   6.627  14.562  0.00  0.00    +0.000 A 
ATOM      5  C   UNL     1      47.367   7.535  13.657  0.00  0.00    +0.000 A 
ATOM      6  C   UNL     1      46.329   7.106  12.817  0.00  0.00    +0.000 A 
ENDROOT
BRANCH   1   7
ATOM      7  CA  UNL     1      44.839   5.312  11.844  0.00  0.00    +0.000 C 
BRANCH   7  10
ATOM      8  O   UNL     1      43.652   3.222  10.316  0.00  0.00    +0.000 OA
ATOM      9  C   UNL     1      44.778   3.617  10.038  0.00  0.00    +0.000 C 
ATOM     10  N   UNL     1      45.457   4.589  10.737  0.00  0.00    +0.000 N 
ATOM     11  H   UNL     1      46.116   5.144  10.202  0.00  0.00    +0.000 HD
BRANCH   9  12
ATOM     12  C   UNL     1      45.486   3.069   8.846  0.00  0.00    +0.000 A 
ATOM     13  C   UNL     1      45.804   3.933   7.789  0.00  0.00    +0.000 A 
ATOM     14  C   UNL     1      46.430   3.440   6.643  0.00  0.00    +0.000 A 
ATOM     15  C   UNL     1      46.732   2.081   6.545  0.00  0.00    +0.000 A 
ATOM     16  C   UNL     1      46.411   1.223   7.596  0.00  0.00    +0.000 A 
ATOM     17 CL   UNL     1      46.767  -0.456   7.462  0.00  0.00    +0.000 Cl
ATOM     18  C   UNL     1      45.791   1.706   8.747  0.00  0.00    +0.000 A 
ENDBRANCH   9  12
ENDBRANCH   7  10
BRANCH   7  19
ATOM     19  C   UNL     1      44.064   6.534  11.296  0.00  0.00    +0.000 C 
BRANCH  19  20
ATOM     20  O   UNL     1      42.820   6.129  10.719  0.00  0.00    +0.000 OA
ATOM     21  H   UNL     1      42.997   5.919   9.785  0.00  0.00    +0.000 HD
ENDBRANCH  19  20
ENDBRANCH   7  19
ENDBRANCH   1   7
BRANCH   5  22
ATOM     22  C   UNL     1      47.900   8.936  13.540  0.00  0.00    +0.000 C 
BRANCH  22  23
ATOM     23  N   UNL     1      47.283   9.634  12.438  0.00  0.00    +0.000 N 
ATOM     24  C   UNL     1      47.561  10.945  12.149  0.00  0.00    +0.000 C 
ATOM     25  O   UNL     1      48.378  11.599  12.791  0.00  0.00    +0.000 OA
ATOM     26  H   UNL     1      46.455   9.204  12.042  0.00  0.00    +0.000 HD
BRANCH  24  27
ATOM     27  C   UNL     1      46.876  11.518  10.985  0.00  0.00    +0.000 A 
ATOM     28  C   UNL     1      47.615  12.207  10.033  0.00  0.00    +0.000 A 
ATOM     29  S   UNL     1      46.689  12.766   8.718  0.00  0.00    +0.000 S 
ATOM     30  C   UNL     1      45.255  12.152   9.397  0.00  0.00    +0.000 A 
ATOM     31  N   UNL     1      44.061  12.313   8.767  0.00  0.00    +0.000 NA
ATOM     32  C   UNL     1      43.050  11.827   9.408  0.00  0.00    +0.000 A 
ATOM     33  N   UNL     1      43.127  11.195  10.618  0.00  0.00    +0.000 N 
ATOM     34  C   UNL     1      44.316  10.965  11.270  0.00  0.00    +0.000 A 
ATOM     35  O   UNL     1      44.354  10.324  12.316  0.00  0.00    +0.000 OA
ATOM     36  C   UNL     1      45.484  11.513  10.604  0.00  0.00    +0.000 A 
ATOM     37  H   UNL     1      42.298  10.822  11.061  0.00  0.00    +0.000 HD
ENDBRANCH  24  27
ENDBRANCH  22  23
ENDBRANCH   5  22
TORSDOF 8
ENDMDL
MODEL 9
REMARK VINA RESULT:    -7.413      4.375      9.806
REMARK INTER + INTRA:         -11.710
REMARK INTER:                 -10.424
REMARK INTRA:                  -1.286
REMARK UNBOUND:                -1.047
REMARK  Name = 
REMARK  8 active torsions:
REMARK  status: ('A' for Active; 'I' for Inactive)
REMARK    1  A    between atoms: C_2  and  C_27
REMARK    2  A    between atoms: N_3  and  CA_4
REMARK    3  A    between atoms: CA_4  and  C_5
REMARK    4  A    between atoms: CA_4  and  C_7
REMARK    5  A    between atoms: C_5  and  O_6
REMARK    6  A    between atoms: C_11  and  C_12
REMARK    7  A    between atoms: C_12  and  N_13
REMARK    8  A    between atoms: C_14  and  C_16
REMARK                            x       y       z     vdW  Elec       q    Type
REMARK                         _______ _______ _______ _____ _____    ______ ____
ROOT
ATOM      1  C   UNL     1      50.715   4.760  17.752  0.00  0.00    +0.000 A 
ATOM      2  C   UNL     1      51.535   3.623  17.681  0.00  0.00    +0.000 A 
ATOM      3  C   UNL     1      50.996   2.375  17.370  0.00  0.00    +0.000 A 
ATOM      4  C   UNL     1      49.635   2.249  17.099  0.00  0.00    +0.000 A 
ATOM      5  C   UNL     1      48.809   3.380  17.100  0.00  0.00    +0.000 A 
ATOM      6  C   UNL     1      49.357   4.628  17.430  0.00  0.00    +0.000 A 
ENDROOT
BRANCH   1   7
ATOM      7  CA  UNL     1      51.243   6.089  18.262  0.00  0.00    +0.000 C 
BRANCH   7  10
ATOM      8  O   UNL     1      49.964   6.374  20.792  0.00  0.00    +0.000 OA
ATOM      9  C   UNL     1      49.655   7.113  19.865  0.00  0.00    +0.000 C 
ATOM     10  N   UNL     1      50.180   7.033  18.595  0.00  0.00    +0.000 N 
ATOM     11  H   UNL     1      50.226   7.903  18.076  0.00  0.00    +0.000 HD
BRANCH   9  12
ATOM     12  C   UNL     1      48.680   8.219  20.088  0.00  0.00    +0.000 A 
ATOM     13  C   UNL     1      47.883   8.199  21.241  0.00  0.00    +0.000 A 
ATOM     14  C   UNL     1      46.933   9.198  21.456  0.00  0.00    +0.000 A 
ATOM     15  C   UNL     1      46.768  10.215  20.515  0.00  0.00    +0.000 A 
ATOM     16  C   UNL     1      47.558  10.230  19.366  0.00  0.00    +0.000 A 
ATOM     17 CL   UNL     1      47.338  11.475  18.198  0.00  0.00    +0.000 Cl
ATOM     18  C   UNL     1      48.515   9.241  19.145  0.00  0.00    +0.000 A 
ENDBRANCH   9  12
ENDBRANCH   7  10
BRANCH   7  19
ATOM     19  C   UNL     1      52.166   6.708  17.185  0.00  0.00    +0.000 C 
BRANCH  19  20
ATOM     20  O   UNL     1      51.502   6.768  15.921  0.00  0.00    +0.000 OA
ATOM     21  H   UNL     1      51.451   7.709  15.673  0.00  0.00    +0.000 HD
ENDBRANCH  19  20
ENDBRANCH   7  19
ENDBRANCH   1   7
BRANCH   5  22
ATOM     22  C   UNL     1      47.338   3.257  16.809  0.00  0.00    +0.000 C 
BRANCH  22  23
ATOM     23  N   UNL     1      46.908   4.272  15.879  0.00  0.00    +0.000 N 
ATOM     24  C   UNL     1      46.958   4.094  14.520  0.00  0.00    +0.000 C 
ATOM     25  O   UNL     1      47.344   3.046  14.010  0.00  0.00    +0.000 OA
ATOM     26  H   UNL     1      46.805   5.209  16.253  0.00  0.00    +0.000 HD
BRANCH  24  27
ATOM     27  C   UNL     1      46.466   5.204  13.696  0.00  0.00    +0.000 A 
ATOM     28  C   UNL     1      47.243   6.346  13.561  0.00  0.00    +0.000 A 
ATOM     29  S   UNL     1      46.562   7.520  12.532  0.00  0.00    +0.000 S 
ATOM     30  C   UNL     1      45.179   6.567  12.270  0.00  0.00    +0.000 A 
ATOM     31  N   UNL     1      44.167   7.010  11.476  0.00  0.00    +0.000 NA
ATOM     32  C   UNL     1      43.164   6.201  11.389  0.00  0.00    +0.000 A 
ATOM     33  N   UNL     1      43.083   4.991  12.021  0.00  0.00    +0.000 N 
ATOM     34  C   UNL     1      44.100   4.478  12.792  0.00  0.00    +0.000 A 
ATOM     35  O   UNL     1      44.024   3.354  13.279  0.00  0.00    +0.000 OA
ATOM     36  C   UNL     1      45.244   5.360  12.944  0.00  0.00    +0.000 A 
ATOM     37  H   UNL     1      42.274   4.396  11.899  0.00  0.00    +0.000 HD
ENDBRANCH  24  27
ENDBRANCH  22  23
ENDBRANCH   5  22
TORSDOF 8
ENDMDL
