MODEL 1
REMARK VINA RESULT:    -8.398      0.000      0.000
REMARK INTER + INTRA:         -13.200
REMARK INTER:                 -12.325
REMARK INTRA:                  -0.875
REMARK UNBOUND:                -0.875
REMARK  Name = 
REMARK  9 active torsions:
REMARK  status: ('A' for Active; 'I' for Inactive)
REMARK    1  A    between atoms: C_1  and  C_2
REMARK    2  A    between atoms: C_2  and  C_3
REMARK    3  A    between atoms: C_2  and  C_20
REMARK    4  A    between atoms: C_3  and  N_4
REMARK    5  A    between atoms: N_4  and  C_5
REMARK    6  A    between atoms: C_9  and  C_10
REMARK    7  A    between atoms: C_10  and  N_11
REMARK    8  A    between atoms: N_11  and  C_12
REMARK    9  A    between atoms: C_12  and  C_13
REMARK                            x       y       z     vdW  Elec       q    Type
REMARK                         _______ _______ _______ _____ _____    ______ ____
ROOT
ATOM      1  N   UNL     1      46.780   4.732  14.958  0.00  0.00    +0.000 N 
ATOM      2  H   UNL     1      46.614   3.731  14.891  0.00  0.00    +0.000 HD
ENDROOT
BRANCH   1   3
ATOM      3  C   UNL     1      46.510   5.332  13.726  0.00  0.00    +0.000 A 
ATOM      4  C   UNL     1      47.414   6.123  13.015  0.00  0.00    +0.000 A 
ATOM      5  C   UNL     1      47.050   6.707  11.799  0.00  0.00    +0.000 A 
ATOM      6  C   UNL     1      45.770   6.513  11.281  0.00  0.00    +0.000 A 
ATOM      7  C   UNL     1      44.840   5.731  11.977  0.00  0.00    +0.000 A 
ATOM      8  C   UNL     1      45.215   5.183  13.211  0.00  0.00    +0.000 A 
BRANCH   7   9
ATOM      9  C   UNL     1      43.470   5.438  11.417  0.00  0.00    +0.000 C 
BRANCH   9  10
ATOM     10  N   UNL     1      43.574   4.950  10.041  0.00  0.00    +0.000 NA
ATOM     11  H   UNL     1      44.249   5.536   9.547  0.00  0.00    +0.000 HD
BRANCH  10  12
ATOM     12  C   UNL     1      44.046   3.563  10.010  0.00  0.00    +0.000 C 
BRANCH  12  13
ATOM     13  C   UNL     1      45.086   3.344   8.947  0.00  0.00    +0.000 A 
ATOM     14  C   UNL     1      45.586   2.088   8.665  0.00  0.00    +0.000 A 
ATOM     15  N   UNL     1      46.549   1.866   7.746  0.00  0.00    +0.000 NA
ATOM     16  C   UNL     1      46.976   2.972   7.118  0.00  0.00    +0.000 A 
ATOM     17  N   UNL     1      46.517   4.223   7.330  0.00  0.00    +0.000 NA
ATOM     18  N   UNL     1      45.552   4.414   8.266  0.00  0.00    +0.000 NA
ENDBRANCH  12  13
ENDBRANCH  10  12
ENDBRANCH   9  10
ENDBRANCH   7   9
ENDBRANCH   1   3
BRANCH   1  19
ATOM     19  C   UNL     1      47.994   5.078  15.696  0.00  0.00    +0.000 C 
BRANCH  19  21
ATOM     20  C   UNL     1      47.012   5.014  18.057  0.00  0.00    +0.000 C 
ATOM     21  C   UNL     1      48.039   4.408  17.087  0.00  0.00    +0.000 C 
BRANCH  21  22
ATOM     22  C   UNL     1      49.441   4.382  17.680  0.00  0.00    +0.000 A 
ATOM     23  C   UNL     1      50.007   5.405  18.425  0.00  0.00    +0.000 A 
ATOM     24  S   UNL     1      51.600   5.067  18.939  0.00  0.00    +0.000 S 
ATOM     25  C   UNL     1      51.581   3.543  18.187  0.00  0.00    +0.000 A 
ATOM     26  N   UNL     1      52.660   2.714  18.252  0.00  0.00    +0.000 NA
ATOM     27  C   UNL     1      52.495   1.589  17.644  0.00  0.00    +0.000 A 
ATOM     28  N   UNL     1      51.351   1.211  16.975  0.00  0.00    +0.000 N 
ATOM     29  C   UNL     1      50.243   2.014  16.868  0.00  0.00    +0.000 A 
ATOM     30  O   UNL     1      49.244   1.656  16.256  0.00  0.00    +0.000 OA
ATOM     31  C   UNL     1      50.380   3.292  17.549  0.00  0.00    +0.000 A 
ATOM     32  H   UNL     1      51.296   0.310  16.523  0.00  0.00    +0.000 HD
ENDBRANCH  21  22
ENDBRANCH  19  21
ENDBRANCH   1  19
TORSDOF 8
ENDMDL
MODEL 2
REMARK VINA RESULT:    -7.624      1.057      1.453
REMARK INTER + INTRA:         -12.064
REMARK INTER:                 -11.121
REMARK INTRA:                  -0.943
REMARK UNBOUND:                -0.875
REMARK  Name = 
REMARK  9 active torsions:
REMARK  status: ('A' for Active; 'I' for Inactive)
REMARK    1  A    between atoms: C_1  and  C_2
REMARK    2  A    between atoms: C_2  and  C_3
REMARK    3  A    between atoms: C_2  and  C_20
REMARK    4  A    between atoms: C_3  and  N_4
REMARK    5  A    between atoms: N_4  and  C_5
REMARK    6  A    between atoms: C_9  and  C_10
REMARK    7  A    between atoms: C_10  and  N_11
REMARK    8  A    between atoms: N_11  and  C_12
REMARK    9  A    between atoms: C_12  and  C_13
REMARK                            x       y       z     vdW  Elec       q    Type
REMARK                         _______ _______ _______ _____ _____    ______ ____
ROOT
ATOM      1  N   UNL     1      48.909   6.409  14.997  0.00  0.00    +0.000 N 
ATOM      2  H   UNL     1      49.561   7.189  14.947  0.00  0.00    +0.000 HD
ENDROOT
BRANCH   1   3
ATOM      3  C   UNL     1      48.053   6.446  13.894  0.00  0.00    +0.000 A 
ATOM      4  C   UNL     1      47.979   7.503  12.984  0.00  0.00    +0.000 A 
ATOM      5  C   UNL     1      47.074   7.468  11.921  0.00  0.00    +0.000 A 
ATOM      6  C   UNL     1      46.222   6.376  11.758  0.00  0.00    +0.000 A 
ATOM      7  C   UNL     1      46.269   5.306  12.660  0.00  0.00    +0.000 A 
ATOM      8  C   UNL     1      47.160   5.377  13.739  0.00  0.00    +0.000 A 
BRANCH   7   9
ATOM      9  C   UNL     1      45.416   4.075  12.478  0.00  0.00    +0.000 C 
BRANCH   9  10
ATOM     10  N   UNL     1      44.269   4.370  11.619  0.00  0.00    +0.000 NA
ATOM     11  H   UNL     1      44.501   5.185  11.048  0.00  0.00    +0.000 HD
BRANCH  10  12
ATOM     12  C   UNL     1      43.976   3.243  10.729  0.00  0.00    +0.000 C 
BRANCH  12  13
ATOM     13  C   UNL     1      44.891   3.213   9.536  0.00  0.00    +0.000 A 
ATOM     14  C   UNL     1      45.192   4.355   8.821  0.00  0.00    +0.000 A 
ATOM     15  N   UNL     1      45.976   4.353   7.722  0.00  0.00    +0.000 NA
ATOM     16  C   UNL     1      46.450   3.144   7.387  0.00  0.00    +0.000 A 
ATOM     17  N   UNL     1      46.212   1.994   8.051  0.00  0.00    +0.000 NA
ATOM     18  N   UNL     1      45.414   2.029   9.150  0.00  0.00    +0.000 NA
ENDBRANCH  12  13
ENDBRANCH  10  12
ENDBRANCH   9  10
ENDBRANCH   7   9
ENDBRANCH   1   3
BRANCH   1  19
ATOM     19  C   UNL     1      48.374   6.176  16.338  0.00  0.00    +0.000 C 
BRANCH  19  21
ATOM     20  C   UNL     1      47.404   4.212  17.657  0.00  0.00    +0.000 C 
ATOM     21  C   UNL     1      48.574   4.715  16.797  0.00  0.00    +0.000 C 
BRANCH  21  22
ATOM     22  C   UNL     1      49.920   4.492  17.474  0.00  0.00    +0.000 A 
ATOM     23  C   UNL     1      50.608   5.448  18.205  0.00  0.00    +0.000 A 
ATOM     24  S   UNL     1      52.094   4.882  18.830  0.00  0.00    +0.000 S 
ATOM     25  C   UNL     1      51.861   3.343  18.147  0.00  0.00    +0.000 A 
ATOM     26  N   UNL     1      52.782   2.354  18.314  0.00  0.00    +0.000 NA
ATOM     27  C   UNL     1      52.464   1.239  17.749  0.00  0.00    +0.000 A 
ATOM     28  N   UNL     1      51.309   1.018  17.029  0.00  0.00    +0.000 N 
ATOM     29  C   UNL     1      50.357   1.985  16.819  0.00  0.00    +0.000 A 
ATOM     30  O   UNL     1      49.346   1.762  16.165  0.00  0.00    +0.000 OA
ATOM     31  C   UNL     1      50.670   3.258  17.449  0.00  0.00    +0.000 A 
ATOM     32  H   UNL     1      51.129   0.115  16.616  0.00  0.00    +0.000 HD
ENDBRANCH  21  22
ENDBRANCH  19  21
ENDBRANCH   1  19
TORSDOF 8
ENDMDL
MODEL 3
REMARK VINA RESULT:    -7.330      1.864      2.603
REMARK INTER + INTRA:         -11.633
REMARK INTER:                 -10.196
REMARK INTRA:                  -1.437
REMARK UNBOUND:                -0.875
REMARK  Name = 
REMARK  9 active torsions:
REMARK  status: ('A' for Active; 'I' for Inactive)
REMARK    1  A    between atoms: C_1  and  C_2
REMARK    2  A    between atoms: C_2  and  C_3
REMARK    3  A    between atoms: C_2  and  C_20
REMARK    4  A    between atoms: C_3  and  N_4
REMARK    5  A    between atoms: N_4  and  C_5
REMARK    6  A    between atoms: C_9  and  C_10
REMARK    7  A    between atoms: C_10  and  N_11
REMARK    8  A    between atoms: N_11  and  C_12
REMARK    9  A    between atoms: C_12  and  C_13
REMARK                            x       y       z     vdW  Elec       q    Type
REMARK                         _______ _______ _______ _____ _____    ______ ____
ROOT
ATOM      1  N   UNL     1      48.064   5.980  13.048  0.00  0.00    +0.000 N 
ATOM      2  H   UNL     1      48.636   5.392  12.446  0.00  0.00    +0.000 HD
ENDROOT
BRANCH   1   3
ATOM      3  C   UNL     1      46.799   6.137  12.478  0.00  0.00    +0.000 A 
ATOM      4  C   UNL     1      46.295   7.343  11.986  0.00  0.00    +0.000 A 
ATOM      5  C   UNL     1      45.004   7.414  11.455  0.00  0.00    +0.000 A 
ATOM      6  C   UNL     1      44.195   6.279  11.417  0.00  0.00    +0.000 A 
ATOM      7  C   UNL     1      44.672   5.059  11.911  0.00  0.00    +0.000 A 
ATOM      8  C   UNL     1      45.956   5.017  12.470  0.00  0.00    +0.000 A 
BRANCH   7   9
ATOM      9  C   UNL     1      43.856   3.793  11.822  0.00  0.00    +0.000 C 
BRANCH   9  10
ATOM     10  N   UNL     1      44.648   2.713  11.232  0.00  0.00    +0.000 NA
ATOM     11  H   UNL     1      44.522   1.877  11.806  0.00  0.00    +0.000 HD
BRANCH  10  12
ATOM     12  C   UNL     1      44.200   2.418   9.869  0.00  0.00    +0.000 C 
BRANCH  12  13
ATOM     13  C   UNL     1      45.292   2.629   8.857  0.00  0.00    +0.000 A 
ATOM     14  C   UNL     1      45.539   3.869   8.301  0.00  0.00    +0.000 A 
ATOM     15  N   UNL     1      46.484   4.082   7.362  0.00  0.00    +0.000 NA
ATOM     16  C   UNL     1      47.174   2.984   7.017  0.00  0.00    +0.000 A 
ATOM     17  N   UNL     1      46.998   1.751   7.533  0.00  0.00    +0.000 NA
ATOM     18  N   UNL     1      46.034   1.568   8.473  0.00  0.00    +0.000 NA
ENDBRANCH  12  13
ENDBRANCH  10  12
ENDBRANCH   9  10
ENDBRANCH   7   9
ENDBRANCH   1   3
BRANCH   1  19
ATOM     19  C   UNL     1      48.777   7.136  13.589  0.00  0.00    +0.000 C 
BRANCH  19  21
ATOM     20  C   UNL     1      48.321   8.906  15.377  0.00  0.00    +0.000 C 
ATOM     21  C   UNL     1      48.415   7.404  15.066  0.00  0.00    +0.000 C 
BRANCH  21  22
ATOM     22  C   UNL     1      49.332   6.674  16.037  0.00  0.00    +0.000 A 
ATOM     23  C   UNL     1      50.542   7.162  16.505  0.00  0.00    +0.000 A 
ATOM     24  S   UNL     1      51.334   6.095  17.578  0.00  0.00    +0.000 S 
ATOM     25  C   UNL     1      50.084   4.950  17.453  0.00  0.00    +0.000 A 
ATOM     26  N   UNL     1      50.134   3.777  18.143  0.00  0.00    +0.000 NA
ATOM     27  C   UNL     1      49.111   3.014  17.958  0.00  0.00    +0.000 A 
ATOM     28  N   UNL     1      48.038   3.312  17.144  0.00  0.00    +0.000 N 
ATOM     29  C   UNL     1      47.947   4.473  16.416  0.00  0.00    +0.000 A 
ATOM     30  O   UNL     1      46.986   4.705  15.692  0.00  0.00    +0.000 OA
ATOM     31  C   UNL     1      49.076   5.370  16.604  0.00  0.00    +0.000 A 
ATOM     32  H   UNL     1      47.272   2.663  17.050  0.00  0.00    +0.000 HD
ENDBRANCH  21  22
ENDBRANCH  19  21
ENDBRANCH   1  19
TORSDOF 8
ENDMDL
MODEL 4
REMARK VINA RESULT:    -7.176      3.868      4.741
REMARK INTER + INTRA:         -11.407
REMARK INTER:                  -9.960
REMARK INTRA:                  -1.447
REMARK UNBOUND:                -0.875
REMARK  Name = 
REMARK  9 active torsions:
REMARK  status: ('A' for Active; 'I' for Inactive)
REMARK    1  A    between atoms: C_1  and  C_2
REMARK    2  A    between atoms: C_2  and  C_3
REMARK    3  A    between atoms: C_2  and  C_20
REMARK    4  A    between atoms: C_3  and  N_4
REMARK    5  A    between atoms: N_4  and  C_5
REMARK    6  A    between atoms: C_9  and  C_10
REMARK    7  A    between atoms: C_10  and  N_11
REMARK    8  A    between atoms: N_11  and  C_12
REMARK    9  A    between atoms: C_12  and  C_13
REMARK                            x       y       z     vdW  Elec       q    Type
REMARK                         _______ _______ _______ _____ _____    ______ ____
ROOT
ATOM      1  N   UNL     1      47.929   7.448  11.600  0.00  0.00    +0.000 N 
ATOM      2  H   UNL     1      47.591   8.395  11.756  0.00  0.00    +0.000 HD
ENDROOT
BRANCH   1   3
ATOM      3  C   UNL     1      47.020   6.534  12.137  0.00  0.00    +0.000 A 
ATOM      4  C   UNL     1      47.269   5.732  13.253  0.00  0.00    +0.000 A 
ATOM      5  C   UNL     1      46.309   4.824  13.708  0.00  0.00    +0.000 A 
ATOM      6  C   UNL     1      45.089   4.700  13.046  0.00  0.00    +0.000 A 
ATOM      7  C   UNL     1      44.816   5.486  11.920  0.00  0.00    +0.000 A 
ATOM      8  C   UNL     1      45.805   6.365  11.460  0.00  0.00    +0.000 A 
BRANCH   7   9
ATOM      9  C   UNL     1      43.481   5.434  11.219  0.00  0.00    +0.000 C 
BRANCH   9  10
ATOM     10  N   UNL     1      43.646   4.993   9.834  0.00  0.00    +0.000 NA
ATOM     11  H   UNL     1      44.383   5.558   9.407  0.00  0.00    +0.000 HD
BRANCH  10  12
ATOM     12  C   UNL     1      44.044   3.584   9.775  0.00  0.00    +0.000 C 
BRANCH  12  13
ATOM     13  C   UNL     1      45.144   3.349   8.777  0.00  0.00    +0.000 A 
ATOM     14  C   UNL     1      45.682   2.094   8.569  0.00  0.00    +0.000 A 
ATOM     15  N   UNL     1      46.698   1.860   7.712  0.00  0.00    +0.000 NA
ATOM     16  C   UNL     1      47.137   2.951   7.067  0.00  0.00    +0.000 A 
ATOM     17  N   UNL     1      46.644   4.199   7.208  0.00  0.00    +0.000 NA
ATOM     18  N   UNL     1      45.626   4.403   8.084  0.00  0.00    +0.000 NA
ENDBRANCH  12  13
ENDBRANCH  10  12
ENDBRANCH   9  10
ENDBRANCH   7   9
ENDBRANCH   1   3
BRANCH   1  19
ATOM     19  C   UNL     1      49.363   7.290  11.839  0.00  0.00    +0.000 C 
BRANCH  19  21
ATOM     20  C   UNL     1      51.171   9.061  11.474  0.00  0.00    +0.000 C 
ATOM     21  C   UNL     1      50.012   8.589  12.366  0.00  0.00    +0.000 C 
BRANCH  21  22
ATOM     22  C   UNL     1      50.419   8.489  13.829  0.00  0.00    +0.000 A 
ATOM     23  C   UNL     1      51.692   8.175  14.280  0.00  0.00    +0.000 A 
ATOM     24  S   UNL     1      51.818   8.138  15.983  0.00  0.00    +0.000 S 
ATOM     25  C   UNL     1      50.178   8.544  16.171  0.00  0.00    +0.000 A 
ATOM     26  N   UNL     1      49.627   8.684  17.408  0.00  0.00    +0.000 NA
ATOM     27  C   UNL     1      48.378   9.005  17.393  0.00  0.00    +0.000 A 
ATOM     28  N   UNL     1      47.623   9.198  16.255  0.00  0.00    +0.000 N 
ATOM     29  C   UNL     1      48.127   9.055  14.986  0.00  0.00    +0.000 A 
ATOM     30  O   UNL     1      47.430   9.222  13.993  0.00  0.00    +0.000 OA
ATOM     31  C   UNL     1      49.538   8.704  14.955  0.00  0.00    +0.000 A 
ATOM     32  H   UNL     1      46.649   9.450  16.324  0.00  0.00    +0.000 HD
ENDBRANCH  21  22
ENDBRANCH  19  21
ENDBRANCH   1  19
TORSDOF 8
ENDMDL
MODEL 5
REMARK VINA RESULT:    -7.047      1.322      1.923
REMARK INTER + INTRA:         -11.217
REMARK INTER:                 -10.344
REMARK INTRA:                  -0.874
REMARK UNBOUND:                -0.875
REMARK  Name = 
REMARK  9 active torsions:
REMARK  status: ('A' for Active; 'I' for Inactive)
REMARK    1  A    between atoms: C_1  and  C_2
REMARK    2  A    between atoms: C_2  and  C_3
REMARK    3  A    between atoms: C_2  and  C_20
REMARK    4  A    between atoms: C_3  and  N_4
REMARK    5  A    between atoms: N_4  and  C_5
REMARK    6  A    between atoms: C_9  and  C_10
REMARK    7  A    between atoms: C_10  and  N_11
REMARK    8  A    between atoms: N_11  and  C_12
REMARK    9  A    between atoms: C_12  and  C_13
REMARK                            x       y       z     vdW  Elec       q    Type
REMARK                         _______ _______ _______ _____ _____    ______ ____
ROOT
ATOM      1  N   UNL     1      47.651   5.429  14.998  0.00  0.00    +0.000 N 
ATOM      2  H   UNL     1      47.690   4.460  14.691  0.00  0.00    +0.000 HD
ENDROOT
BRANCH   1   3
ATOM      3  C   UNL     1      47.656   6.271  13.884  0.00  0.00    +0.000 A 
ATOM      4  C   UNL     1      48.775   6.967  13.422  0.00  0.00    +0.000 A 
ATOM      5  C   UNL     1      48.684   7.810  12.312  0.00  0.00    +0.000 A 
ATOM      6  C   UNL     1      47.466   7.976  11.653  0.00  0.00    +0.000 A 
ATOM      7  C   UNL     1      46.326   7.297  12.100  0.00  0.00    +0.000 A 
ATOM      8  C   UNL     1      46.432   6.483  13.235  0.00  0.00    +0.000 A 
BRANCH   7   9
ATOM      9  C   UNL     1      45.008   7.393  11.372  0.00  0.00    +0.000 C 
BRANCH   9  10
ATOM     10  N   UNL     1      43.936   6.803  12.174  0.00  0.00    +0.000 NA
ATOM     11  H   UNL     1      43.407   7.564  12.605  0.00  0.00    +0.000 HD
BRANCH  10  12
ATOM     12  C   UNL     1      43.026   6.017  11.338  0.00  0.00    +0.000 C 
BRANCH  12  13
ATOM     13  C   UNL     1      43.702   4.811  10.747  0.00  0.00    +0.000 A 
ATOM     14  C   UNL     1      44.288   3.843  11.539  0.00  0.00    +0.000 A 
ATOM     15  N   UNL     1      44.939   2.773  11.038  0.00  0.00    +0.000 NA
ATOM     16  C   UNL     1      44.960   2.719   9.697  0.00  0.00    +0.000 A 
ATOM     17  N   UNL     1      44.391   3.617   8.866  0.00  0.00    +0.000 NA
ATOM     18  N   UNL     1      43.749   4.687   9.403  0.00  0.00    +0.000 NA
ENDBRANCH  12  13
ENDBRANCH  10  12
ENDBRANCH   9  10
ENDBRANCH   7   9
ENDBRANCH   1   3
BRANCH   1  19
ATOM     19  C   UNL     1      48.512   5.717  16.144  0.00  0.00    +0.000 C 
BRANCH  19  21
ATOM     20  C   UNL     1      47.458   4.676  18.228  0.00  0.00    +0.000 C 
ATOM     21  C   UNL     1      48.548   4.548  17.152  0.00  0.00    +0.000 C 
BRANCH  21  22
ATOM     22  C   UNL     1      49.929   4.338  17.758  0.00  0.00    +0.000 A 
ATOM     23  C   UNL     1      50.597   5.261  18.549  0.00  0.00    +0.000 A 
ATOM     24  S   UNL     1      52.133   4.723  19.067  0.00  0.00    +0.000 S 
ATOM     25  C   UNL     1      51.951   3.240  18.255  0.00  0.00    +0.000 A 
ATOM     26  N   UNL     1      52.927   2.291  18.298  0.00  0.00    +0.000 NA
ATOM     27  C   UNL     1      52.643   1.216  17.646  0.00  0.00    +0.000 A 
ATOM     28  N   UNL     1      51.473   0.997  16.949  0.00  0.00    +0.000 N 
ATOM     29  C   UNL     1      50.466   1.926  16.863  0.00  0.00    +0.000 A 
ATOM     30  O   UNL     1      49.442   1.709  16.227  0.00  0.00    +0.000 OA
ATOM     31  C   UNL     1      50.739   3.153  17.594  0.00  0.00    +0.000 A 
ATOM     32  H   UNL     1      51.322   0.127  16.463  0.00  0.00    +0.000 HD
ENDBRANCH  21  22
ENDBRANCH  19  21
ENDBRANCH   1  19
TORSDOF 8
ENDMDL
MODEL 6
REMARK VINA RESULT:    -7.027      3.216      9.202
REMARK INTER + INTRA:         -11.188
REMARK INTER:                  -9.985
REMARK INTRA:                  -1.203
REMARK UNBOUND:                -0.875
REMARK  Name = 
REMARK  9 active torsions:
REMARK  status: ('A' for Active; 'I' for Inactive)
REMARK    1  A    between atoms: C_1  and  C_2
REMARK    2  A    between atoms: C_2  and  C_3
REMARK    3  A    between atoms: C_2  and  C_20
REMARK    4  A    between atoms: C_3  and  N_4
REMARK    5  A    between atoms: N_4  and  C_5
REMARK    6  A    between atoms: C_9  and  C_10
REMARK    7  A    between atoms: C_10  and  N_11
REMARK    8  A    between atoms: N_11  and  C_12
REMARK    9  A    between atoms: C_12  and  C_13
REMARK                            x       y       z     vdW  Elec       q    Type
REMARK                         _______ _______ _______ _____ _____    ______ ____
ROOT
ATOM      1  N   UNL     1      47.201   5.330  15.411  0.00  0.00    +0.000 N 
ATOM      2  H   UNL     1      46.284   5.676  15.685  0.00  0.00    +0.000 HD
ENDROOT
BRANCH   1   3
ATOM      3  C   UNL     1      47.772   4.630  16.476  0.00  0.00    +0.000 A 
ATOM      4  C   UNL     1      47.340   3.381  16.926  0.00  0.00    +0.000 A 
ATOM      5  C   UNL     1      47.955   2.764  18.018  0.00  0.00    +0.000 A 
ATOM      6  C   UNL     1      49.007   3.394  18.682  0.00  0.00    +0.000 A 
ATOM      7  C   UNL     1      49.455   4.650  18.257  0.00  0.00    +0.000 A 
ATOM      8  C   UNL     1      48.802   5.267  17.182  0.00  0.00    +0.000 A 
BRANCH   7   9
ATOM      9  C   UNL     1      50.636   5.332  18.902  0.00  0.00    +0.000 C 
BRANCH   9  10
ATOM     10  N   UNL     1      51.428   4.369  19.668  0.00  0.00    +0.000 NA
ATOM     11  H   UNL     1      50.945   3.469  19.642  0.00  0.00    +0.000 HD
BRANCH  10  12
ATOM     12  C   UNL     1      52.761   4.201  19.081  0.00  0.00    +0.000 C 
BRANCH  12  13
ATOM     13  C   UNL     1      53.037   2.770  18.708  0.00  0.00    +0.000 A 
ATOM     14  C   UNL     1      52.348   2.137  17.692  0.00  0.00    +0.000 A 
ATOM     15  N   UNL     1      52.544   0.844  17.362  0.00  0.00    +0.000 NA
ATOM     16  C   UNL     1      53.476   0.223  18.100  0.00  0.00    +0.000 A 
ATOM     17  N   UNL     1      54.199   0.786  19.091  0.00  0.00    +0.000 NA
ATOM     18  N   UNL     1      53.973   2.089  19.403  0.00  0.00    +0.000 NA
ENDBRANCH  12  13
ENDBRANCH  10  12
ENDBRANCH   9  10
ENDBRANCH   7   9
ENDBRANCH   1   3
BRANCH   1  19
ATOM     19  C   UNL     1      47.993   6.298  14.654  0.00  0.00    +0.000 C 
BRANCH  19  21
ATOM     20  C   UNL     1      48.975   6.879  12.366  0.00  0.00    +0.000 C 
ATOM     21  C   UNL     1      47.969   6.010  13.137  0.00  0.00    +0.000 C 
BRANCH  21  22
ATOM     22  C   UNL     1      46.568   6.094  12.547  0.00  0.00    +0.000 A 
ATOM     23  C   UNL     1      45.994   7.244  12.026  0.00  0.00    +0.000 A 
ATOM     24  S   UNL     1      44.405   7.005  11.447  0.00  0.00    +0.000 S 
ATOM     25  C   UNL     1      44.437   5.358  11.870  0.00  0.00    +0.000 A 
ATOM     26  N   UNL     1      43.366   4.552  11.632  0.00  0.00    +0.000 NA
ATOM     27  C   UNL     1      43.540   3.327  11.996  0.00  0.00    +0.000 A 
ATOM     28  N   UNL     1      44.687   2.829  12.578  0.00  0.00    +0.000 N 
ATOM     29  C   UNL     1      45.787   3.603  12.852  0.00  0.00    +0.000 A 
ATOM     30  O   UNL     1      46.789   3.136  13.381  0.00  0.00    +0.000 OA
ATOM     31  C   UNL     1      45.639   4.992  12.448  0.00  0.00    +0.000 A 
ATOM     32  H   UNL     1      44.749   1.855  12.835  0.00  0.00    +0.000 HD
ENDBRANCH  21  22
ENDBRANCH  19  21
ENDBRANCH   1  19
TORSDOF 8
ENDMDL
MODEL 7
REMARK VINA RESULT:    -6.959      2.982      4.089
REMARK INTER + INTRA:         -11.089
REMARK INTER:                  -9.517
REMARK INTRA:                  -1.572
REMARK UNBOUND:                -0.875
REMARK  Name = 
REMARK  9 active torsions:
REMARK  status: ('A' for Active; 'I' for Inactive)
REMARK    1  A    between atoms: C_1  and  C_2
REMARK    2  A    between atoms: C_2  and  C_3
REMARK    3  A    between atoms: C_2  and  C_20
REMARK    4  A    between atoms: C_3  and  N_4
REMARK    5  A    between atoms: N_4  and  C_5
REMARK    6  A    between atoms: C_9  and  C_10
REMARK    7  A    between atoms: C_10  and  N_11
REMARK    8  A    between atoms: N_11  and  C_12
REMARK    9  A    between atoms: C_12  and  C_13
REMARK                            x       y       z     vdW  Elec       q    Type
REMARK                         _______ _______ _______ _____ _____    ______ ____
ROOT
ATOM      1  N   UNL     1      49.671   7.124  13.649  0.00  0.00    +0.000 N 
ATOM      2  H   UNL     1      50.303   6.636  13.018  0.00  0.00    +0.000 HD
ENDROOT
BRANCH   1   3
ATOM      3  C   UNL     1      49.018   8.145  12.956  0.00  0.00    +0.000 A 
ATOM      4  C   UNL     1      49.664   9.166  12.256  0.00  0.00    +0.000 A 
ATOM      5  C   UNL     1      48.930  10.164  11.610  0.00  0.00    +0.000 A 
ATOM      6  C   UNL     1      47.537  10.160  11.664  0.00  0.00    +0.000 A 
ATOM      7  C   UNL     1      46.863   9.153  12.365  0.00  0.00    +0.000 A 
ATOM      8  C   UNL     1      47.619   8.180  13.034  0.00  0.00    +0.000 A 
BRANCH   7   9
ATOM      9  C   UNL     1      45.357   9.071  12.387  0.00  0.00    +0.000 C 
BRANCH   9  10
ATOM     10  N   UNL     1      44.923   7.709  12.702  0.00  0.00    +0.000 NA
ATOM     11  H   UNL     1      44.123   7.770  13.335  0.00  0.00    +0.000 HD
BRANCH  10  12
ATOM     12  C   UNL     1      44.507   6.998  11.490  0.00  0.00    +0.000 C 
BRANCH  12  13
ATOM     13  C   UNL     1      44.214   5.547  11.760  0.00  0.00    +0.000 A 
ATOM     14  C   UNL     1      43.543   4.758  10.846  0.00  0.00    +0.000 A 
ATOM     15  N   UNL     1      43.229   3.466  11.077  0.00  0.00    +0.000 NA
ATOM     16  C   UNL     1      43.634   3.006  12.271  0.00  0.00    +0.000 A 
ATOM     17  N   UNL     1      44.309   3.715  13.199  0.00  0.00    +0.000 NA
ATOM     18  N   UNL     1      44.605   5.016  12.938  0.00  0.00    +0.000 NA
ENDBRANCH  12  13
ENDBRANCH  10  12
ENDBRANCH   9  10
ENDBRANCH   7   9
ENDBRANCH   1   3
BRANCH   1  19
ATOM     19  C   UNL     1      50.239   7.376  14.972  0.00  0.00    +0.000 C 
BRANCH  19  21
ATOM     20  C   UNL     1      49.200   9.038  16.615  0.00  0.00    +0.000 C 
ATOM     21  C   UNL     1      49.148   7.614  16.038  0.00  0.00    +0.000 C 
BRANCH  21  22
ATOM     22  C   UNL     1      49.154   6.553  17.130  0.00  0.00    +0.000 A 
ATOM     23  C   UNL     1      49.769   6.689  18.365  0.00  0.00    +0.000 A 
ATOM     24  S   UNL     1      49.598   5.313  19.363  0.00  0.00    +0.000 S 
ATOM     25  C   UNL     1      48.695   4.495  18.177  0.00  0.00    +0.000 A 
ATOM     26  N   UNL     1      48.219   3.239  18.399  0.00  0.00    +0.000 NA
ATOM     27  C   UNL     1      47.542   2.752  17.415  0.00  0.00    +0.000 A 
ATOM     28  N   UNL     1      47.296   3.402  16.225  0.00  0.00    +0.000 N 
ATOM     29  C   UNL     1      47.765   4.662  15.946  0.00  0.00    +0.000 A 
ATOM     30  O   UNL     1      47.539   5.211  14.875  0.00  0.00    +0.000 OA
ATOM     31  C   UNL     1      48.526   5.256  17.034  0.00  0.00    +0.000 A 
ATOM     32  H   UNL     1      46.755   2.955  15.500  0.00  0.00    +0.000 HD
ENDBRANCH  21  22
ENDBRANCH  19  21
ENDBRANCH   1  19
TORSDOF 8
ENDMDL
MODEL 8
REMARK VINA RESULT:    -6.860      3.570      8.447
REMARK INTER + INTRA:         -10.944
REMARK INTER:                  -9.935
REMARK INTRA:                  -1.009
REMARK UNBOUND:                -0.875
REMARK  Name = 
REMARK  9 active torsions:
REMARK  status: ('A' for Active; 'I' for Inactive)
REMARK    1  A    between atoms: C_1  and  C_2
REMARK    2  A    between atoms: C_2  and  C_3
REMARK    3  A    between atoms: C_2  and  C_20
REMARK    4  A    between atoms: C_3  and  N_4
REMARK    5  A    between atoms: N_4  and  C_5
REMARK    6  A    between atoms: C_9  and  C_10
REMARK    7  A    between atoms: C_10  and  N_11
REMARK    8  A    between atoms: N_11  and  C_12
REMARK    9  A    between atoms: C_12  and  C_13
REMARK                            x       y       z     vdW  Elec       q    Type
REMARK                         _______ _______ _______ _____ _____    ______ ____
ROOT
ATOM      1  N   UNL     1      48.120   7.304  11.659  0.00  0.00    +0.000 N 
ATOM      2  H   UNL     1      48.473   6.554  11.070  0.00  0.00    +0.000 HD
ENDROOT
BRANCH   1   3
ATOM      3  C   UNL     1      49.178   7.876  12.369  0.00  0.00    +0.000 A 
ATOM      4  C   UNL     1      50.000   8.894  11.882  0.00  0.00    +0.000 A 
ATOM      5  C   UNL     1      51.054   9.391  12.653  0.00  0.00    +0.000 A 
ATOM      6  C   UNL     1      51.306   8.868  13.921  0.00  0.00    +0.000 A 
ATOM      7  C   UNL     1      50.502   7.841  14.431  0.00  0.00    +0.000 A 
ATOM      8  C   UNL     1      49.472   7.334  13.628  0.00  0.00    +0.000 A 
BRANCH   7   9
ATOM      9  C   UNL     1      50.696   7.298  15.825  0.00  0.00    +0.000 C 
BRANCH   9  10
ATOM     10  N   UNL     1      49.413   7.210  16.523  0.00  0.00    +0.000 NA
ATOM     11  H   UNL     1      48.701   6.935  15.844  0.00  0.00    +0.000 HD
BRANCH  10  12
ATOM     12  C   UNL     1      49.461   6.200  17.584  0.00  0.00    +0.000 C 
BRANCH  12  13
ATOM     13  C   UNL     1      49.027   4.846  17.095  0.00  0.00    +0.000 A 
ATOM     14  C   UNL     1      47.749   4.616  16.625  0.00  0.00    +0.000 A 
ATOM     15  N   UNL     1      47.319   3.404  16.219  0.00  0.00    +0.000 NA
ATOM     16  C   UNL     1      48.244   2.436  16.299  0.00  0.00    +0.000 A 
ATOM     17  N   UNL     1      49.513   2.596  16.728  0.00  0.00    +0.000 NA
ATOM     18  N   UNL     1      49.914   3.828  17.137  0.00  0.00    +0.000 NA
ENDBRANCH  12  13
ENDBRANCH  10  12
ENDBRANCH   9  10
ENDBRANCH   7   9
ENDBRANCH   1   3
BRANCH   1  19
ATOM     19  C   UNL     1      46.867   6.977  12.337  0.00  0.00    +0.000 C 
BRANCH  19  21
ATOM     20  C   UNL     1      44.707   8.029  11.462  0.00  0.00    +0.000 C 
ATOM     21  C   UNL     1      45.687   6.850  11.350  0.00  0.00    +0.000 C 
BRANCH  21  22
ATOM     22  C   UNL     1      44.980   5.506  11.451  0.00  0.00    +0.000 A 
ATOM     23  C   UNL     1      44.279   5.059  12.561  0.00  0.00    +0.000 A 
ATOM     24  S   UNL     1      43.607   3.502  12.357  0.00  0.00    +0.000 S 
ATOM     25  C   UNL     1      44.228   3.378  10.779  0.00  0.00    +0.000 A 
ATOM     26  N   UNL     1      44.004   2.269  10.021  0.00  0.00    +0.000 NA
ATOM     27  C   UNL     1      44.526   2.324   8.843  0.00  0.00    +0.000 A 
ATOM     28  N   UNL     1      45.255   3.385   8.348  0.00  0.00    +0.000 N 
ATOM     29  C   UNL     1      45.520   4.519   9.076  0.00  0.00    +0.000 A 
ATOM     30  O   UNL     1      46.180   5.441   8.614  0.00  0.00    +0.000 OA
ATOM     31  C   UNL     1      44.940   4.505  10.410  0.00  0.00    +0.000 A 
ATOM     32  H   UNL     1      45.631   3.355   7.413  0.00  0.00    +0.000 HD
ENDBRANCH  21  22
ENDBRANCH  19  21
ENDBRANCH   1  19
TORSDOF 8
ENDMDL
MODEL 9
REMARK VINA RESULT:    -6.825      2.770      3.614
REMARK INTER + INTRA:         -10.892
REMARK INTER:                 -10.080
REMARK INTRA:                  -0.812
REMARK UNBOUND:                -0.875
REMARK  Name = 
REMARK  9 active torsions:
REMARK  status: ('A' for Active; 'I' for Inactive)
REMARK    1  A    between atoms: C_1  and  C_2
REMARK    2  A    between atoms: C_2  and  C_3
REMARK    3  A    between atoms: C_2  and  C_20
REMARK    4  A    between atoms: C_3  and  N_4
REMARK    5  A    between atoms: N_4  and  C_5
REMARK    6  A    between atoms: C_9  and  C_10
REMARK    7  A    between atoms: C_10  and  N_11
REMARK    8  A    between atoms: N_11  and  C_12
REMARK    9  A    between atoms: C_12  and  C_13
REMARK                            x       y       z     vdW  Elec       q    Type
REMARK                         _______ _______ _______ _____ _____    ______ ____
ROOT
ATOM      1  N   UNL     1      47.436   7.126  13.671  0.00  0.00    +0.000 N 
ATOM      2  H   UNL     1      47.294   8.021  14.134  0.00  0.00    +0.000 HD
ENDROOT
BRANCH   1   3
ATOM      3  C   UNL     1      46.304   6.806  12.920  0.00  0.00    +0.000 A 
ATOM      4  C   UNL     1      45.603   7.708  12.117  0.00  0.00    +0.000 A 
ATOM      5  C   UNL     1      44.462   7.307  11.419  0.00  0.00    +0.000 A 
ATOM      6  C   UNL     1      43.999   5.995  11.522  0.00  0.00    +0.000 A 
ATOM      7  C   UNL     1      44.677   5.071  12.326  0.00  0.00    +0.000 A 
ATOM      8  C   UNL     1      45.800   5.503  13.044  0.00  0.00    +0.000 A 
BRANCH   7   9
ATOM      9  C   UNL     1      44.252   3.626  12.407  0.00  0.00    +0.000 C 
BRANCH   9  10
ATOM     10  N   UNL     1      44.958   2.827  11.404  0.00  0.00    +0.000 NA
ATOM     11  H   UNL     1      44.998   1.863  11.738  0.00  0.00    +0.000 HD
BRANCH  10  12
ATOM     12  C   UNL     1      44.250   2.850  10.121  0.00  0.00    +0.000 C 
BRANCH  12  13
ATOM     13  C   UNL     1      45.194   2.984   8.958  0.00  0.00    +0.000 A 
ATOM     14  C   UNL     1      45.879   1.899   8.447  0.00  0.00    +0.000 A 
ATOM     15  N   UNL     1      46.763   1.996   7.432  0.00  0.00    +0.000 NA
ATOM     16  C   UNL     1      46.915   3.239   6.951  0.00  0.00    +0.000 A 
ATOM     17  N   UNL     1      46.264   4.336   7.389  0.00  0.00    +0.000 NA
ATOM     18  N   UNL     1      45.385   4.207   8.417  0.00  0.00    +0.000 NA
ENDBRANCH  12  13
ENDBRANCH  10  12
ENDBRANCH   9  10
ENDBRANCH   7   9
ENDBRANCH   1   3
BRANCH   1  19
ATOM     19  C   UNL     1      48.068   6.119  14.521  0.00  0.00    +0.000 C 
BRANCH  19  21
ATOM     20  C   UNL     1      50.204   7.147  15.481  0.00  0.00    +0.000 C 
ATOM     21  C   UNL     1      48.746   6.744  15.759  0.00  0.00    +0.000 C 
BRANCH  21  22
ATOM     22  C   UNL     1      48.621   5.872  17.000  0.00  0.00    +0.000 A 
ATOM     23  C   UNL     1      48.797   4.497  17.026  0.00  0.00    +0.000 A 
ATOM     24  S   UNL     1      48.579   3.814  18.576  0.00  0.00    +0.000 S 
ATOM     25  C   UNL     1      48.246   5.334  19.262  0.00  0.00    +0.000 A 
ATOM     26  N   UNL     1      47.975   5.461  20.590  0.00  0.00    +0.000 NA
ATOM     27  C   UNL     1      47.754   6.674  20.967  0.00  0.00    +0.000 A 
ATOM     28  N   UNL     1      47.777   7.777  20.141  0.00  0.00    +0.000 N 
ATOM     29  C   UNL     1      48.031   7.701  18.793  0.00  0.00    +0.000 A 
ATOM     30  O   UNL     1      48.033   8.698  18.081  0.00  0.00    +0.000 OA
ATOM     31  C   UNL     1      48.297   6.350  18.325  0.00  0.00    +0.000 A 
ATOM     32  H   UNL     1      47.595   8.698  20.510  0.00  0.00    +0.000 HD
ENDBRANCH  21  22
ENDBRANCH  19  21
ENDBRANCH   1  19
TORSDOF 8
ENDMDL
