MODEL 1
REMARK VINA RESULT:    -8.483      0.000      0.000
REMARK INTER + INTRA:         -12.687
REMARK INTER:                 -11.707
REMARK INTRA:                  -0.980
REMARK UNBOUND:                -0.980
REMARK  Name = 
REMARK  7 active torsions:
REMARK  status: ('A' for Active; 'I' for Inactive)
REMARK    1  A    between atoms: N_1  and  C_2
REMARK    2  A    between atoms: C_2  and  C_3
REMARK    3  A    between atoms: C_2  and  C_10
REMARK    4  A    between atoms: C_3  and  C_4
REMARK    5  A    between atoms: C_13  and  C_14
REMARK    6  A    between atoms: C_14  and  N_15
REMARK    7  A    between atoms: C_16  and  C_18
REMARK                            x       y       z     vdW  Elec       q    Type
REMARK                         _______ _______ _______ _____ _____    ______ ____
ROOT
ATOM      1  C   UNL     1      45.186   4.306  11.262  0.00  0.00    +0.000 A 
ATOM      2  C   UNL     1      45.488   5.427  10.489  0.00  0.00    +0.000 A 
ATOM      3  C   UNL     1      46.124   6.521  11.079  0.00  0.00    +0.000 A 
ATOM      4  C   UNL     1      46.443   6.487  12.436  0.00  0.00    +0.000 A 
ATOM      5  C   UNL     1      46.071   5.351  13.141  0.00  0.00    +0.000 A 
ATOM      6  N   UNL     1      45.460   4.274  12.591  0.00  0.00    +0.000 NA
ENDROOT
BRANCH   1   7
ATOM      7  C   UNL     1      44.449   3.105  10.647  0.00  0.00    +0.000 C 
BRANCH   7   8
ATOM      8  N   UNL     1      43.131   2.866  11.284  0.00  0.00    +0.000 NA
ATOM      9  H   UNL     1      42.925   3.660  11.892  0.00  0.00    +0.000 HD
ATOM     10  H   UNL     1      43.224   2.067  11.912  0.00  0.00    +0.000 HD
ENDBRANCH   7   8
BRANCH   7  11
ATOM     11  C   UNL     1      44.293   3.271   9.112  0.00  0.00    +0.000 C 
BRANCH  11  12
ATOM     12  C   UNL     1      45.401   2.684   8.260  0.00  0.00    +0.000 A 
ATOM     13  C   UNL     1      46.140   3.504   7.396  0.00  0.00    +0.000 A 
ATOM     14  C   UNL     1      47.242   2.996   6.705  0.00  0.00    +0.000 A 
ATOM     15  C   UNL     1      47.619   1.666   6.874  0.00  0.00    +0.000 A 
ATOM     16  C   UNL     1      46.875   0.834   7.709  0.00  0.00    +0.000 A 
ATOM     17  C   UNL     1      45.767   1.338   8.394  0.00  0.00    +0.000 A 
ENDBRANCH  11  12
ENDBRANCH   7  11
ENDBRANCH   1   7
BRANCH   4  18
ATOM     18  C   UNL     1      47.103   7.643  13.126  0.00  0.00    +0.000 C 
BRANCH  18  19
ATOM     19  N   UNL     1      47.458   7.303  14.481  0.00  0.00    +0.000 N 
ATOM     20  C   UNL     1      48.725   6.893  14.812  0.00  0.00    +0.000 C 
ATOM     21  O   UNL     1      49.622   6.818  13.979  0.00  0.00    +0.000 OA
ATOM     22  H   UNL     1      46.698   7.138  15.133  0.00  0.00    +0.000 HD
BRANCH  20  23
ATOM     23  C   UNL     1      48.969   6.613  16.234  0.00  0.00    +0.000 A 
ATOM     24  C   UNL     1      49.520   7.594  17.046  0.00  0.00    +0.000 A 
ATOM     25  S   UNL     1      49.690   7.118  18.675  0.00  0.00    +0.000 S 
ATOM     26  C   UNL     1      49.081   5.563  18.343  0.00  0.00    +0.000 A 
ATOM     27  N   UNL     1      48.988   4.623  19.322  0.00  0.00    +0.000 NA
ATOM     28  C   UNL     1      48.538   3.478  18.921  0.00  0.00    +0.000 A 
ATOM     29  N   UNL     1      48.167   3.196  17.631  0.00  0.00    +0.000 N 
ATOM     30  C   UNL     1      48.208   4.124  16.623  0.00  0.00    +0.000 A 
ATOM     31  O   UNL     1      47.809   3.857  15.492  0.00  0.00    +0.000 OA
ATOM     32  C   UNL     1      48.729   5.420  17.012  0.00  0.00    +0.000 A 
ATOM     33  H   UNL     1      47.804   2.286  17.387  0.00  0.00    +0.000 HD
ENDBRANCH  20  23
ENDBRANCH  18  19
ENDBRANCH   4  18
TORSDOF 7
ENDMDL
MODEL 2
REMARK VINA RESULT:    -8.376      1.165      1.722
REMARK INTER + INTRA:         -12.540
REMARK INTER:                 -11.625
REMARK INTRA:                  -0.915
REMARK UNBOUND:                -0.980
REMARK  Name = 
REMARK  7 active torsions:
REMARK  status: ('A' for Active; 'I' for Inactive)
REMARK    1  A    between atoms: N_1  and  C_2
REMARK    2  A    between atoms: C_2  and  C_3
REMARK    3  A    between atoms: C_2  and  C_10
REMARK    4  A    between atoms: C_3  and  C_4
REMARK    5  A    between atoms: C_13  and  C_14
REMARK    6  A    between atoms: C_14  and  N_15
REMARK    7  A    between atoms: C_16  and  C_18
REMARK                            x       y       z     vdW  Elec       q    Type
REMARK                         _______ _______ _______ _____ _____    ______ ____
ROOT
ATOM      1  C   UNL     1      45.186   4.655  11.637  0.00  0.00    +0.000 A 
ATOM      2  C   UNL     1      45.691   4.284  12.883  0.00  0.00    +0.000 A 
ATOM      3  C   UNL     1      46.619   5.107  13.525  0.00  0.00    +0.000 A 
ATOM      4  C   UNL     1      47.040   6.286  12.911  0.00  0.00    +0.000 A 
ATOM      5  C   UNL     1      46.520   6.561  11.654  0.00  0.00    +0.000 A 
ATOM      6  N   UNL     1      45.613   5.783  11.013  0.00  0.00    +0.000 NA
ENDROOT
BRANCH   1   7
ATOM      7  C   UNL     1      44.196   3.748  10.890  0.00  0.00    +0.000 C 
BRANCH   7   8
ATOM      8  N   UNL     1      42.808   3.894  11.393  0.00  0.00    +0.000 NA
ATOM      9  H   UNL     1      42.817   3.719  12.399  0.00  0.00    +0.000 HD
ATOM     10  H   UNL     1      42.247   3.139  10.997  0.00  0.00    +0.000 HD
ENDBRANCH   7   8
BRANCH   7  11
ATOM     11  C   UNL     1      44.252   3.999   9.359  0.00  0.00    +0.000 C 
BRANCH  11  12
ATOM     12  C   UNL     1      45.324   3.244   8.598  0.00  0.00    +0.000 A 
ATOM     13  C   UNL     1      45.482   1.863   8.782  0.00  0.00    +0.000 A 
ATOM     14  C   UNL     1      46.379   1.141   7.992  0.00  0.00    +0.000 A 
ATOM     15  C   UNL     1      47.124   1.790   7.011  0.00  0.00    +0.000 A 
ATOM     16  C   UNL     1      46.996   3.167   6.839  0.00  0.00    +0.000 A 
ATOM     17  C   UNL     1      46.105   3.892   7.633  0.00  0.00    +0.000 A 
ENDBRANCH  11  12
ENDBRANCH   7  11
ENDBRANCH   1   7
BRANCH   4  18
ATOM     18  C   UNL     1      48.053   7.193  13.543  0.00  0.00    +0.000 C 
BRANCH  18  19
ATOM     19  N   UNL     1      47.941   7.172  14.980  0.00  0.00    +0.000 N 
ATOM     20  C   UNL     1      49.006   6.846  15.781  0.00  0.00    +0.000 C 
ATOM     21  O   UNL     1      50.110   6.577  15.318  0.00  0.00    +0.000 OA
ATOM     22  H   UNL     1      47.005   7.164  15.372  0.00  0.00    +0.000 HD
BRANCH  20  23
ATOM     23  C   UNL     1      48.771   6.899  17.231  0.00  0.00    +0.000 A 
ATOM     24  C   UNL     1      48.461   8.110  17.836  0.00  0.00    +0.000 A 
ATOM     25  S   UNL     1      48.174   7.983  19.512  0.00  0.00    +0.000 S 
ATOM     26  C   UNL     1      48.504   6.314  19.500  0.00  0.00    +0.000 A 
ATOM     27  N   UNL     1      48.465   5.582  20.647  0.00  0.00    +0.000 NA
ATOM     28  C   UNL     1      48.768   4.334  20.494  0.00  0.00    +0.000 A 
ATOM     29  N   UNL     1      49.098   3.754  19.297  0.00  0.00    +0.000 N 
ATOM     30  C   UNL     1      49.112   4.444  18.112  0.00  0.00    +0.000 A 
ATOM     31  O   UNL     1      49.352   3.880  17.047  0.00  0.00    +0.000 OA
ATOM     32  C   UNL     1      48.805   5.855  18.229  0.00  0.00    +0.000 A 
ATOM     33  H   UNL     1      49.306   2.767  19.243  0.00  0.00    +0.000 HD
ENDBRANCH  20  23
ENDBRANCH  18  19
ENDBRANCH   4  18
TORSDOF 7
ENDMDL
MODEL 3
REMARK VINA RESULT:    -8.279      1.807      2.515
REMARK INTER + INTRA:         -12.405
REMARK INTER:                 -11.319
REMARK INTRA:                  -1.086
REMARK UNBOUND:                -0.980
REMARK  Name = 
REMARK  7 active torsions:
REMARK  status: ('A' for Active; 'I' for Inactive)
REMARK    1  A    between atoms: N_1  and  C_2
REMARK    2  A    between atoms: C_2  and  C_3
REMARK    3  A    between atoms: C_2  and  C_10
REMARK    4  A    between atoms: C_3  and  C_4
REMARK    5  A    between atoms: C_13  and  C_14
REMARK    6  A    between atoms: C_14  and  N_15
REMARK    7  A    between atoms: C_16  and  C_18
REMARK                            x       y       z     vdW  Elec       q    Type
REMARK                         _______ _______ _______ _____ _____    ______ ____
ROOT
ATOM      1  C   UNL     1      45.232   4.563  11.622  0.00  0.00    +0.000 A 
ATOM      2  C   UNL     1      45.713   5.743  11.053  0.00  0.00    +0.000 A 
ATOM      3  C   UNL     1      46.614   6.535  11.767  0.00  0.00    +0.000 A 
ATOM      4  C   UNL     1      47.017   6.147  13.044  0.00  0.00    +0.000 A 
ATOM      5  C   UNL     1      46.460   4.981  13.552  0.00  0.00    +0.000 A 
ATOM      6  N   UNL     1      45.590   4.191  12.878  0.00  0.00    +0.000 NA
ENDROOT
BRANCH   1   7
ATOM      7  C   UNL     1      44.208   3.694  10.875  0.00  0.00    +0.000 C 
BRANCH   7   8
ATOM      8  N   UNL     1      42.828   3.883  11.385  0.00  0.00    +0.000 NA
ATOM      9  H   UNL     1      42.774   3.461  12.314  0.00  0.00    +0.000 HD
ATOM     10  H   UNL     1      42.198   3.330  10.804  0.00  0.00    +0.000 HD
ENDBRANCH   7   8
BRANCH   7  11
ATOM     11  C   UNL     1      44.266   3.950   9.346  0.00  0.00    +0.000 C 
BRANCH  11  12
ATOM     12  C   UNL     1      45.340   3.199   8.583  0.00  0.00    +0.000 A 
ATOM     13  C   UNL     1      45.497   1.817   8.759  0.00  0.00    +0.000 A 
ATOM     14  C   UNL     1      46.397   1.099   7.969  0.00  0.00    +0.000 A 
ATOM     15  C   UNL     1      47.145   1.753   6.993  0.00  0.00    +0.000 A 
ATOM     16  C   UNL     1      47.017   3.131   6.829  0.00  0.00    +0.000 A 
ATOM     17  C   UNL     1      46.125   3.852   7.624  0.00  0.00    +0.000 A 
ENDBRANCH  11  12
ENDBRANCH   7  11
ENDBRANCH   1   7
BRANCH   4  18
ATOM     18  C   UNL     1      47.963   6.973  13.865  0.00  0.00    +0.000 C 
BRANCH  18  19
ATOM     19  N   UNL     1      47.885   6.616  15.259  0.00  0.00    +0.000 N 
ATOM     20  C   UNL     1      49.011   6.387  16.007  0.00  0.00    +0.000 C 
ATOM     21  O   UNL     1      50.139   6.496  15.536  0.00  0.00    +0.000 OA
ATOM     22  H   UNL     1      46.986   6.301  15.608  0.00  0.00    +0.000 HD
BRANCH  20  23
ATOM     23  C   UNL     1      48.798   6.068  17.426  0.00  0.00    +0.000 A 
ATOM     24  C   UNL     1      49.069   4.790  17.895  0.00  0.00    +0.000 A 
ATOM     25  S   UNL     1      48.812   4.607  19.571  0.00  0.00    +0.000 S 
ATOM     26  C   UNL     1      48.279   6.216  19.722  0.00  0.00    +0.000 A 
ATOM     27  N   UNL     1      47.868   6.709  20.922  0.00  0.00    +0.000 NA
ATOM     28  C   UNL     1      47.460   7.936  20.884  0.00  0.00    +0.000 A 
ATOM     29  N   UNL     1      47.436   8.713  19.754  0.00  0.00    +0.000 N 
ATOM     30  C   UNL     1      47.876   8.269  18.534  0.00  0.00    +0.000 A 
ATOM     31  O   UNL     1      47.899   9.012  17.554  0.00  0.00    +0.000 OA
ATOM     32  C   UNL     1      48.321   6.890  18.514  0.00  0.00    +0.000 A 
ATOM     33  H   UNL     1      47.123   9.672  19.796  0.00  0.00    +0.000 HD
ENDBRANCH  20  23
ENDBRANCH  18  19
ENDBRANCH   4  18
TORSDOF 7
ENDMDL
MODEL 4
REMARK VINA RESULT:    -7.153      3.721      5.599
REMARK INTER + INTRA:         -10.851
REMARK INTER:                  -9.980
REMARK INTRA:                  -0.871
REMARK UNBOUND:                -0.980
REMARK  Name = 
REMARK  7 active torsions:
REMARK  status: ('A' for Active; 'I' for Inactive)
REMARK    1  A    between atoms: N_1  and  C_2
REMARK    2  A    between atoms: C_2  and  C_3
REMARK    3  A    between atoms: C_2  and  C_10
REMARK    4  A    between atoms: C_3  and  C_4
REMARK    5  A    between atoms: C_13  and  C_14
REMARK    6  A    between atoms: C_14  and  N_15
REMARK    7  A    between atoms: C_16  and  C_18
REMARK                            x       y       z     vdW  Elec       q    Type
REMARK                         _______ _______ _______ _____ _____    ______ ____
ROOT
ATOM      1  C   UNL     1      45.217   4.296  11.619  0.00  0.00    +0.000 A 
ATOM      2  C   UNL     1      45.744   3.925  12.857  0.00  0.00    +0.000 A 
ATOM      3  C   UNL     1      46.547   4.824  13.561  0.00  0.00    +0.000 A 
ATOM      4  C   UNL     1      46.824   6.078  13.019  0.00  0.00    +0.000 A 
ATOM      5  C   UNL     1      46.294   6.352  11.765  0.00  0.00    +0.000 A 
ATOM      6  N   UNL     1      45.506   5.501  11.064  0.00  0.00    +0.000 NA
ENDROOT
BRANCH   1   7
ATOM      7  C   UNL     1      44.363   3.311  10.804  0.00  0.00    +0.000 C 
BRANCH   7   8
ATOM      8  N   UNL     1      42.977   3.204  11.321  0.00  0.00    +0.000 NA
ATOM      9  H   UNL     1      43.016   3.252  12.341  0.00  0.00    +0.000 HD
ATOM     10  H   UNL     1      42.634   2.266  11.112  0.00  0.00    +0.000 HD
ENDBRANCH   7   8
BRANCH   7  11
ATOM     11  C   UNL     1      44.358   3.689   9.299  0.00  0.00    +0.000 C 
BRANCH  11  12
ATOM     12  C   UNL     1      45.374   2.977   8.428  0.00  0.00    +0.000 A 
ATOM     13  C   UNL     1      46.177   3.704   7.538  0.00  0.00    +0.000 A 
ATOM     14  C   UNL     1      47.200   3.073   6.827  0.00  0.00    +0.000 A 
ATOM     15  C   UNL     1      47.432   1.711   7.001  0.00  0.00    +0.000 A 
ATOM     16  C   UNL     1      46.622   0.972   7.862  0.00  0.00    +0.000 A 
ATOM     17  C   UNL     1      45.594   1.600   8.567  0.00  0.00    +0.000 A 
ENDBRANCH  11  12
ENDBRANCH   7  11
ENDBRANCH   1   7
BRANCH   4  18
ATOM     18  C   UNL     1      47.701   7.072  13.720  0.00  0.00    +0.000 C 
BRANCH  18  19
ATOM     19  N   UNL     1      48.106   8.127  12.826  0.00  0.00    +0.000 N 
ATOM     20  C   UNL     1      49.251   8.852  13.039  0.00  0.00    +0.000 C 
ATOM     21  O   UNL     1      49.997   8.626  13.986  0.00  0.00    +0.000 OA
ATOM     22  H   UNL     1      47.408   8.482  12.181  0.00  0.00    +0.000 HD
BRANCH  20  23
ATOM     23  C   UNL     1      49.571   9.875  12.033  0.00  0.00    +0.000 A 
ATOM     24  C   UNL     1      48.752  10.987  11.893  0.00  0.00    +0.000 A 
ATOM     25  S   UNL     1      49.296  12.094  10.716  0.00  0.00    +0.000 S 
ATOM     26  C   UNL     1      50.619  11.102  10.313  0.00  0.00    +0.000 A 
ATOM     27  N   UNL     1      51.490  11.459   9.330  0.00  0.00    +0.000 NA
ATOM     28  C   UNL     1      52.428  10.597   9.109  0.00  0.00    +0.000 A 
ATOM     29  N   UNL     1      52.575   9.416   9.789  0.00  0.00    +0.000 N 
ATOM     30  C   UNL     1      51.745   9.034  10.812  0.00  0.00    +0.000 A 
ATOM     31  O   UNL     1      51.941   7.998  11.443  0.00  0.00    +0.000 OA
ATOM     32  C   UNL     1      50.658   9.954  11.085  0.00  0.00    +0.000 A 
ATOM     33  H   UNL     1      53.343   8.793   9.581  0.00  0.00    +0.000 HD
ENDBRANCH  20  23
ENDBRANCH  18  19
ENDBRANCH   4  18
TORSDOF 7
ENDMDL
MODEL 5
REMARK VINA RESULT:    -7.079      3.208      8.287
REMARK INTER + INTRA:         -10.750
REMARK INTER:                  -9.789
REMARK INTRA:                  -0.961
REMARK UNBOUND:                -0.980
REMARK  Name = 
REMARK  7 active torsions:
REMARK  status: ('A' for Active; 'I' for Inactive)
REMARK    1  A    between atoms: N_1  and  C_2
REMARK    2  A    between atoms: C_2  and  C_3
REMARK    3  A    between atoms: C_2  and  C_10
REMARK    4  A    between atoms: C_3  and  C_4
REMARK    5  A    between atoms: C_13  and  C_14
REMARK    6  A    between atoms: C_14  and  N_15
REMARK    7  A    between atoms: C_16  and  C_18
REMARK                            x       y       z     vdW  Elec       q    Type
REMARK                         _______ _______ _______ _____ _____    ______ ____
ROOT
ATOM      1  C   UNL     1      49.610   6.268  16.411  0.00  0.00    +0.000 A 
ATOM      2  C   UNL     1      50.443   7.182  15.765  0.00  0.00    +0.000 A 
ATOM      3  C   UNL     1      50.103   7.645  14.492  0.00  0.00    +0.000 A 
ATOM      4  C   UNL     1      48.942   7.184  13.874  0.00  0.00    +0.000 A 
ATOM      5  C   UNL     1      48.190   6.245  14.569  0.00  0.00    +0.000 A 
ATOM      6  N   UNL     1      48.493   5.785  15.807  0.00  0.00    +0.000 NA
ENDROOT
BRANCH   1   7
ATOM      7  C   UNL     1      49.981   5.711  17.794  0.00  0.00    +0.000 C 
BRANCH   7   8
ATOM      8  N   UNL     1      49.287   6.425  18.894  0.00  0.00    +0.000 NA
ATOM      9  H   UNL     1      49.316   7.425  18.689  0.00  0.00    +0.000 HD
ATOM     10  H   UNL     1      49.841   6.311  19.743  0.00  0.00    +0.000 HD
ENDBRANCH   7   8
BRANCH   7  11
ATOM     11  C   UNL     1      49.708   4.185  17.874  0.00  0.00    +0.000 C 
BRANCH  11  12
ATOM     12  C   UNL     1      50.923   3.284  17.782  0.00  0.00    +0.000 A 
ATOM     13  C   UNL     1      52.179   3.744  18.204  0.00  0.00    +0.000 A 
ATOM     14  C   UNL     1      53.275   2.880  18.241  0.00  0.00    +0.000 A 
ATOM     15  C   UNL     1      53.127   1.549  17.860  0.00  0.00    +0.000 A 
ATOM     16  C   UNL     1      51.891   1.088  17.412  0.00  0.00    +0.000 A 
ATOM     17  C   UNL     1      50.796   1.953  17.366  0.00  0.00    +0.000 A 
ENDBRANCH  11  12
ENDBRANCH   7  11
ENDBRANCH   1   7
BRANCH   4  18
ATOM     18  C   UNL     1      48.543   7.628  12.498  0.00  0.00    +0.000 C 
BRANCH  18  19
ATOM     19  N   UNL     1      47.765   6.614  11.832  0.00  0.00    +0.000 N 
ATOM     20  C   UNL     1      46.418   6.761  11.624  0.00  0.00    +0.000 C 
ATOM     21  O   UNL     1      45.812   7.770  11.972  0.00  0.00    +0.000 OA
ATOM     22  H   UNL     1      48.183   5.693  11.742  0.00  0.00    +0.000 HD
BRANCH  20  23
ATOM     23  C   UNL     1      45.747   5.672  10.899  0.00  0.00    +0.000 A 
ATOM     24  C   UNL     1      45.848   5.599   9.516  0.00  0.00    +0.000 A 
ATOM     25  S   UNL     1      45.052   4.249   8.843  0.00  0.00    +0.000 S 
ATOM     26  C   UNL     1      44.499   3.742  10.370  0.00  0.00    +0.000 A 
ATOM     27  N   UNL     1      43.715   2.638  10.501  0.00  0.00    +0.000 NA
ATOM     28  C   UNL     1      43.344   2.388  11.715  0.00  0.00    +0.000 A 
ATOM     29  N   UNL     1      43.693   3.141  12.806  0.00  0.00    +0.000 N 
ATOM     30  C   UNL     1      44.512   4.237  12.725  0.00  0.00    +0.000 A 
ATOM     31  O   UNL     1      44.857   4.853  13.731  0.00  0.00    +0.000 OA
ATOM     32  C   UNL     1      44.938   4.578  11.382  0.00  0.00    +0.000 A 
ATOM     33  H   UNL     1      43.384   2.880  13.732  0.00  0.00    +0.000 HD
ENDBRANCH  20  23
ENDBRANCH  18  19
ENDBRANCH   4  18
TORSDOF 7
ENDMDL
MODEL 6
REMARK VINA RESULT:    -6.957      3.352      7.972
REMARK INTER + INTRA:         -10.581
REMARK INTER:                  -9.359
REMARK INTRA:                  -1.222
REMARK UNBOUND:                -0.980
REMARK  Name = 
REMARK  7 active torsions:
REMARK  status: ('A' for Active; 'I' for Inactive)
REMARK    1  A    between atoms: N_1  and  C_2
REMARK    2  A    between atoms: C_2  and  C_3
REMARK    3  A    between atoms: C_2  and  C_10
REMARK    4  A    between atoms: C_3  and  C_4
REMARK    5  A    between atoms: C_13  and  C_14
REMARK    6  A    between atoms: C_14  and  N_15
REMARK    7  A    between atoms: C_16  and  C_18
REMARK                            x       y       z     vdW  Elec       q    Type
REMARK                         _______ _______ _______ _____ _____    ______ ____
ROOT
ATOM      1  C   UNL     1      49.280   7.621  16.075  0.00  0.00    +0.000 A 
ATOM      2  C   UNL     1      48.470   8.717  15.780  0.00  0.00    +0.000 A 
ATOM      3  C   UNL     1      48.073   8.947  14.461  0.00  0.00    +0.000 A 
ATOM      4  C   UNL     1      48.497   8.086  13.450  0.00  0.00    +0.000 A 
ATOM      5  C   UNL     1      49.334   7.043  13.823  0.00  0.00    +0.000 A 
ATOM      6  N   UNL     1      49.728   6.794  15.095  0.00  0.00    +0.000 NA
ENDROOT
BRANCH   1   7
ATOM      7  C   UNL     1      49.765   7.368  17.511  0.00  0.00    +0.000 C 
BRANCH   7   8
ATOM      8  N   UNL     1      49.962   8.627  18.270  0.00  0.00    +0.000 NA
ATOM      9  H   UNL     1      49.406   9.356  17.821  0.00  0.00    +0.000 HD
ATOM     10  H   UNL     1      50.932   8.920  18.149  0.00  0.00    +0.000 HD
ENDBRANCH   7   8
BRANCH   7  11
ATOM     11  C   UNL     1      48.799   6.418  18.268  0.00  0.00    +0.000 C 
BRANCH  11  12
ATOM     12  C   UNL     1      48.793   4.971  17.815  0.00  0.00    +0.000 A 
ATOM     13  C   UNL     1      47.679   4.443  17.148  0.00  0.00    +0.000 A 
ATOM     14  C   UNL     1      47.716   3.152  16.616  0.00  0.00    +0.000 A 
ATOM     15  C   UNL     1      48.867   2.379  16.744  0.00  0.00    +0.000 A 
ATOM     16  C   UNL     1      49.970   2.883  17.430  0.00  0.00    +0.000 A 
ATOM     17  C   UNL     1      49.932   4.170  17.969  0.00  0.00    +0.000 A 
ENDBRANCH  11  12
ENDBRANCH   7  11
ENDBRANCH   1   7
BRANCH   4  18
ATOM     18  C   UNL     1      48.122   8.300  12.014  0.00  0.00    +0.000 C 
BRANCH  18  19
ATOM     19  N   UNL     1      47.474   7.134  11.468  0.00  0.00    +0.000 N 
ATOM     20  C   UNL     1      46.108   7.023  11.426  0.00  0.00    +0.000 C 
ATOM     21  O   UNL     1      45.370   7.916  11.828  0.00  0.00    +0.000 OA
ATOM     22  H   UNL     1      48.043   6.303  11.344  0.00  0.00    +0.000 HD
BRANCH  20  23
ATOM     23  C   UNL     1      45.573   5.800  10.810  0.00  0.00    +0.000 A 
ATOM     24  C   UNL     1      45.793   5.553   9.462  0.00  0.00    +0.000 A 
ATOM     25  S   UNL     1      45.145   4.070   8.924  0.00  0.00    +0.000 S 
ATOM     26  C   UNL     1      44.501   3.728  10.461  0.00  0.00    +0.000 A 
ATOM     27  N   UNL     1      43.783   2.594  10.685  0.00  0.00    +0.000 NA
ATOM     28  C   UNL     1      43.329   2.479  11.891  0.00  0.00    +0.000 A 
ATOM     29  N   UNL     1      43.537   3.393  12.891  0.00  0.00    +0.000 N 
ATOM     30  C   UNL     1      44.286   4.529  12.721  0.00  0.00    +0.000 A 
ATOM     31  O   UNL     1      44.506   5.296  13.655  0.00  0.00    +0.000 OA
ATOM     32  C   UNL     1      44.799   4.720  11.379  0.00  0.00    +0.000 A 
ATOM     33  H   UNL     1      43.170   3.234  13.818  0.00  0.00    +0.000 HD
ENDBRANCH  20  23
ENDBRANCH  18  19
ENDBRANCH   4  18
TORSDOF 7
ENDMDL
MODEL 7
REMARK VINA RESULT:    -6.907      3.205      8.551
REMARK INTER + INTRA:         -10.512
REMARK INTER:                  -9.536
REMARK INTRA:                  -0.975
REMARK UNBOUND:                -0.980
REMARK  Name = 
REMARK  7 active torsions:
REMARK  status: ('A' for Active; 'I' for Inactive)
REMARK    1  A    between atoms: N_1  and  C_2
REMARK    2  A    between atoms: C_2  and  C_3
REMARK    3  A    between atoms: C_2  and  C_10
REMARK    4  A    between atoms: C_3  and  C_4
REMARK    5  A    between atoms: C_13  and  C_14
REMARK    6  A    between atoms: C_14  and  N_15
REMARK    7  A    between atoms: C_16  and  C_18
REMARK                            x       y       z     vdW  Elec       q    Type
REMARK                         _______ _______ _______ _____ _____    ______ ____
ROOT
ATOM      1  C   UNL     1      50.246   6.972  15.711  0.00  0.00    +0.000 A 
ATOM      2  C   UNL     1      50.683   7.875  14.741  0.00  0.00    +0.000 A 
ATOM      3  C   UNL     1      49.892   8.113  13.615  0.00  0.00    +0.000 A 
ATOM      4  C   UNL     1      48.680   7.441  13.466  0.00  0.00    +0.000 A 
ATOM      5  C   UNL     1      48.339   6.530  14.456  0.00  0.00    +0.000 A 
ATOM      6  N   UNL     1      49.084   6.286  15.561  0.00  0.00    +0.000 NA
ENDROOT
BRANCH   1   7
ATOM      7  C   UNL     1      51.116   6.661  16.940  0.00  0.00    +0.000 C 
BRANCH   7   8
ATOM      8  N   UNL     1      51.545   7.888  17.653  0.00  0.00    +0.000 NA
ATOM      9  H   UNL     1      52.435   8.190  17.254  0.00  0.00    +0.000 HD
ATOM     10  H   UNL     1      51.758   7.634  18.618  0.00  0.00    +0.000 HD
ENDBRANCH   7   8
BRANCH   7  11
ATOM     11  C   UNL     1      50.388   5.691  17.909  0.00  0.00    +0.000 C 
BRANCH  11  12
ATOM     12  C   UNL     1      50.797   4.233  17.826  0.00  0.00    +0.000 A 
ATOM     13  C   UNL     1      49.880   3.264  17.394  0.00  0.00    +0.000 A 
ATOM     14  C   UNL     1      50.285   1.943  17.195  0.00  0.00    +0.000 A 
ATOM     15  C   UNL     1      51.610   1.578  17.422  0.00  0.00    +0.000 A 
ATOM     16  C   UNL     1      52.523   2.526  17.879  0.00  0.00    +0.000 A 
ATOM     17  C   UNL     1      52.118   3.846  18.087  0.00  0.00    +0.000 A 
ENDBRANCH  11  12
ENDBRANCH   7  11
ENDBRANCH   1   7
BRANCH   4  18
ATOM     18  C   UNL     1      47.804   7.639  12.264  0.00  0.00    +0.000 C 
BRANCH  18  19
ATOM     19  N   UNL     1      47.050   6.446  11.970  0.00  0.00    +0.000 N 
ATOM     20  C   UNL     1      45.702   6.370  12.208  0.00  0.00    +0.000 C 
ATOM     21  O   UNL     1      45.066   7.316  12.661  0.00  0.00    +0.000 OA
ATOM     22  H   UNL     1      47.576   5.592  11.816  0.00  0.00    +0.000 HD
BRANCH  20  23
ATOM     23  C   UNL     1      45.044   5.111  11.829  0.00  0.00    +0.000 A 
ATOM     24  C   UNL     1      44.333   4.390  12.779  0.00  0.00    +0.000 A 
ATOM     25  S   UNL     1      43.595   2.984  12.159  0.00  0.00    +0.000 S 
ATOM     26  C   UNL     1      44.242   3.259  10.609  0.00  0.00    +0.000 A 
ATOM     27  N   UNL     1      44.012   2.388   9.589  0.00  0.00    +0.000 NA
ATOM     28  C   UNL     1      44.591   2.706   8.476  0.00  0.00    +0.000 A 
ATOM     29  N   UNL     1      45.369   3.820   8.294  0.00  0.00    +0.000 N 
ATOM     30  C   UNL     1      45.594   4.743   9.283  0.00  0.00    +0.000 A 
ATOM     31  O   UNL     1      46.246   5.763   9.069  0.00  0.00    +0.000 OA
ATOM     32  C   UNL     1      44.989   4.422  10.560  0.00  0.00    +0.000 A 
ATOM     33  H   UNL     1      45.777   4.021   7.393  0.00  0.00    +0.000 HD
ENDBRANCH  20  23
ENDBRANCH  18  19
ENDBRANCH   4  18
TORSDOF 7
ENDMDL
MODEL 8
REMARK VINA RESULT:    -6.892      2.505      3.632
REMARK INTER + INTRA:         -10.491
REMARK INTER:                  -9.860
REMARK INTRA:                  -0.631
REMARK UNBOUND:                -0.980
REMARK  Name = 
REMARK  7 active torsions:
REMARK  status: ('A' for Active; 'I' for Inactive)
REMARK    1  A    between atoms: N_1  and  C_2
REMARK    2  A    between atoms: C_2  and  C_3
REMARK    3  A    between atoms: C_2  and  C_10
REMARK    4  A    between atoms: C_3  and  C_4
REMARK    5  A    between atoms: C_13  and  C_14
REMARK    6  A    between atoms: C_14  and  N_15
REMARK    7  A    between atoms: C_16  and  C_18
REMARK                            x       y       z     vdW  Elec       q    Type
REMARK                         _______ _______ _______ _____ _____    ______ ____
ROOT
ATOM      1  C   UNL     1      45.228   4.432  11.299  0.00  0.00    +0.000 A 
ATOM      2  C   UNL     1      45.421   3.311  12.108  0.00  0.00    +0.000 A 
ATOM      3  C   UNL     1      46.132   3.437  13.302  0.00  0.00    +0.000 A 
ATOM      4  C   UNL     1      46.651   4.676  13.672  0.00  0.00    +0.000 A 
ATOM      5  C   UNL     1      46.449   5.731  12.792  0.00  0.00    +0.000 A 
ATOM      6  N   UNL     1      45.757   5.638  11.631  0.00  0.00    +0.000 NA
ENDROOT
BRANCH   1   7
ATOM      7  C   UNL     1      44.484   4.314   9.960  0.00  0.00    +0.000 C 
BRANCH   7   8
ATOM      8  N   UNL     1      43.286   5.186   9.901  0.00  0.00    +0.000 NA
ATOM      9  H   UNL     1      42.849   5.185  10.824  0.00  0.00    +0.000 HD
ATOM     10  H   UNL     1      42.604   4.745   9.283  0.00  0.00    +0.000 HD
ENDBRANCH   7   8
BRANCH   7  11
ATOM     11  C   UNL     1      45.432   4.606   8.766  0.00  0.00    +0.000 C 
BRANCH  11  12
ATOM     12  C   UNL     1      46.012   3.394   8.063  0.00  0.00    +0.000 A 
ATOM     13  C   UNL     1      46.891   3.557   6.982  0.00  0.00    +0.000 A 
ATOM     14  C   UNL     1      47.527   2.452   6.412  0.00  0.00    +0.000 A 
ATOM     15  C   UNL     1      47.293   1.176   6.917  0.00  0.00    +0.000 A 
ATOM     16  C   UNL     1      46.399   0.999   7.972  0.00  0.00    +0.000 A 
ATOM     17  C   UNL     1      45.756   2.102   8.537  0.00  0.00    +0.000 A 
ENDBRANCH  11  12
ENDBRANCH   7  11
ENDBRANCH   1   7
BRANCH   4  18
ATOM     18  C   UNL     1      47.445   4.862  14.931  0.00  0.00    +0.000 C 
BRANCH  18  19
ATOM     19  N   UNL     1      47.941   6.211  15.037  0.00  0.00    +0.000 N 
ATOM     20  C   UNL     1      48.983   6.532  15.868  0.00  0.00    +0.000 C 
ATOM     21  O   UNL     1      49.559   5.687  16.546  0.00  0.00    +0.000 OA
ATOM     22  H   UNL     1      47.350   6.952  14.674  0.00  0.00    +0.000 HD
BRANCH  20  23
ATOM     23  C   UNL     1      49.418   7.936  15.856  0.00  0.00    +0.000 A 
ATOM     24  C   UNL     1      48.472   8.952  15.839  0.00  0.00    +0.000 A 
ATOM     25  S   UNL     1      49.148  10.518  15.875  0.00  0.00    +0.000 S 
ATOM     26  C   UNL     1      50.732   9.895  15.861  0.00  0.00    +0.000 A 
ATOM     27  N   UNL     1      51.811  10.724  15.851  0.00  0.00    +0.000 NA
ATOM     28  C   UNL     1      52.951  10.115  15.810  0.00  0.00    +0.000 A 
ATOM     29  N   UNL     1      53.105   8.753  15.786  0.00  0.00    +0.000 N 
ATOM     30  C   UNL     1      52.048   7.881  15.834  0.00  0.00    +0.000 A 
ATOM     31  O   UNL     1      52.224   6.665  15.874  0.00  0.00    +0.000 OA
ATOM     32  C   UNL     1      50.743   8.511  15.856  0.00  0.00    +0.000 A 
ATOM     33  H   UNL     1      54.027   8.339  15.774  0.00  0.00    +0.000 HD
ENDBRANCH  20  23
ENDBRANCH  18  19
ENDBRANCH   4  18
TORSDOF 7
ENDMDL
MODEL 9
REMARK VINA RESULT:    -6.693      3.151      9.317
REMARK INTER + INTRA:         -10.217
REMARK INTER:                  -9.011
REMARK INTRA:                  -1.206
REMARK UNBOUND:                -0.980
REMARK  Name = 
REMARK  7 active torsions:
REMARK  status: ('A' for Active; 'I' for Inactive)
REMARK    1  A    between atoms: N_1  and  C_2
REMARK    2  A    between atoms: C_2  and  C_3
REMARK    3  A    between atoms: C_2  and  C_10
REMARK    4  A    between atoms: C_3  and  C_4
REMARK    5  A    between atoms: C_13  and  C_14
REMARK    6  A    between atoms: C_14  and  N_15
REMARK    7  A    between atoms: C_16  and  C_18
REMARK                            x       y       z     vdW  Elec       q    Type
REMARK                         _______ _______ _______ _____ _____    ______ ____
ROOT
ATOM      1  C   UNL     1      49.462   4.958  17.331  0.00  0.00    +0.000 A 
ATOM      2  C   UNL     1      50.180   6.069  16.886  0.00  0.00    +0.000 A 
ATOM      3  C   UNL     1      49.717   6.794  15.787  0.00  0.00    +0.000 A 
ATOM      4  C   UNL     1      48.549   6.398  15.137  0.00  0.00    +0.000 A 
ATOM      5  C   UNL     1      47.918   5.259  15.618  0.00  0.00    +0.000 A 
ATOM      6  N   UNL     1      48.341   4.541  16.687  0.00  0.00    +0.000 NA
ENDROOT
BRANCH   1   7
ATOM      7  C   UNL     1      49.971   4.118  18.513  0.00  0.00    +0.000 C 
BRANCH   7   8
ATOM      8  N   UNL     1      51.075   3.208  18.124  0.00  0.00    +0.000 NA
ATOM      9  H   UNL     1      51.942   3.576  18.518  0.00  0.00    +0.000 HD
ATOM     10  H   UNL     1      51.194   3.270  17.113  0.00  0.00    +0.000 HD
ENDBRANCH   7   8
BRANCH   7  11
ATOM     11  C   UNL     1      50.399   5.023  19.699  0.00  0.00    +0.000 C 
BRANCH  11  12
ATOM     12  C   UNL     1      49.276   5.659  20.493  0.00  0.00    +0.000 A 
ATOM     13  C   UNL     1      48.587   4.917  21.463  0.00  0.00    +0.000 A 
ATOM     14  C   UNL     1      47.639   5.531  22.285  0.00  0.00    +0.000 A 
ATOM     15  C   UNL     1      47.374   6.891  22.149  0.00  0.00    +0.000 A 
ATOM     16  C   UNL     1      48.033   7.633  21.169  0.00  0.00    +0.000 A 
ATOM     17  C   UNL     1      48.974   7.019  20.341  0.00  0.00    +0.000 A 
ENDBRANCH  11  12
ENDBRANCH   7  11
ENDBRANCH   1   7
BRANCH   4  18
ATOM     18  C   UNL     1      48.021   7.125  13.936  0.00  0.00    +0.000 C 
BRANCH  18  19
ATOM     19  N   UNL     1      47.286   6.234  13.074  0.00  0.00    +0.000 N 
ATOM     20  C   UNL     1      46.460   6.708  12.087  0.00  0.00    +0.000 C 
ATOM     21  O   UNL     1      46.322   7.908  11.873  0.00  0.00    +0.000 OA
ATOM     22  H   UNL     1      47.202   5.267  13.369  0.00  0.00    +0.000 HD
BRANCH  20  23
ATOM     23  C   UNL     1      45.796   5.696  11.252  0.00  0.00    +0.000 A 
ATOM     24  C   UNL     1      45.934   5.742   9.871  0.00  0.00    +0.000 A 
ATOM     25  S   UNL     1      45.141   4.468   9.061  0.00  0.00    +0.000 S 
ATOM     26  C   UNL     1      44.539   3.838  10.523  0.00  0.00    +0.000 A 
ATOM     27  N   UNL     1      43.739   2.738  10.536  0.00  0.00    +0.000 NA
ATOM     28  C   UNL     1      43.331   2.389  11.713  0.00  0.00    +0.000 A 
ATOM     29  N   UNL     1      43.659   3.038  12.875  0.00  0.00    +0.000 N 
ATOM     30  C   UNL     1      44.493   4.125  12.912  0.00  0.00    +0.000 A 
ATOM     31  O   UNL     1      44.818   4.646  13.977  0.00  0.00    +0.000 OA
ATOM     32  C   UNL     1      44.961   4.576  11.616  0.00  0.00    +0.000 A 
ATOM     33  H   UNL     1      43.322   2.702  13.765  0.00  0.00    +0.000 HD
ENDBRANCH  20  23
ENDBRANCH  18  19
ENDBRANCH   4  18
TORSDOF 7
ENDMDL
