MODEL 1
REMARK VINA RESULT:    -7.305      0.000      0.000
REMARK INTER + INTRA:         -11.077
REMARK INTER:                  -9.867
REMARK INTRA:                  -1.210
REMARK UNBOUND:                -1.210
REMARK  Name = 
REMARK  6 active torsions:
REMARK  status: ('A' for Active; 'I' for Inactive)
REMARK    1  A    between atoms: C_2  and  C_20
REMARK    2  A    between atoms: N_3  and  C_4
REMARK    3  A    between atoms: C_4  and  C_5
REMARK    4  A    between atoms: C_8  and  C_9
REMARK    5  A    between atoms: C_9  and  C_10
REMARK    6  A    between atoms: C_10  and  C_11
REMARK                            x       y       z     vdW  Elec       q    Type
REMARK                         _______ _______ _______ _____ _____    ______ ____
ROOT
ATOM      1  C   UNL     1      48.329   7.788  12.457  0.00  0.00    +0.000 C 
ENDROOT
BRANCH   1   2
ATOM      2  C   UNL     1      48.954   7.347  13.755  0.00  0.00    +0.000 A 
ATOM      3  C   UNL     1      48.230   6.555  14.654  0.00  0.00    +0.000 A 
ATOM      4  C   UNL     1      48.793   6.168  15.876  0.00  0.00    +0.000 A 
ATOM      5  C   UNL     1      50.090   6.566  16.225  0.00  0.00    +0.000 A 
ATOM      6  C   UNL     1      50.806   7.370  15.329  0.00  0.00    +0.000 A 
ATOM      7  C   UNL     1      50.244   7.763  14.110  0.00  0.00    +0.000 A 
BRANCH   5   8
ATOM      8  C   UNL     1      50.680   6.197  17.568  0.00  0.00    +0.000 C 
BRANCH   8   9
ATOM      9  C   UNL     1      49.973   5.024  18.257  0.00  0.00    +0.000 C 
BRANCH   9  10
ATOM     10  C   UNL     1      50.660   3.716  17.959  0.00  0.00    +0.000 A 
ATOM     11  N   UNL     1      51.966   3.625  18.345  0.00  0.00    +0.000 NA
ATOM     12  C   UNL     1      52.590   2.455  18.073  0.00  0.00    +0.000 A 
ATOM     13  C   UNL     1      51.953   1.407  17.436  0.00  0.00    +0.000 A 
ATOM     14  N   UNL     1      50.665   1.480  17.035  0.00  0.00    +0.000 NA
ATOM     15  C   UNL     1      50.036   2.650  17.307  0.00  0.00    +0.000 A 
ATOM     16 CL   UNL     1      48.409   2.688  16.760  0.00  0.00    +0.000 Cl
ENDBRANCH   9  10
ENDBRANCH   8   9
ENDBRANCH   5   8
ENDBRANCH   1   2
BRANCH   1  19
ATOM     17  O   UNL     1      45.583   7.835  11.830  0.00  0.00    +0.000 OA
ATOM     18  C   UNL     1      46.246   6.846  11.528  0.00  0.00    +0.000 C 
ATOM     19  N   UNL     1      47.573   6.720  11.853  0.00  0.00    +0.000 N 
ATOM     20  H   UNL     1      48.118   5.986  11.414  0.00  0.00    +0.000 HD
BRANCH  18  21
ATOM     21  C   UNL     1      45.635   5.693  10.853  0.00  0.00    +0.000 A 
ATOM     22  C   UNL     1      45.823   5.515   9.488  0.00  0.00    +0.000 A 
ATOM     23  S   UNL     1      45.005   4.158   8.858  0.00  0.00    +0.000 S 
ATOM     24  C   UNL     1      44.415   3.729  10.395  0.00  0.00    +0.000 A 
ATOM     25  N   UNL     1      43.639   2.625  10.564  0.00  0.00    +0.000 NA
ATOM     26  C   UNL     1      43.304   2.391  11.788  0.00  0.00    +0.000 A 
ATOM     27  N   UNL     1      43.668   3.165  12.860  0.00  0.00    +0.000 N 
ATOM     28  C   UNL     1      44.388   4.327  12.727  0.00  0.00    +0.000 A 
ATOM     29  O   UNL     1      44.589   5.060  13.691  0.00  0.00    +0.000 OA
ATOM     30  C   UNL     1      44.823   4.617  11.374  0.00  0.00    +0.000 A 
ATOM     31  H   UNL     1      43.354   2.940  13.791  0.00  0.00    +0.000 HD
ENDBRANCH  18  21
ENDBRANCH   1  19
TORSDOF 6
ENDMDL
MODEL 2
REMARK VINA RESULT:    -7.025      3.903      8.956
REMARK INTER + INTRA:         -10.700
REMARK INTER:                  -9.707
REMARK INTRA:                  -0.992
REMARK UNBOUND:                -1.210
REMARK  Name = 
REMARK  6 active torsions:
REMARK  status: ('A' for Active; 'I' for Inactive)
REMARK    1  A    between atoms: C_2  and  C_20
REMARK    2  A    between atoms: N_3  and  C_4
REMARK    3  A    between atoms: C_4  and  C_5
REMARK    4  A    between atoms: C_8  and  C_9
REMARK    5  A    between atoms: C_9  and  C_10
REMARK    6  A    between atoms: C_10  and  C_11
REMARK                            x       y       z     vdW  Elec       q    Type
REMARK                         _______ _______ _______ _____ _____    ______ ____
ROOT
ATOM      1  C   UNL     1      47.797   4.470  16.822  0.00  0.00    +0.000 C 
ENDROOT
BRANCH   1   2
ATOM      2  C   UNL     1      47.511   4.939  15.419  0.00  0.00    +0.000 A 
ATOM      3  C   UNL     1      48.106   6.108  14.929  0.00  0.00    +0.000 A 
ATOM      4  C   UNL     1      47.822   6.566  13.638  0.00  0.00    +0.000 A 
ATOM      5  C   UNL     1      46.936   5.866  12.809  0.00  0.00    +0.000 A 
ATOM      6  C   UNL     1      46.332   4.704  13.306  0.00  0.00    +0.000 A 
ATOM      7  C   UNL     1      46.611   4.247  14.598  0.00  0.00    +0.000 A 
BRANCH   5   8
ATOM      8  C   UNL     1      46.583   6.388  11.434  0.00  0.00    +0.000 C 
BRANCH   8   9
ATOM      9  C   UNL     1      45.147   6.072  10.998  0.00  0.00    +0.000 C 
BRANCH   9  10
ATOM     10  C   UNL     1      45.109   4.929  10.018  0.00  0.00    +0.000 A 
ATOM     11  N   UNL     1      45.855   5.087   8.885  0.00  0.00    +0.000 NA
ATOM     12  C   UNL     1      45.818   4.066   7.996  0.00  0.00    +0.000 A 
ATOM     13  C   UNL     1      45.068   2.925   8.211  0.00  0.00    +0.000 A 
ATOM     14  N   UNL     1      44.314   2.753   9.318  0.00  0.00    +0.000 NA
ATOM     15  C   UNL     1      44.349   3.773  10.211  0.00  0.00    +0.000 A 
ATOM     16 CL   UNL     1      43.360   3.502  11.588  0.00  0.00    +0.000 Cl
ENDBRANCH   9  10
ENDBRANCH   8   9
ENDBRANCH   5   8
ENDBRANCH   1   2
BRANCH   1  19
ATOM     17  O   UNL     1      49.413   5.295  18.976  0.00  0.00    +0.000 OA
ATOM     18  C   UNL     1      49.898   4.572  18.111  0.00  0.00    +0.000 C 
ATOM     19  N   UNL     1      49.196   4.177  17.000  0.00  0.00    +0.000 N 
ATOM     20  H   UNL     1      49.568   3.430  16.425  0.00  0.00    +0.000 HD
BRANCH  18  21
ATOM     21  C   UNL     1      51.299   4.134  18.177  0.00  0.00    +0.000 A 
ATOM     22  C   UNL     1      52.272   5.005  18.649  0.00  0.00    +0.000 A 
ATOM     23  S   UNL     1      53.848   4.354  18.612  0.00  0.00    +0.000 S 
ATOM     24  C   UNL     1      53.279   2.865  18.015  0.00  0.00    +0.000 A 
ATOM     25  N   UNL     1      54.134   1.835  17.773  0.00  0.00    +0.000 NA
ATOM     26  C   UNL     1      53.561   0.750  17.371  0.00  0.00    +0.000 A 
ATOM     27  N   UNL     1      52.212   0.603  17.182  0.00  0.00    +0.000 N 
ATOM     28  C   UNL     1      51.320   1.636  17.344  0.00  0.00    +0.000 A 
ATOM     29  O   UNL     1      50.138   1.503  17.046  0.00  0.00    +0.000 OA
ATOM     30  C   UNL     1      51.908   2.869  17.832  0.00  0.00    +0.000 A 
ATOM     31  H   UNL     1      51.828  -0.266  16.844  0.00  0.00    +0.000 HD
ENDBRANCH  18  21
ENDBRANCH   1  19
TORSDOF 6
ENDMDL
MODEL 3
REMARK VINA RESULT:    -6.815      3.019      4.371
REMARK INTER + INTRA:         -10.416
REMARK INTER:                  -9.186
REMARK INTRA:                  -1.229
REMARK UNBOUND:                -1.210
REMARK  Name = 
REMARK  6 active torsions:
REMARK  status: ('A' for Active; 'I' for Inactive)
REMARK    1  A    between atoms: C_2  and  C_20
REMARK    2  A    between atoms: N_3  and  C_4
REMARK    3  A    between atoms: C_4  and  C_5
REMARK    4  A    between atoms: C_8  and  C_9
REMARK    5  A    between atoms: C_9  and  C_10
REMARK    6  A    between atoms: C_10  and  C_11
REMARK                            x       y       z     vdW  Elec       q    Type
REMARK                         _______ _______ _______ _____ _____    ______ ____
ROOT
ATOM      1  C   UNL     1      47.196   3.513  16.704  0.00  0.00    +0.000 C 
ENDROOT
BRANCH   1   2
ATOM      2  C   UNL     1      48.658   3.707  17.015  0.00  0.00    +0.000 A 
ATOM      3  C   UNL     1      49.488   2.599  17.228  0.00  0.00    +0.000 A 
ATOM      4  C   UNL     1      50.839   2.772  17.548  0.00  0.00    +0.000 A 
ATOM      5  C   UNL     1      51.389   4.055  17.664  0.00  0.00    +0.000 A 
ATOM      6  C   UNL     1      50.553   5.161  17.465  0.00  0.00    +0.000 A 
ATOM      7  C   UNL     1      49.201   4.991  17.150  0.00  0.00    +0.000 A 
BRANCH   5   8
ATOM      8  C   UNL     1      52.835   4.247  18.065  0.00  0.00    +0.000 C 
BRANCH   8   9
ATOM      9  C   UNL     1      53.091   4.081  19.568  0.00  0.00    +0.000 C 
BRANCH   9  10
ATOM     10  C   UNL     1      52.983   5.397  20.293  0.00  0.00    +0.000 A 
ATOM     11  N   UNL     1      54.104   6.175  20.292  0.00  0.00    +0.000 NA
ATOM     12  C   UNL     1      54.015   7.355  20.948  0.00  0.00    +0.000 A 
ATOM     13  C   UNL     1      52.861   7.759  21.591  0.00  0.00    +0.000 A 
ATOM     14  N   UNL     1      51.744   7.000  21.616  0.00  0.00    +0.000 NA
ATOM     15  C   UNL     1      51.829   5.817  20.958  0.00  0.00    +0.000 A 
ATOM     16 CL   UNL     1      50.385   4.892  21.038  0.00  0.00    +0.000 Cl
ENDBRANCH   9  10
ENDBRANCH   8   9
ENDBRANCH   5   8
ENDBRANCH   1   2
BRANCH   1  19
ATOM     17  O   UNL     1      47.207   3.120  13.915  0.00  0.00    +0.000 OA
ATOM     18  C   UNL     1      46.733   4.159  14.368  0.00  0.00    +0.000 C 
ATOM     19  N   UNL     1      46.746   4.452  15.708  0.00  0.00    +0.000 N 
ATOM     20  H   UNL     1      46.174   5.217  16.049  0.00  0.00    +0.000 HD
BRANCH  18  21
ATOM     21  C   UNL     1      46.178   5.194  13.487  0.00  0.00    +0.000 A 
ATOM     22  C   UNL     1      46.939   6.312  13.171  0.00  0.00    +0.000 A 
ATOM     23  S   UNL     1      46.124   7.436  12.180  0.00  0.00    +0.000 S 
ATOM     24  C   UNL     1      44.745   6.444  12.093  0.00  0.00    +0.000 A 
ATOM     25  N   UNL     1      43.656   6.820  11.368  0.00  0.00    +0.000 NA
ATOM     26  C   UNL     1      42.703   5.950  11.349  0.00  0.00    +0.000 A 
ATOM     27  N   UNL     1      42.734   4.741  11.994  0.00  0.00    +0.000 N 
ATOM     28  C   UNL     1      43.780   4.353  12.796  0.00  0.00    +0.000 A 
ATOM     29  O   UNL     1      43.720   3.321  13.457  0.00  0.00    +0.000 OA
ATOM     30  C   UNL     1      44.897   5.278  12.822  0.00  0.00    +0.000 A 
ATOM     31  H   UNL     1      41.945   4.114  11.958  0.00  0.00    +0.000 HD
ENDBRANCH  18  21
ENDBRANCH   1  19
TORSDOF 6
ENDMDL
MODEL 4
REMARK VINA RESULT:    -6.750      4.620      8.799
REMARK INTER + INTRA:         -10.328
REMARK INTER:                  -9.289
REMARK INTRA:                  -1.039
REMARK UNBOUND:                -1.210
REMARK  Name = 
REMARK  6 active torsions:
REMARK  status: ('A' for Active; 'I' for Inactive)
REMARK    1  A    between atoms: C_2  and  C_20
REMARK    2  A    between atoms: N_3  and  C_4
REMARK    3  A    between atoms: C_4  and  C_5
REMARK    4  A    between atoms: C_8  and  C_9
REMARK    5  A    between atoms: C_9  and  C_10
REMARK    6  A    between atoms: C_10  and  C_11
REMARK                            x       y       z     vdW  Elec       q    Type
REMARK                         _______ _______ _______ _____ _____    ______ ____
ROOT
ATOM      1  C   UNL     1      47.780   4.506  16.279  0.00  0.00    +0.000 C 
ENDROOT
BRANCH   1   2
ATOM      2  C   UNL     1      47.314   4.936  14.912  0.00  0.00    +0.000 A 
ATOM      3  C   UNL     1      47.819   6.105  14.329  0.00  0.00    +0.000 A 
ATOM      4  C   UNL     1      47.368   6.528  13.073  0.00  0.00    +0.000 A 
ATOM      5  C   UNL     1      46.403   5.792  12.374  0.00  0.00    +0.000 A 
ATOM      6  C   UNL     1      45.889   4.631  12.966  0.00  0.00    +0.000 A 
ATOM      7  C   UNL     1      46.334   4.210  14.223  0.00  0.00    +0.000 A 
BRANCH   5   8
ATOM      8  C   UNL     1      45.872   6.275  11.042  0.00  0.00    +0.000 C 
BRANCH   8   9
ATOM      9  C   UNL     1      44.642   5.505  10.546  0.00  0.00    +0.000 C 
BRANCH   9  10
ATOM     10  C   UNL     1      45.033   4.389   9.612  0.00  0.00    +0.000 A 
ATOM     11  N   UNL     1      45.795   4.748   8.538  0.00  0.00    +0.000 NA
ATOM     12  C   UNL     1      46.143   3.751   7.691  0.00  0.00    +0.000 A 
ATOM     13  C   UNL     1      45.749   2.441   7.888  0.00  0.00    +0.000 A 
ATOM     14  N   UNL     1      44.984   2.066   8.937  0.00  0.00    +0.000 NA
ATOM     15  C   UNL     1      44.635   3.062   9.789  0.00  0.00    +0.000 A 
ATOM     16 CL   UNL     1      43.652   2.527  11.091  0.00  0.00    +0.000 Cl
ENDBRANCH   9  10
ENDBRANCH   8   9
ENDBRANCH   5   8
ENDBRANCH   1   2
BRANCH   1  19
ATOM     17  O   UNL     1      49.738   6.096  17.532  0.00  0.00    +0.000 OA
ATOM     18  C   UNL     1      48.553   6.305  17.779  0.00  0.00    +0.000 C 
ATOM     19  N   UNL     1      47.544   5.536  17.258  0.00  0.00    +0.000 N 
ATOM     20  H   UNL     1      46.588   5.867  17.330  0.00  0.00    +0.000 HD
BRANCH  18  21
ATOM     21  C   UNL     1      48.142   7.362  18.713  0.00  0.00    +0.000 A 
ATOM     22  C   UNL     1      47.975   7.066  20.060  0.00  0.00    +0.000 A 
ATOM     23  S   UNL     1      47.448   8.393  20.991  0.00  0.00    +0.000 S 
ATOM     24  C   UNL     1      47.476   9.425  19.638  0.00  0.00    +0.000 A 
ATOM     25  N   UNL     1      47.142  10.739  19.753  0.00  0.00    +0.000 NA
ATOM     26  C   UNL     1      47.256  11.415  18.659  0.00  0.00    +0.000 A 
ATOM     27  N   UNL     1      47.667  10.896  17.459  0.00  0.00    +0.000 N 
ATOM     28  C   UNL     1      47.943   9.562  17.281  0.00  0.00    +0.000 A 
ATOM     29  O   UNL     1      48.187   9.111  16.166  0.00  0.00    +0.000 OA
ATOM     30  C   UNL     1      47.867   8.763  18.489  0.00  0.00    +0.000 A 
ATOM     31  H   UNL     1      47.713  11.474  16.634  0.00  0.00    +0.000 HD
ENDBRANCH  18  21
ENDBRANCH   1  19
TORSDOF 6
ENDMDL
MODEL 5
REMARK VINA RESULT:    -6.660      2.095      2.723
REMARK INTER + INTRA:         -10.206
REMARK INTER:                  -8.663
REMARK INTRA:                  -1.543
REMARK UNBOUND:                -1.210
REMARK  Name = 
REMARK  6 active torsions:
REMARK  status: ('A' for Active; 'I' for Inactive)
REMARK    1  A    between atoms: C_2  and  C_20
REMARK    2  A    between atoms: N_3  and  C_4
REMARK    3  A    between atoms: C_4  and  C_5
REMARK    4  A    between atoms: C_8  and  C_9
REMARK    5  A    between atoms: C_9  and  C_10
REMARK    6  A    between atoms: C_10  and  C_11
REMARK                            x       y       z     vdW  Elec       q    Type
REMARK                         _______ _______ _______ _____ _____    ______ ____
ROOT
ATOM      1  C   UNL     1      48.388   9.045  15.009  0.00  0.00    +0.000 C 
ENDROOT
BRANCH   1   2
ATOM      2  C   UNL     1      49.160   8.169  15.961  0.00  0.00    +0.000 A 
ATOM      3  C   UNL     1      50.193   7.351  15.489  0.00  0.00    +0.000 A 
ATOM      4  C   UNL     1      50.893   6.511  16.363  0.00  0.00    +0.000 A 
ATOM      5  C   UNL     1      50.576   6.472  17.727  0.00  0.00    +0.000 A 
ATOM      6  C   UNL     1      49.532   7.282  18.194  0.00  0.00    +0.000 A 
ATOM      7  C   UNL     1      48.828   8.117  17.321  0.00  0.00    +0.000 A 
BRANCH   5   8
ATOM      8  C   UNL     1      51.292   5.525  18.664  0.00  0.00    +0.000 C 
BRANCH   8   9
ATOM      9  C   UNL     1      50.394   4.427  19.246  0.00  0.00    +0.000 C 
BRANCH   9  10
ATOM     10  C   UNL     1      49.689   3.660  18.158  0.00  0.00    +0.000 A 
ATOM     11  N   UNL     1      48.369   3.958  17.974  0.00  0.00    +0.000 NA
ATOM     12  C   UNL     1      47.729   3.267  17.002  0.00  0.00    +0.000 A 
ATOM     13  C   UNL     1      48.363   2.306  16.237  0.00  0.00    +0.000 A 
ATOM     14  N   UNL     1      49.664   1.987  16.410  0.00  0.00    +0.000 NA
ATOM     15  C   UNL     1      50.309   2.678  17.382  0.00  0.00    +0.000 A 
ATOM     16 CL   UNL     1      51.953   2.217  17.564  0.00  0.00    +0.000 Cl
ENDBRANCH   9  10
ENDBRANCH   8   9
ENDBRANCH   5   8
ENDBRANCH   1   2
BRANCH   1  19
ATOM     17  O   UNL     1      48.086   8.620  12.241  0.00  0.00    +0.000 OA
ATOM     18  C   UNL     1      47.285   8.103  13.014  0.00  0.00    +0.000 C 
ATOM     19  N   UNL     1      47.326   8.311  14.369  0.00  0.00    +0.000 N 
ATOM     20  H   UNL     1      46.775   7.713  14.975  0.00  0.00    +0.000 HD
BRANCH  18  21
ATOM     21  C   UNL     1      46.176   7.273  12.523  0.00  0.00    +0.000 A 
ATOM     22  C   UNL     1      45.168   7.849  11.761  0.00  0.00    +0.000 A 
ATOM     23  S   UNL     1      43.937   6.755  11.318  0.00  0.00    +0.000 S 
ATOM     24  C   UNL     1      44.734   5.461  12.083  0.00  0.00    +0.000 A 
ATOM     25  N   UNL     1      44.208   4.206  12.064  0.00  0.00    +0.000 NA
ATOM     26  C   UNL     1      44.941   3.313  12.639  0.00  0.00    +0.000 A 
ATOM     27  N   UNL     1      46.149   3.561  13.239  0.00  0.00    +0.000 N 
ATOM     28  C   UNL     1      46.681   4.823  13.346  0.00  0.00    +0.000 A 
ATOM     29  O   UNL     1      47.701   5.025  13.997  0.00  0.00    +0.000 OA
ATOM     30  C   UNL     1      45.915   5.860  12.682  0.00  0.00    +0.000 A 
ATOM     31  H   UNL     1      46.663   2.821  13.692  0.00  0.00    +0.000 HD
ENDBRANCH  18  21
ENDBRANCH   1  19
TORSDOF 6
ENDMDL
MODEL 6
REMARK VINA RESULT:    -6.546      1.633      2.408
REMARK INTER + INTRA:         -10.052
REMARK INTER:                  -8.661
REMARK INTRA:                  -1.391
REMARK UNBOUND:                -1.210
REMARK  Name = 
REMARK  6 active torsions:
REMARK  status: ('A' for Active; 'I' for Inactive)
REMARK    1  A    between atoms: C_2  and  C_20
REMARK    2  A    between atoms: N_3  and  C_4
REMARK    3  A    between atoms: C_4  and  C_5
REMARK    4  A    between atoms: C_8  and  C_9
REMARK    5  A    between atoms: C_9  and  C_10
REMARK    6  A    between atoms: C_10  and  C_11
REMARK                            x       y       z     vdW  Elec       q    Type
REMARK                         _______ _______ _______ _____ _____    ______ ____
ROOT
ATOM      1  C   UNL     1      47.836   7.842  11.943  0.00  0.00    +0.000 C 
ENDROOT
BRANCH   1   2
ATOM      2  C   UNL     1      48.585   7.885  13.250  0.00  0.00    +0.000 A 
ATOM      3  C   UNL     1      49.967   7.659  13.279  0.00  0.00    +0.000 A 
ATOM      4  C   UNL     1      50.665   7.666  14.492  0.00  0.00    +0.000 A 
ATOM      5  C   UNL     1      49.996   7.896  15.701  0.00  0.00    +0.000 A 
ATOM      6  C   UNL     1      48.611   8.107  15.670  0.00  0.00    +0.000 A 
ATOM      7  C   UNL     1      47.912   8.096  14.460  0.00  0.00    +0.000 A 
BRANCH   5   8
ATOM      8  C   UNL     1      50.737   7.849  17.020  0.00  0.00    +0.000 C 
BRANCH   8   9
ATOM      9  C   UNL     1      50.072   6.957  18.075  0.00  0.00    +0.000 C 
BRANCH   9  10
ATOM     10  C   UNL     1      50.381   5.501  17.838  0.00  0.00    +0.000 A 
ATOM     11  N   UNL     1      51.671   5.119  18.065  0.00  0.00    +0.000 NA
ATOM     12  C   UNL     1      51.956   3.814  17.846  0.00  0.00    +0.000 A 
ATOM     13  C   UNL     1      51.004   2.911  17.413  0.00  0.00    +0.000 A 
ATOM     14  N   UNL     1      49.725   3.270  17.170  0.00  0.00    +0.000 NA
ATOM     15  C   UNL     1      49.435   4.577  17.389  0.00  0.00    +0.000 A 
ATOM     16 CL   UNL     1      47.800   4.975  17.049  0.00  0.00    +0.000 Cl
ENDBRANCH   9  10
ENDBRANCH   8   9
ENDBRANCH   5   8
ENDBRANCH   1   2
BRANCH   1  19
ATOM     17  O   UNL     1      45.024   7.681  11.971  0.00  0.00    +0.000 OA
ATOM     18  C   UNL     1      45.677   6.656  11.798  0.00  0.00    +0.000 C 
ATOM     19  N   UNL     1      47.049   6.641  11.832  0.00  0.00    +0.000 N 
ATOM     20  H   UNL     1      47.539   5.821  11.490  0.00  0.00    +0.000 HD
BRANCH  18  21
ATOM     21  C   UNL     1      45.022   5.355  11.608  0.00  0.00    +0.000 A 
ATOM     22  C   UNL     1      44.293   4.792  12.647  0.00  0.00    +0.000 A 
ATOM     23  S   UNL     1      43.644   3.260  12.275  0.00  0.00    +0.000 S 
ATOM     24  C   UNL     1      44.268   3.318  10.693  0.00  0.00    +0.000 A 
ATOM     25  N   UNL     1      44.052   2.299   9.818  0.00  0.00    +0.000 NA
ATOM     26  C   UNL     1      44.539   2.497   8.639  0.00  0.00    +0.000 A 
ATOM     27  N   UNL     1      45.228   3.619   8.256  0.00  0.00    +0.000 N 
ATOM     28  C   UNL     1      45.532   4.638   9.126  0.00  0.00    +0.000 A 
ATOM     29  O   UNL     1      46.257   5.567   8.783  0.00  0.00    +0.000 OA
ATOM     30  C   UNL     1      44.975   4.483  10.456  0.00  0.00    +0.000 A 
ATOM     31  H   UNL     1      45.604   3.703   7.324  0.00  0.00    +0.000 HD
ENDBRANCH  18  21
ENDBRANCH   1  19
TORSDOF 6
ENDMDL
MODEL 7
REMARK VINA RESULT:    -6.474      5.254      6.617
REMARK INTER + INTRA:          -9.956
REMARK INTER:                  -8.963
REMARK INTRA:                  -0.992
REMARK UNBOUND:                -1.210
REMARK  Name = 
REMARK  6 active torsions:
REMARK  status: ('A' for Active; 'I' for Inactive)
REMARK    1  A    between atoms: C_2  and  C_20
REMARK    2  A    between atoms: N_3  and  C_4
REMARK    3  A    between atoms: C_4  and  C_5
REMARK    4  A    between atoms: C_8  and  C_9
REMARK    5  A    between atoms: C_9  and  C_10
REMARK    6  A    between atoms: C_10  and  C_11
REMARK                            x       y       z     vdW  Elec       q    Type
REMARK                         _______ _______ _______ _____ _____    ______ ____
ROOT
ATOM      1  C   UNL     1      46.892   8.803  12.363  0.00  0.00    +0.000 C 
ENDROOT
BRANCH   1   2
ATOM      2  C   UNL     1      48.345   8.731  11.971  0.00  0.00    +0.000 A 
ATOM      3  C   UNL     1      49.053   9.900  11.665  0.00  0.00    +0.000 A 
ATOM      4  C   UNL     1      50.394   9.839  11.269  0.00  0.00    +0.000 A 
ATOM      5  C   UNL     1      51.056   8.608  11.171  0.00  0.00    +0.000 A 
ATOM      6  C   UNL     1      50.341   7.439  11.464  0.00  0.00    +0.000 A 
ATOM      7  C   UNL     1      49.000   7.498  11.854  0.00  0.00    +0.000 A 
BRANCH   5   8
ATOM      8  C   UNL     1      52.488   8.533  10.690  0.00  0.00    +0.000 C 
BRANCH   8   9
ATOM      9  C   UNL     1      52.659   8.828   9.195  0.00  0.00    +0.000 C 
BRANCH   9  10
ATOM     10  C   UNL     1      52.970   7.574   8.420  0.00  0.00    +0.000 A 
ATOM     11  N   UNL     1      53.377   6.500   9.157  0.00  0.00    +0.000 NA
ATOM     12  C   UNL     1      53.666   5.373   8.465  0.00  0.00    +0.000 A 
ATOM     13  C   UNL     1      53.563   5.303   7.089  0.00  0.00    +0.000 A 
ATOM     14  N   UNL     1      53.174   6.357   6.338  0.00  0.00    +0.000 NA
ATOM     15  C   UNL     1      52.884   7.487   7.028  0.00  0.00    +0.000 A 
ATOM     16 CL   UNL     1      52.411   8.794   6.020  0.00  0.00    +0.000 Cl
ENDBRANCH   9  10
ENDBRANCH   8   9
ENDBRANCH   5   8
ENDBRANCH   1   2
BRANCH   1  19
ATOM     17  O   UNL     1      44.484   8.135  11.065  0.00  0.00    +0.000 OA
ATOM     18  C   UNL     1      45.127   7.248  11.619  0.00  0.00    +0.000 C 
ATOM     19  N   UNL     1      46.277   7.501  12.324  0.00  0.00    +0.000 N 
ATOM     20  H   UNL     1      46.871   6.723  12.589  0.00  0.00    +0.000 HD
BRANCH  18  21
ATOM     21  C   UNL     1      44.665   5.854  11.619  0.00  0.00    +0.000 A 
ATOM     22  C   UNL     1      43.936   5.369  12.696  0.00  0.00    +0.000 A 
ATOM     23  S   UNL     1      43.523   3.720  12.556  0.00  0.00    +0.000 S 
ATOM     24  C   UNL     1      44.257   3.609  11.025  0.00  0.00    +0.000 A 
ATOM     25  N   UNL     1      44.247   2.442  10.326  0.00  0.00    +0.000 NA
ATOM     26  C   UNL     1      44.795   2.514   9.159  0.00  0.00    +0.000 A 
ATOM     27  N   UNL     1      45.360   3.645   8.630  0.00  0.00    +0.000 N 
ATOM     28  C   UNL     1      45.458   4.825   9.328  0.00  0.00    +0.000 A 
ATOM     29  O   UNL     1      46.080   5.779   8.872  0.00  0.00    +0.000 OA
ATOM     30  C   UNL     1      44.823   4.809  10.632  0.00  0.00    +0.000 A 
ATOM     31  H   UNL     1      45.793   3.630   7.719  0.00  0.00    +0.000 HD
ENDBRANCH  18  21
ENDBRANCH   1  19
TORSDOF 6
ENDMDL
MODEL 8
REMARK VINA RESULT:    -6.456      1.794      2.281
REMARK INTER + INTRA:          -9.930
REMARK INTER:                  -8.730
REMARK INTRA:                  -1.200
REMARK UNBOUND:                -1.210
REMARK  Name = 
REMARK  6 active torsions:
REMARK  status: ('A' for Active; 'I' for Inactive)
REMARK    1  A    between atoms: C_2  and  C_20
REMARK    2  A    between atoms: N_3  and  C_4
REMARK    3  A    between atoms: C_4  and  C_5
REMARK    4  A    between atoms: C_8  and  C_9
REMARK    5  A    between atoms: C_9  and  C_10
REMARK    6  A    between atoms: C_10  and  C_11
REMARK                            x       y       z     vdW  Elec       q    Type
REMARK                         _______ _______ _______ _____ _____    ______ ____
ROOT
ATOM      1  C   UNL     1      48.350   8.149  11.922  0.00  0.00    +0.000 C 
ENDROOT
BRANCH   1   2
ATOM      2  C   UNL     1      48.606   8.046  13.404  0.00  0.00    +0.000 A 
ATOM      3  C   UNL     1      49.584   7.171  13.892  0.00  0.00    +0.000 A 
ATOM      4  C   UNL     1      49.807   7.046  15.268  0.00  0.00    +0.000 A 
ATOM      5  C   UNL     1      49.056   7.793  16.185  0.00  0.00    +0.000 A 
ATOM      6  C   UNL     1      48.069   8.657  15.694  0.00  0.00    +0.000 A 
ATOM      7  C   UNL     1      47.842   8.779  14.320  0.00  0.00    +0.000 A 
BRANCH   5   8
ATOM      8  C   UNL     1      49.255   7.620  17.674  0.00  0.00    +0.000 C 
BRANCH   8   9
ATOM      9  C   UNL     1      48.111   6.875  18.372  0.00  0.00    +0.000 C 
BRANCH   9  10
ATOM     10  C   UNL     1      48.138   5.403  18.053  0.00  0.00    +0.000 A 
ATOM     11  N   UNL     1      47.323   4.996  17.037  0.00  0.00    +0.000 NA
ATOM     12  C   UNL     1      47.337   3.673  16.751  0.00  0.00    +0.000 A 
ATOM     13  C   UNL     1      48.125   2.774  17.445  0.00  0.00    +0.000 A 
ATOM     14  N   UNL     1      48.929   3.153  18.462  0.00  0.00    +0.000 NA
ATOM     15  C   UNL     1      48.918   4.478  18.751  0.00  0.00    +0.000 A 
ATOM     16 CL   UNL     1      49.947   4.895  20.061  0.00  0.00    +0.000 Cl
ENDBRANCH   9  10
ENDBRANCH   8   9
ENDBRANCH   5   8
ENDBRANCH   1   2
BRANCH   1  19
ATOM     17  O   UNL     1      45.548   7.902  11.769  0.00  0.00    +0.000 OA
ATOM     18  C   UNL     1      46.251   6.989  11.345  0.00  0.00    +0.000 C 
ATOM     19  N   UNL     1      47.619   7.006  11.439  0.00  0.00    +0.000 N 
ATOM     20  H   UNL     1      48.156   6.332  10.903  0.00  0.00    +0.000 HD
BRANCH  18  21
ATOM     21  C   UNL     1      45.659   5.776  10.764  0.00  0.00    +0.000 A 
ATOM     22  C   UNL     1      45.872   5.478   9.424  0.00  0.00    +0.000 A 
ATOM     23  S   UNL     1      45.074   4.064   8.903  0.00  0.00    +0.000 S 
ATOM     24  C   UNL     1      44.460   3.769  10.463  0.00  0.00    +0.000 A 
ATOM     25  N   UNL     1      43.687   2.678  10.716  0.00  0.00    +0.000 NA
ATOM     26  C   UNL     1      43.332   2.552  11.951  0.00  0.00    +0.000 A 
ATOM     27  N   UNL     1      43.673   3.421  12.955  0.00  0.00    +0.000 N 
ATOM     28  C   UNL     1      44.388   4.573  12.731  0.00  0.00    +0.000 A 
ATOM     29  O   UNL     1      44.567   5.389  13.629  0.00  0.00    +0.000 OA
ATOM     30  C   UNL     1      44.845   4.744  11.365  0.00  0.00    +0.000 A 
ATOM     31  H   UNL     1      43.344   3.277  13.897  0.00  0.00    +0.000 HD
ENDBRANCH  18  21
ENDBRANCH   1  19
TORSDOF 6
ENDMDL
MODEL 9
REMARK VINA RESULT:    -6.112      4.257      5.651
REMARK INTER + INTRA:          -9.466
REMARK INTER:                  -8.616
REMARK INTRA:                  -0.849
REMARK UNBOUND:                -1.210
REMARK  Name = 
REMARK  6 active torsions:
REMARK  status: ('A' for Active; 'I' for Inactive)
REMARK    1  A    between atoms: C_2  and  C_20
REMARK    2  A    between atoms: N_3  and  C_4
REMARK    3  A    between atoms: C_4  and  C_5
REMARK    4  A    between atoms: C_8  and  C_9
REMARK    5  A    between atoms: C_9  and  C_10
REMARK    6  A    between atoms: C_10  and  C_11
REMARK                            x       y       z     vdW  Elec       q    Type
REMARK                         _______ _______ _______ _____ _____    ______ ____
ROOT
ATOM      1  C   UNL     1      47.634   4.033  16.496  0.00  0.00    +0.000 C 
ENDROOT
BRANCH   1   2
ATOM      2  C   UNL     1      47.964   4.848  17.720  0.00  0.00    +0.000 A 
ATOM      3  C   UNL     1      46.940   5.340  18.538  0.00  0.00    +0.000 A 
ATOM      4  C   UNL     1      47.237   6.124  19.658  0.00  0.00    +0.000 A 
ATOM      5  C   UNL     1      48.564   6.432  19.985  0.00  0.00    +0.000 A 
ATOM      6  C   UNL     1      49.586   5.950  19.157  0.00  0.00    +0.000 A 
ATOM      7  C   UNL     1      49.291   5.171  18.033  0.00  0.00    +0.000 A 
BRANCH   5   8
ATOM      8  C   UNL     1      48.886   7.325  21.163  0.00  0.00    +0.000 C 
BRANCH   8   9
ATOM      9  C   UNL     1      47.872   8.454  21.383  0.00  0.00    +0.000 C 
BRANCH   9  10
ATOM     10  C   UNL     1      48.261   9.697  20.627  0.00  0.00    +0.000 A 
ATOM     11  N   UNL     1      49.592   9.842  20.356  0.00  0.00    +0.000 NA
ATOM     12  C   UNL     1      49.948  10.961  19.683  0.00  0.00    +0.000 A 
ATOM     13  C   UNL     1      49.026  11.914  19.292  0.00  0.00    +0.000 A 
ATOM     14  N   UNL     1      47.708  11.797  19.560  0.00  0.00    +0.000 NA
ATOM     15  C   UNL     1      47.347  10.677  20.233  0.00  0.00    +0.000 A 
ATOM     16 CL   UNL     1      45.663  10.594  20.557  0.00  0.00    +0.000 Cl
ENDBRANCH   9  10
ENDBRANCH   8   9
ENDBRANCH   5   8
ENDBRANCH   1   2
BRANCH   1  19
ATOM     17  O   UNL     1      46.979   3.206  13.884  0.00  0.00    +0.000 OA
ATOM     18  C   UNL     1      46.742   4.363  14.219  0.00  0.00    +0.000 C 
ATOM     19  N   UNL     1      47.087   4.860  15.451  0.00  0.00    +0.000 N 
ATOM     20  H   UNL     1      46.697   5.748  15.748  0.00  0.00    +0.000 HD
BRANCH  18  21
ATOM     21  C   UNL     1      46.129   5.319  13.287  0.00  0.00    +0.000 A 
ATOM     22  C   UNL     1      46.875   6.385  12.803  0.00  0.00    +0.000 A 
ATOM     23  S   UNL     1      45.996   7.423  11.774  0.00  0.00    +0.000 S 
ATOM     24  C   UNL     1      44.603   6.454  11.895  0.00  0.00    +0.000 A 
ATOM     25  N   UNL     1      43.463   6.779  11.226  0.00  0.00    +0.000 NA
ATOM     26  C   UNL     1      42.501   5.930  11.368  0.00  0.00    +0.000 A 
ATOM     27  N   UNL     1      42.571   4.790  12.125  0.00  0.00    +0.000 N 
ATOM     28  C   UNL     1      43.674   4.461  12.876  0.00  0.00    +0.000 A 
ATOM     29  O   UNL     1      43.656   3.500  13.638  0.00  0.00    +0.000 OA
ATOM     30  C   UNL     1      44.800   5.363  12.722  0.00  0.00    +0.000 A 
ATOM     31  H   UNL     1      41.774   4.178  12.214  0.00  0.00    +0.000 HD
ENDBRANCH  18  21
ENDBRANCH   1  19
TORSDOF 6
ENDMDL
