MODEL 1
REMARK VINA RESULT:    -8.063      0.000      0.000
REMARK INTER + INTRA:         -11.390
REMARK INTER:                 -10.420
REMARK INTRA:                  -0.970
REMARK UNBOUND:                -0.970
REMARK  Name = 
REMARK  6 active torsions:
REMARK  status: ('A' for Active; 'I' for Inactive)
REMARK    1  A    between atoms: C_1  and  C_2
REMARK    2  A    between atoms: C_2  and  N_3
REMARK    3  A    between atoms: C_2  and  C_16
REMARK    4  A    between atoms: C_4  and  C_6
REMARK    5  A    between atoms: C_19  and  O_20
REMARK    6  A    between atoms: O_20  and  C_21
REMARK                            x       y       z     vdW  Elec       q    Type
REMARK                         _______ _______ _______ _____ _____    ______ ____
ROOT
ATOM      1  C   UNL     1      43.871   2.563  11.039  0.00  0.00    +0.000 C 
ATOM      2  C   UNL     1      44.271   3.631  10.021  0.00  0.00    +0.000 C 
ENDROOT
BRANCH   2   3
ATOM      3  C   UNL     1      45.162   3.071   8.927  0.00  0.00    +0.000 A 
ATOM      4  C   UNL     1      45.734   3.950   7.998  0.00  0.00    +0.000 A 
ATOM      5  C   UNL     1      46.609   3.482   7.018  0.00  0.00    +0.000 A 
ATOM      6  C   UNL     1      46.958   2.128   6.976  0.00  0.00    +0.000 A 
ATOM      7  C   UNL     1      46.359   1.234   7.863  0.00  0.00    +0.000 A 
ATOM      8  C   UNL     1      45.468   1.702   8.834  0.00  0.00    +0.000 A 
BRANCH   6   9
ATOM      9  O   UNL     1      47.829   1.596   6.049  0.00  0.00    +0.000 OA
BRANCH   9  10
ATOM     10  C   UNL     1      47.294   0.923   4.958  0.00  0.00    +0.000 A 
ATOM     11  C   UNL     1      46.646   1.681   3.995  0.00  0.00    +0.000 A 
ATOM     12  N   UNL     1      46.111   1.134   2.872  0.00  0.00    +0.000 NA
ATOM     13  C   UNL     1      46.245  -0.208   2.766  0.00  0.00    +0.000 A 
ATOM     14  C   UNL     1      46.868  -0.970   3.741  0.00  0.00    +0.000 A 
ATOM     15  N   UNL     1      47.391  -0.427   4.862  0.00  0.00    +0.000 NA
ENDBRANCH   9  10
ENDBRANCH   6   9
ENDBRANCH   2   3
BRANCH   2  16
ATOM     16  N   UNL     1      44.912   4.767  10.660  0.00  0.00    +0.000 N 
ATOM     17  C   UNL     1      44.191   5.809  11.183  0.00  0.00    +0.000 C 
ATOM     18  O   UNL     1      42.963   5.827  11.157  0.00  0.00    +0.000 OA
ATOM     19  H   UNL     1      45.923   4.837  10.588  0.00  0.00    +0.000 HD
BRANCH  17  20
ATOM     20  C   UNL     1      44.948   6.894  11.822  0.00  0.00    +0.000 A 
ATOM     21  C   UNL     1      44.680   8.210  11.466  0.00  0.00    +0.000 A 
ATOM     22  S   UNL     1      45.642   9.354  12.283  0.00  0.00    +0.000 S 
ATOM     23  C   UNL     1      46.485   8.131  13.114  0.00  0.00    +0.000 A 
ATOM     24  N   UNL     1      47.501   8.440  13.964  0.00  0.00    +0.000 NA
ATOM     25  C   UNL     1      48.083   7.415  14.490  0.00  0.00    +0.000 A 
ATOM     26  N   UNL     1      47.730   6.111  14.258  0.00  0.00    +0.000 N 
ATOM     27  C   UNL     1      46.659   5.758  13.471  0.00  0.00    +0.000 A 
ATOM     28  O   UNL     1      46.282   4.594  13.394  0.00  0.00    +0.000 OA
ATOM     29  C   UNL     1      46.010   6.869  12.802  0.00  0.00    +0.000 A 
ATOM     30  H   UNL     1      48.203   5.355  14.731  0.00  0.00    +0.000 HD
ENDBRANCH  17  20
ENDBRANCH   2  16
TORSDOF 5
ENDMDL
MODEL 2
REMARK VINA RESULT:    -7.548      2.670      3.857
REMARK INTER + INTRA:         -10.724
REMARK INTER:                 -11.043
REMARK INTRA:                   0.319
REMARK UNBOUND:                -0.970
REMARK  Name = 
REMARK  6 active torsions:
REMARK  status: ('A' for Active; 'I' for Inactive)
REMARK    1  A    between atoms: C_1  and  C_2
REMARK    2  A    between atoms: C_2  and  N_3
REMARK    3  A    between atoms: C_2  and  C_16
REMARK    4  A    between atoms: C_4  and  C_6
REMARK    5  A    between atoms: C_19  and  O_20
REMARK    6  A    between atoms: O_20  and  C_21
REMARK                            x       y       z     vdW  Elec       q    Type
REMARK                         _______ _______ _______ _____ _____    ______ ____
ROOT
ATOM      1  C   UNL     1      43.526   4.050  13.284  0.00  0.00    +0.000 C 
ATOM      2  C   UNL     1      44.177   5.303  12.695  0.00  0.00    +0.000 C 
ENDROOT
BRANCH   2   3
ATOM      3  C   UNL     1      44.589   5.103  11.248  0.00  0.00    +0.000 A 
ATOM      4  C   UNL     1      45.723   5.771  10.765  0.00  0.00    +0.000 A 
ATOM      5  C   UNL     1      46.170   5.565   9.461  0.00  0.00    +0.000 A 
ATOM      6  C   UNL     1      45.514   4.654   8.628  0.00  0.00    +0.000 A 
ATOM      7  C   UNL     1      44.357   4.019   9.078  0.00  0.00    +0.000 A 
ATOM      8  C   UNL     1      43.898   4.239  10.380  0.00  0.00    +0.000 A 
BRANCH   6   9
ATOM      9  O   UNL     1      45.909   4.383   7.335  0.00  0.00    +0.000 OA
BRANCH   9  10
ATOM     10  C   UNL     1      46.387   3.112   7.048  0.00  0.00    +0.000 A 
ATOM     11  C   UNL     1      46.866   2.882   5.767  0.00  0.00    +0.000 A 
ATOM     12  N   UNL     1      47.385   1.687   5.383  0.00  0.00    +0.000 NA
ATOM     13  C   UNL     1      47.390   0.729   6.338  0.00  0.00    +0.000 A 
ATOM     14  C   UNL     1      46.886   0.948   7.610  0.00  0.00    +0.000 A 
ATOM     15  N   UNL     1      46.362   2.133   7.989  0.00  0.00    +0.000 NA
ENDBRANCH   9  10
ENDBRANCH   6   9
ENDBRANCH   2   3
BRANCH   2  16
ATOM     16  N   UNL     1      45.313   5.740  13.487  0.00  0.00    +0.000 N 
ATOM     17  C   UNL     1      46.279   4.867  13.916  0.00  0.00    +0.000 C 
ATOM     18  O   UNL     1      46.244   3.671  13.637  0.00  0.00    +0.000 OA
ATOM     19  H   UNL     1      45.303   6.694  13.834  0.00  0.00    +0.000 HD
BRANCH  17  20
ATOM     20  C   UNL     1      47.391   5.428  14.695  0.00  0.00    +0.000 A 
ATOM     21  C   UNL     1      48.131   6.477  14.164  0.00  0.00    +0.000 A 
ATOM     22  S   UNL     1      49.390   7.015  15.177  0.00  0.00    +0.000 S 
ATOM     23  C   UNL     1      49.023   5.836  16.348  0.00  0.00    +0.000 A 
ATOM     24  N   UNL     1      49.771   5.720  17.477  0.00  0.00    +0.000 NA
ATOM     25  C   UNL     1      49.411   4.756  18.257  0.00  0.00    +0.000 A 
ATOM     26  N   UNL     1      48.360   3.910  18.018  0.00  0.00    +0.000 N 
ATOM     27  C   UNL     1      47.528   4.043  16.931  0.00  0.00    +0.000 A 
ATOM     28  O   UNL     1      46.515   3.362  16.818  0.00  0.00    +0.000 OA
ATOM     29  C   UNL     1      47.927   5.070  15.989  0.00  0.00    +0.000 A 
ATOM     30  H   UNL     1      48.106   3.198  18.688  0.00  0.00    +0.000 HD
ENDBRANCH  17  20
ENDBRANCH   2  16
TORSDOF 5
ENDMDL
MODEL 3
REMARK VINA RESULT:    -7.101      2.995      5.575
REMARK INTER + INTRA:         -10.147
REMARK INTER:                  -9.231
REMARK INTRA:                  -0.915
REMARK UNBOUND:                -0.970
REMARK  Name = 
REMARK  6 active torsions:
REMARK  status: ('A' for Active; 'I' for Inactive)
REMARK    1  A    between atoms: C_1  and  C_2
REMARK    2  A    between atoms: C_2  and  N_3
REMARK    3  A    between atoms: C_2  and  C_16
REMARK    4  A    between atoms: C_4  and  C_6
REMARK    5  A    between atoms: C_19  and  O_20
REMARK    6  A    between atoms: O_20  and  C_21
REMARK                            x       y       z     vdW  Elec       q    Type
REMARK                         _______ _______ _______ _____ _____    ______ ____
ROOT
ATOM      1  C   UNL     1      46.055   9.198  13.269  0.00  0.00    +0.000 C 
ATOM      2  C   UNL     1      46.883   7.928  13.068  0.00  0.00    +0.000 C 
ENDROOT
BRANCH   2   3
ATOM      3  C   UNL     1      46.144   6.892  12.240  0.00  0.00    +0.000 A 
ATOM      4  C   UNL     1      45.055   7.297  11.455  0.00  0.00    +0.000 A 
ATOM      5  C   UNL     1      44.391   6.389  10.633  0.00  0.00    +0.000 A 
ATOM      6  C   UNL     1      44.831   5.064  10.550  0.00  0.00    +0.000 A 
ATOM      7  C   UNL     1      45.881   4.635  11.360  0.00  0.00    +0.000 A 
ATOM      8  C   UNL     1      46.536   5.542  12.198  0.00  0.00    +0.000 A 
BRANCH   6   9
ATOM      9  O   UNL     1      44.237   4.114   9.745  0.00  0.00    +0.000 OA
BRANCH   9  10
ATOM     10  C   UNL     1      45.045   3.395   8.875  0.00  0.00    +0.000 A 
ATOM     11  C   UNL     1      45.227   2.046   9.139  0.00  0.00    +0.000 A 
ATOM     12  N   UNL     1      45.972   1.238   8.340  0.00  0.00    +0.000 NA
ATOM     13  C   UNL     1      46.536   1.848   7.272  0.00  0.00    +0.000 A 
ATOM     14  C   UNL     1      46.378   3.202   7.022  0.00  0.00    +0.000 A 
ATOM     15  N   UNL     1      45.646   4.006   7.822  0.00  0.00    +0.000 NA
ENDBRANCH   9  10
ENDBRANCH   6   9
ENDBRANCH   2   3
BRANCH   2  16
ATOM     16  N   UNL     1      47.302   7.354  14.334  0.00  0.00    +0.000 N 
ATOM     17  C   UNL     1      48.570   6.871  14.530  0.00  0.00    +0.000 C 
ATOM     18  O   UNL     1      49.425   6.915  13.649  0.00  0.00    +0.000 OA
ATOM     19  H   UNL     1      46.585   7.194  15.036  0.00  0.00    +0.000 HD
BRANCH  17  20
ATOM     20  C   UNL     1      48.883   6.331  15.860  0.00  0.00    +0.000 A 
ATOM     21  C   UNL     1      49.851   6.958  16.636  0.00  0.00    +0.000 A 
ATOM     22  S   UNL     1      50.110   6.215  18.147  0.00  0.00    +0.000 S 
ATOM     23  C   UNL     1      48.969   4.999  17.804  0.00  0.00    +0.000 A 
ATOM     24  N   UNL     1      48.736   3.993  18.689  0.00  0.00    +0.000 NA
ATOM     25  C   UNL     1      47.882   3.115  18.283  0.00  0.00    +0.000 A 
ATOM     26  N   UNL     1      47.226   3.161  17.081  0.00  0.00    +0.000 N 
ATOM     27  C   UNL     1      47.371   4.202  16.192  0.00  0.00    +0.000 A 
ATOM     28  O   UNL     1      46.667   4.286  15.192  0.00  0.00    +0.000 OA
ATOM     29  C   UNL     1      48.368   5.183  16.570  0.00  0.00    +0.000 A 
ATOM     30  H   UNL     1      46.540   2.461  16.838  0.00  0.00    +0.000 HD
ENDBRANCH  17  20
ENDBRANCH   2  16
TORSDOF 5
ENDMDL
MODEL 4
REMARK VINA RESULT:    -7.082      4.522      9.312
REMARK INTER + INTRA:         -10.122
REMARK INTER:                  -9.189
REMARK INTRA:                  -0.933
REMARK UNBOUND:                -0.970
REMARK  Name = 
REMARK  6 active torsions:
REMARK  status: ('A' for Active; 'I' for Inactive)
REMARK    1  A    between atoms: C_1  and  C_2
REMARK    2  A    between atoms: C_2  and  N_3
REMARK    3  A    between atoms: C_2  and  C_16
REMARK    4  A    between atoms: C_4  and  C_6
REMARK    5  A    between atoms: C_19  and  O_20
REMARK    6  A    between atoms: O_20  and  C_21
REMARK                            x       y       z     vdW  Elec       q    Type
REMARK                         _______ _______ _______ _____ _____    ______ ____
ROOT
ATOM      1  C   UNL     1      49.164   7.982  12.808  0.00  0.00    +0.000 C 
ATOM      2  C   UNL     1      48.035   7.270  13.554  0.00  0.00    +0.000 C 
ENDROOT
BRANCH   2   3
ATOM      3  C   UNL     1      48.524   6.612  14.832  0.00  0.00    +0.000 A 
ATOM      4  C   UNL     1      47.764   5.581  15.401  0.00  0.00    +0.000 A 
ATOM      5  C   UNL     1      48.211   4.909  16.537  0.00  0.00    +0.000 A 
ATOM      6  C   UNL     1      49.448   5.231  17.103  0.00  0.00    +0.000 A 
ATOM      7  C   UNL     1      50.192   6.286  16.578  0.00  0.00    +0.000 A 
ATOM      8  C   UNL     1      49.736   6.972  15.448  0.00  0.00    +0.000 A 
BRANCH   6   9
ATOM      9  O   UNL     1      49.964   4.598  18.215  0.00  0.00    +0.000 OA
BRANCH   9  10
ATOM     10  C   UNL     1      50.796   3.504  18.019  0.00  0.00    +0.000 A 
ATOM     11  C   UNL     1      50.239   2.375  17.437  0.00  0.00    +0.000 A 
ATOM     12  N   UNL     1      50.963   1.256  17.171  0.00  0.00    +0.000 NA
ATOM     13  C   UNL     1      52.267   1.318  17.526  0.00  0.00    +0.000 A 
ATOM     14  C   UNL     1      52.818   2.435  18.133  0.00  0.00    +0.000 A 
ATOM     15  N   UNL     1      52.096   3.543  18.406  0.00  0.00    +0.000 NA
ENDBRANCH   9  10
ENDBRANCH   6   9
ENDBRANCH   2   3
BRANCH   2  16
ATOM     16  N   UNL     1      47.366   6.295  12.710  0.00  0.00    +0.000 N 
ATOM     17  C   UNL     1      46.344   6.645  11.866  0.00  0.00    +0.000 C 
ATOM     18  O   UNL     1      45.953   7.805  11.765  0.00  0.00    +0.000 OA
ATOM     19  H   UNL     1      47.585   5.315  12.861  0.00  0.00    +0.000 HD
BRANCH  17  20
ATOM     20  C   UNL     1      45.757   5.576  11.046  0.00  0.00    +0.000 A 
ATOM     21  C   UNL     1      45.879   5.635   9.664  0.00  0.00    +0.000 A 
ATOM     22  S   UNL     1      45.141   4.333   8.851  0.00  0.00    +0.000 S 
ATOM     23  C   UNL     1      44.591   3.662  10.314  0.00  0.00    +0.000 A 
ATOM     24  N   UNL     1      43.835   2.531  10.321  0.00  0.00    +0.000 NA
ATOM     25  C   UNL     1      43.448   2.157  11.494  0.00  0.00    +0.000 A 
ATOM     26  N   UNL     1      43.763   2.801  12.662  0.00  0.00    +0.000 N 
ATOM     27  C   UNL     1      44.591   3.899  12.708  0.00  0.00    +0.000 A 
ATOM     28  O   UNL     1      44.968   4.367  13.777  0.00  0.00    +0.000 OA
ATOM     29  C   UNL     1      45.002   4.400  11.412  0.00  0.00    +0.000 A 
ATOM     30  H   UNL     1      43.459   2.436  13.553  0.00  0.00    +0.000 HD
ENDBRANCH  17  20
ENDBRANCH   2  16
TORSDOF 5
ENDMDL
MODEL 5
REMARK VINA RESULT:    -6.993      2.715      4.014
REMARK INTER + INTRA:         -10.007
REMARK INTER:                  -9.038
REMARK INTRA:                  -0.969
REMARK UNBOUND:                -0.970
REMARK  Name = 
REMARK  6 active torsions:
REMARK  status: ('A' for Active; 'I' for Inactive)
REMARK    1  A    between atoms: C_1  and  C_2
REMARK    2  A    between atoms: C_2  and  N_3
REMARK    3  A    between atoms: C_2  and  C_16
REMARK    4  A    between atoms: C_4  and  C_6
REMARK    5  A    between atoms: C_19  and  O_20
REMARK    6  A    between atoms: O_20  and  C_21
REMARK                            x       y       z     vdW  Elec       q    Type
REMARK                         _______ _______ _______ _____ _____    ______ ____
ROOT
ATOM      1  C   UNL     1      46.252   4.685  14.219  0.00  0.00    +0.000 C 
ATOM      2  C   UNL     1      45.996   5.743  13.144  0.00  0.00    +0.000 C 
ENDROOT
BRANCH   2   3
ATOM      3  C   UNL     1      45.606   5.122  11.815  0.00  0.00    +0.000 A 
ATOM      4  C   UNL     1      45.895   5.811  10.630  0.00  0.00    +0.000 A 
ATOM      5  C   UNL     1      45.609   5.246   9.388  0.00  0.00    +0.000 A 
ATOM      6  C   UNL     1      45.065   3.960   9.309  0.00  0.00    +0.000 A 
ATOM      7  C   UNL     1      44.728   3.282  10.480  0.00  0.00    +0.000 A 
ATOM      8  C   UNL     1      44.998   3.857  11.726  0.00  0.00    +0.000 A 
BRANCH   6   9
ATOM      9  O   UNL     1      44.774   3.329   8.118  0.00  0.00    +0.000 OA
BRANCH   9  10
ATOM     10  C   UNL     1      45.828   2.811   7.376  0.00  0.00    +0.000 A 
ATOM     11  C   UNL     1      46.422   1.646   7.837  0.00  0.00    +0.000 A 
ATOM     12  N   UNL     1      47.440   1.034   7.177  0.00  0.00    +0.000 NA
ATOM     13  C   UNL     1      47.843   1.651   6.043  0.00  0.00    +0.000 A 
ATOM     14  C   UNL     1      47.268   2.831   5.596  0.00  0.00    +0.000 A 
ATOM     15  N   UNL     1      46.263   3.444   6.257  0.00  0.00    +0.000 NA
ENDBRANCH   9  10
ENDBRANCH   6   9
ENDBRANCH   2   3
BRANCH   2  16
ATOM     16  N   UNL     1      47.141   6.620  12.972  0.00  0.00    +0.000 N 
ATOM     17  C   UNL     1      47.035   7.983  13.081  0.00  0.00    +0.000 C 
ATOM     18  O   UNL     1      45.969   8.532  13.348  0.00  0.00    +0.000 OA
ATOM     19  H   UNL     1      48.003   6.205  12.632  0.00  0.00    +0.000 HD
BRANCH  17  20
ATOM     20  C   UNL     1      48.265   8.767  12.906  0.00  0.00    +0.000 A 
ATOM     21  C   UNL     1      48.242   9.895  12.094  0.00  0.00    +0.000 A 
ATOM     22  S   UNL     1      49.742  10.693  11.982  0.00  0.00    +0.000 S 
ATOM     23  C   UNL     1      50.493   9.537  12.980  0.00  0.00    +0.000 A 
ATOM     24  N   UNL     1      51.823   9.612  13.254  0.00  0.00    +0.000 NA
ATOM     25  C   UNL     1      52.271   8.646  13.984  0.00  0.00    +0.000 A 
ATOM     26  N   UNL     1      51.505   7.622  14.479  0.00  0.00    +0.000 N 
ATOM     27  C   UNL     1      50.144   7.552  14.294  0.00  0.00    +0.000 A 
ATOM     28  O   UNL     1      49.467   6.704  14.865  0.00  0.00    +0.000 OA
ATOM     29  C   UNL     1      49.600   8.577  13.426  0.00  0.00    +0.000 A 
ATOM     30  H   UNL     1      51.910   6.916  15.077  0.00  0.00    +0.000 HD
ENDBRANCH  17  20
ENDBRANCH   2  16
TORSDOF 5
ENDMDL
MODEL 6
REMARK VINA RESULT:    -6.964      1.746      2.708
REMARK INTER + INTRA:          -9.969
REMARK INTER:                  -9.600
REMARK INTRA:                  -0.369
REMARK UNBOUND:                -0.970
REMARK  Name = 
REMARK  6 active torsions:
REMARK  status: ('A' for Active; 'I' for Inactive)
REMARK    1  A    between atoms: C_1  and  C_2
REMARK    2  A    between atoms: C_2  and  N_3
REMARK    3  A    between atoms: C_2  and  C_16
REMARK    4  A    between atoms: C_4  and  C_6
REMARK    5  A    between atoms: C_19  and  O_20
REMARK    6  A    between atoms: O_20  and  C_21
REMARK                            x       y       z     vdW  Elec       q    Type
REMARK                         _______ _______ _______ _____ _____    ______ ____
ROOT
ATOM      1  C   UNL     1      43.692   3.364  11.075  0.00  0.00    +0.000 C 
ATOM      2  C   UNL     1      44.154   4.239   9.909  0.00  0.00    +0.000 C 
ENDROOT
BRANCH   2   3
ATOM      3  C   UNL     1      45.062   3.484   8.955  0.00  0.00    +0.000 A 
ATOM      4  C   UNL     1      45.802   4.203   8.006  0.00  0.00    +0.000 A 
ATOM      5  C   UNL     1      46.694   3.552   7.155  0.00  0.00    +0.000 A 
ATOM      6  C   UNL     1      46.892   2.172   7.266  0.00  0.00    +0.000 A 
ATOM      7  C   UNL     1      46.128   1.437   8.171  0.00  0.00    +0.000 A 
ATOM      8  C   UNL     1      45.220   2.088   9.012  0.00  0.00    +0.000 A 
BRANCH   6   9
ATOM      9  O   UNL     1      47.770   1.464   6.473  0.00  0.00    +0.000 OA
BRANCH   9  10
ATOM     10  C   UNL     1      47.268   0.828   5.345  0.00  0.00    +0.000 A 
ATOM     11  C   UNL     1      46.843   1.630   4.296  0.00  0.00    +0.000 A 
ATOM     12  N   UNL     1      46.362   1.118   3.133  0.00  0.00    +0.000 NA
ATOM     13  C   UNL     1      46.315  -0.233   3.076  0.00  0.00    +0.000 A 
ATOM     14  C   UNL     1      46.713  -1.034   4.134  0.00  0.00    +0.000 A 
ATOM     15  N   UNL     1      47.182  -0.525   5.293  0.00  0.00    +0.000 NA
ENDBRANCH   9  10
ENDBRANCH   6   9
ENDBRANCH   2   3
BRANCH   2  16
ATOM     16  N   UNL     1      44.808   5.450  10.373  0.00  0.00    +0.000 N 
ATOM     17  C   UNL     1      44.140   6.406  11.094  0.00  0.00    +0.000 C 
ATOM     18  O   UNL     1      42.957   6.279  11.401  0.00  0.00    +0.000 OA
ATOM     19  H   UNL     1      45.746   5.637  10.032  0.00  0.00    +0.000 HD
BRANCH  17  20
ATOM     20  C   UNL     1      44.910   7.580  11.526  0.00  0.00    +0.000 A 
ATOM     21  C   UNL     1      46.127   7.394  12.171  0.00  0.00    +0.000 A 
ATOM     22  S   UNL     1      46.898   8.845  12.618  0.00  0.00    +0.000 S 
ATOM     23  C   UNL     1      45.614   9.778  12.006  0.00  0.00    +0.000 A 
ATOM     24  N   UNL     1      45.625  11.134  12.114  0.00  0.00    +0.000 NA
ATOM     25  C   UNL     1      44.569  11.713  11.650  0.00  0.00    +0.000 A 
ATOM     26  N   UNL     1      43.511  11.061  11.071  0.00  0.00    +0.000 N 
ATOM     27  C   UNL     1      43.495   9.701  10.868  0.00  0.00    +0.000 A 
ATOM     28  O   UNL     1      42.601   9.164  10.223  0.00  0.00    +0.000 OA
ATOM     29  C   UNL     1      44.629   8.994  11.430  0.00  0.00    +0.000 A 
ATOM     30  H   UNL     1      42.730  11.577  10.693  0.00  0.00    +0.000 HD
ENDBRANCH  17  20
ENDBRANCH   2  16
TORSDOF 5
ENDMDL
MODEL 7
REMARK VINA RESULT:    -6.932      3.951      6.758
REMARK INTER + INTRA:          -9.928
REMARK INTER:                  -9.272
REMARK INTRA:                  -0.656
REMARK UNBOUND:                -0.970
REMARK  Name = 
REMARK  6 active torsions:
REMARK  status: ('A' for Active; 'I' for Inactive)
REMARK    1  A    between atoms: C_1  and  C_2
REMARK    2  A    between atoms: C_2  and  N_3
REMARK    3  A    between atoms: C_2  and  C_16
REMARK    4  A    between atoms: C_4  and  C_6
REMARK    5  A    between atoms: C_19  and  O_20
REMARK    6  A    between atoms: O_20  and  C_21
REMARK                            x       y       z     vdW  Elec       q    Type
REMARK                         _______ _______ _______ _____ _____    ______ ____
ROOT
ATOM      1  C   UNL     1      49.379   8.235  13.564  0.00  0.00    +0.000 C 
ATOM      2  C   UNL     1      48.828   6.938  14.160  0.00  0.00    +0.000 C 
ENDROOT
BRANCH   2   3
ATOM      3  C   UNL     1      47.654   6.399  13.364  0.00  0.00    +0.000 A 
ATOM      4  C   UNL     1      47.239   7.083  12.213  0.00  0.00    +0.000 A 
ATOM      5  C   UNL     1      46.206   6.586  11.420  0.00  0.00    +0.000 A 
ATOM      6  C   UNL     1      45.594   5.371  11.744  0.00  0.00    +0.000 A 
ATOM      7  C   UNL     1      45.963   4.704  12.912  0.00  0.00    +0.000 A 
ATOM      8  C   UNL     1      46.987   5.212  13.716  0.00  0.00    +0.000 A 
BRANCH   6   9
ATOM      9  O   UNL     1      44.580   4.807  10.998  0.00  0.00    +0.000 OA
BRANCH   9  10
ATOM     10  C   UNL     1      44.929   3.998   9.925  0.00  0.00    +0.000 A 
ATOM     11  C   UNL     1      45.457   4.618   8.802  0.00  0.00    +0.000 A 
ATOM     12  N   UNL     1      45.860   3.925   7.706  0.00  0.00    +0.000 NA
ATOM     13  C   UNL     1      45.696   2.584   7.781  0.00  0.00    +0.000 A 
ATOM     14  C   UNL     1      45.142   1.966   8.891  0.00  0.00    +0.000 A 
ATOM     15  N   UNL     1      44.733   2.656   9.977  0.00  0.00    +0.000 NA
ENDBRANCH   9  10
ENDBRANCH   6   9
ENDBRANCH   2   3
BRANCH   2  16
ATOM     16  N   UNL     1      48.458   7.104  15.554  0.00  0.00    +0.000 N 
ATOM     17  C   UNL     1      49.231   6.614  16.575  0.00  0.00    +0.000 C 
ATOM     18  O   UNL     1      50.289   6.025  16.364  0.00  0.00    +0.000 OA
ATOM     19  H   UNL     1      47.534   7.476  15.753  0.00  0.00    +0.000 HD
BRANCH  17  20
ATOM     20  C   UNL     1      48.764   6.859  17.946  0.00  0.00    +0.000 A 
ATOM     21  C   UNL     1      48.439   8.154  18.331  0.00  0.00    +0.000 A 
ATOM     22  S   UNL     1      47.922   8.282  19.949  0.00  0.00    +0.000 S 
ATOM     23  C   UNL     1      48.156   6.617  20.212  0.00  0.00    +0.000 A 
ATOM     24  N   UNL     1      47.934   6.067  21.435  0.00  0.00    +0.000 NA
ATOM     25  C   UNL     1      48.195   4.804  21.506  0.00  0.00    +0.000 A 
ATOM     26  N   UNL     1      48.639   4.039  20.460  0.00  0.00    +0.000 N 
ATOM     27  C   UNL     1      48.799   4.537  19.187  0.00  0.00    +0.000 A 
ATOM     28  O   UNL     1      49.062   3.799  18.244  0.00  0.00    +0.000 OA
ATOM     29  C   UNL     1      48.583   5.965  19.067  0.00  0.00    +0.000 A 
ATOM     30  H   UNL     1      48.789   3.047  20.571  0.00  0.00    +0.000 HD
ENDBRANCH  17  20
ENDBRANCH   2  16
TORSDOF 5
ENDMDL
MODEL 8
REMARK VINA RESULT:    -6.688      3.929      6.823
REMARK INTER + INTRA:          -9.613
REMARK INTER:                  -8.682
REMARK INTRA:                  -0.931
REMARK UNBOUND:                -0.970
REMARK  Name = 
REMARK  6 active torsions:
REMARK  status: ('A' for Active; 'I' for Inactive)
REMARK    1  A    between atoms: C_1  and  C_2
REMARK    2  A    between atoms: C_2  and  N_3
REMARK    3  A    between atoms: C_2  and  C_16
REMARK    4  A    between atoms: C_4  and  C_6
REMARK    5  A    between atoms: C_19  and  O_20
REMARK    6  A    between atoms: O_20  and  C_21
REMARK                            x       y       z     vdW  Elec       q    Type
REMARK                         _______ _______ _______ _____ _____    ______ ____
ROOT
ATOM      1  C   UNL     1      49.568   7.889  13.902  0.00  0.00    +0.000 C 
ATOM      2  C   UNL     1      48.873   6.639  14.443  0.00  0.00    +0.000 C 
ENDROOT
BRANCH   2   3
ATOM      3  C   UNL     1      47.700   6.219  13.576  0.00  0.00    +0.000 A 
ATOM      4  C   UNL     1      47.437   6.929  12.396  0.00  0.00    +0.000 A 
ATOM      5  C   UNL     1      46.409   6.535  11.541  0.00  0.00    +0.000 A 
ATOM      6  C   UNL     1      45.650   5.397  11.831  0.00  0.00    +0.000 A 
ATOM      7  C   UNL     1      45.868   4.710  13.024  0.00  0.00    +0.000 A 
ATOM      8  C   UNL     1      46.888   5.115  13.891  0.00  0.00    +0.000 A 
BRANCH   6   9
ATOM      9  O   UNL     1      44.631   4.936  11.024  0.00  0.00    +0.000 OA
BRANCH   9  10
ATOM     10  C   UNL     1      44.962   4.105   9.962  0.00  0.00    +0.000 A 
ATOM     11  C   UNL     1      45.462   4.702   8.815  0.00  0.00    +0.000 A 
ATOM     12  N   UNL     1      45.846   3.987   7.726  0.00  0.00    +0.000 NA
ATOM     13  C   UNL     1      45.693   2.647   7.834  0.00  0.00    +0.000 A 
ATOM     14  C   UNL     1      45.166   2.051   8.969  0.00  0.00    +0.000 A 
ATOM     15  N   UNL     1      44.776   2.763  10.048  0.00  0.00    +0.000 NA
ENDBRANCH   9  10
ENDBRANCH   6   9
ENDBRANCH   2   3
BRANCH   2  16
ATOM     16  N   UNL     1      48.442   6.818  15.819  0.00  0.00    +0.000 N 
ATOM     17  C   UNL     1      49.049   6.166  16.861  0.00  0.00    +0.000 C 
ATOM     18  O   UNL     1      50.002   5.409  16.687  0.00  0.00    +0.000 OA
ATOM     19  H   UNL     1      47.585   7.339  15.978  0.00  0.00    +0.000 HD
BRANCH  17  20
ATOM     20  C   UNL     1      48.539   6.440  18.211  0.00  0.00    +0.000 A 
ATOM     21  C   UNL     1      48.370   5.387  19.101  0.00  0.00    +0.000 A 
ATOM     22  S   UNL     1      47.765   5.859  20.621  0.00  0.00    +0.000 S 
ATOM     23  C   UNL     1      47.664   7.486  20.135  0.00  0.00    +0.000 A 
ATOM     24  N   UNL     1      47.170   8.435  20.975  0.00  0.00    +0.000 NA
ATOM     25  C   UNL     1      47.107   9.618  20.463  0.00  0.00    +0.000 A 
ATOM     26  N   UNL     1      47.511   9.942  19.194  0.00  0.00    +0.000 N 
ATOM     27  C   UNL     1      48.091   9.032  18.341  0.00  0.00    +0.000 A 
ATOM     28  O   UNL     1      48.570   9.381  17.268  0.00  0.00    +0.000 OA
ATOM     29  C   UNL     1      48.126   7.673  18.843  0.00  0.00    +0.000 A 
ATOM     30  H   UNL     1      47.470  10.896  18.865  0.00  0.00    +0.000 HD
ENDBRANCH  17  20
ENDBRANCH   2  16
TORSDOF 5
ENDMDL
MODEL 9
REMARK VINA RESULT:    -6.682      5.031     11.489
REMARK INTER + INTRA:          -9.605
REMARK INTER:                  -8.542
REMARK INTRA:                  -1.064
REMARK UNBOUND:                -0.970
REMARK  Name = 
REMARK  6 active torsions:
REMARK  status: ('A' for Active; 'I' for Inactive)
REMARK    1  A    between atoms: C_1  and  C_2
REMARK    2  A    between atoms: C_2  and  N_3
REMARK    3  A    between atoms: C_2  and  C_16
REMARK    4  A    between atoms: C_4  and  C_6
REMARK    5  A    between atoms: C_19  and  O_20
REMARK    6  A    between atoms: O_20  and  C_21
REMARK                            x       y       z     vdW  Elec       q    Type
REMARK                         _______ _______ _______ _____ _____    ______ ____
ROOT
ATOM      1  C   UNL     1      47.899   3.145  16.722  0.00  0.00    +0.000 C 
ATOM      2  C   UNL     1      48.084   4.578  16.220  0.00  0.00    +0.000 C 
ENDROOT
BRANCH   2   3
ATOM      3  C   UNL     1      48.068   5.585  17.355  0.00  0.00    +0.000 A 
ATOM      4  C   UNL     1      47.282   5.326  18.485  0.00  0.00    +0.000 A 
ATOM      5  C   UNL     1      47.289   6.195  19.575  0.00  0.00    +0.000 A 
ATOM      6  C   UNL     1      48.118   7.322  19.570  0.00  0.00    +0.000 A 
ATOM      7  C   UNL     1      48.868   7.619  18.433  0.00  0.00    +0.000 A 
ATOM      8  C   UNL     1      48.847   6.756  17.333  0.00  0.00    +0.000 A 
BRANCH   6   9
ATOM      9  O   UNL     1      48.193   8.216  20.617  0.00  0.00    +0.000 OA
BRANCH   9  10
ATOM     10  C   UNL     1      47.877   9.545  20.368  0.00  0.00    +0.000 A 
ATOM     11  C   UNL     1      48.885  10.483  20.530  0.00  0.00    +0.000 A 
ATOM     12  N   UNL     1      48.699  11.806  20.287  0.00  0.00    +0.000 NA
ATOM     13  C   UNL     1      47.452  12.147  19.886  0.00  0.00    +0.000 A 
ATOM     14  C   UNL     1      46.436  11.215  19.751  0.00  0.00    +0.000 A 
ATOM     15  N   UNL     1      46.619   9.901  20.003  0.00  0.00    +0.000 NA
ENDBRANCH   9  10
ENDBRANCH   6   9
ENDBRANCH   2   3
BRANCH   2  16
ATOM     16  N   UNL     1      47.090   4.928  15.221  0.00  0.00    +0.000 N 
ATOM     17  C   UNL     1      47.421   5.590  14.067  0.00  0.00    +0.000 C 
ATOM     18  O   UNL     1      48.580   5.905  13.808  0.00  0.00    +0.000 OA
ATOM     19  H   UNL     1      46.113   4.791  15.463  0.00  0.00    +0.000 HD
BRANCH  17  20
ATOM     20  C   UNL     1      46.332   5.875  13.122  0.00  0.00    +0.000 A 
ATOM     21  C   UNL     1      46.058   7.193  12.779  0.00  0.00    +0.000 A 
ATOM     22  S   UNL     1      44.766   7.365  11.682  0.00  0.00    +0.000 S 
ATOM     23  C   UNL     1      44.494   5.685  11.657  0.00  0.00    +0.000 A 
ATOM     24  N   UNL     1      43.475   5.155  10.929  0.00  0.00    +0.000 NA
ATOM     25  C   UNL     1      43.354   3.875  11.037  0.00  0.00    +0.000 A 
ATOM     26  N   UNL     1      44.171   3.074  11.792  0.00  0.00    +0.000 N 
ATOM     27  C   UNL     1      45.261   3.557  12.477  0.00  0.00    +0.000 A 
ATOM     28  O   UNL     1      46.053   2.800  13.027  0.00  0.00    +0.000 OA
ATOM     29  C   UNL     1      45.405   4.999  12.443  0.00  0.00    +0.000 A 
ATOM     30  H   UNL     1      44.046   2.072  11.804  0.00  0.00    +0.000 HD
ENDBRANCH  17  20
ENDBRANCH   2  16
TORSDOF 5
ENDMDL
