MODEL 1
REMARK VINA RESULT:    -7.423      0.000      0.000
REMARK INTER + INTRA:          -9.275
REMARK INTER:                  -8.725
REMARK INTRA:                  -0.550
REMARK UNBOUND:                -0.550
REMARK  Name = 
REMARK  3 active torsions:
REMARK  status: ('A' for Active; 'I' for Inactive)
REMARK    1  A    between atoms: N_6  and  C_7
REMARK    2  A    between atoms: C_7  and  C_8
REMARK    3  A    between atoms: C_12  and  C_13
REMARK                            x       y       z     vdW  Elec       q    Type
REMARK                         _______ _______ _______ _____ _____    ______ ____
ROOT
ATOM      1  C   UNL     1      43.914   4.828  11.487  0.00  0.00    +0.000 C 
ATOM      2  C   UNL     1      42.601   5.228  12.147  0.00  0.00    +0.000 C 
ATOM      3  C   UNL     1      43.159   6.072  11.050  0.00  0.00    +0.000 C 
ENDROOT
BRANCH   1   9
ATOM      4 CL   UNL     1      47.398   2.419   6.249  0.00  0.00    +0.000 Cl
ATOM      5  C   UNL     1      46.355   2.770   7.555  0.00  0.00    +0.000 A 
ATOM      6  C   UNL     1      45.841   1.793   8.369  0.00  0.00    +0.000 A 
ATOM      7  N   UNL     1      45.019   2.048   9.415  0.00  0.00    +0.000 NA
ATOM      8  C   UNL     1      44.716   3.335   9.655  0.00  0.00    +0.000 A 
ATOM      9  N   UNL     1      43.872   3.566  10.737  0.00  0.00    +0.000 N 
ATOM     10  N   UNL     1      45.175   4.357   8.912  0.00  0.00    +0.000 NA
ATOM     11  C   UNL     1      45.978   4.052   7.870  0.00  0.00    +0.000 A 
ATOM     12  H   UNL     1      43.819   2.696  11.258  0.00  0.00    +0.000 HD
ENDBRANCH   1   9
BRANCH   1  13
ATOM     13  C   UNL     1      45.233   5.090  12.201  0.00  0.00    +0.000 A 
ATOM     14  C   UNL     1      45.730   4.182  13.143  0.00  0.00    +0.000 A 
ATOM     15  C   UNL     1      46.981   4.392  13.695  0.00  0.00    +0.000 A 
ATOM     16  N   UNL     1      47.763   5.447  13.392  0.00  0.00    +0.000 NA
ATOM     17  C   UNL     1      47.277   6.358  12.515  0.00  0.00    +0.000 A 
ATOM     18  C   UNL     1      46.023   6.212  11.921  0.00  0.00    +0.000 A 
BRANCH  17  19
ATOM     19  C   UNL     1      48.163   7.484  12.219  0.00  0.00    +0.000 A 
ATOM     20  C   UNL     1      49.531   7.336  12.068  0.00  0.00    +0.000 A 
ATOM     21  N   UNL     1      50.387   8.346  11.779  0.00  0.00    +0.000 NA
ATOM     22  C   UNL     1      49.831   9.557  11.648  0.00  0.00    +0.000 A 
ATOM     23  N   UNL     1      48.526   9.841  11.772  0.00  0.00    +0.000 NA
ATOM     24  C   UNL     1      47.727   8.789  12.060  0.00  0.00    +0.000 A 
ENDBRANCH  17  19
ENDBRANCH   1  13
TORSDOF 3
ENDMDL
MODEL 2
REMARK VINA RESULT:    -7.281      1.923      3.650
REMARK INTER + INTRA:          -9.108
REMARK INTER:                  -8.821
REMARK INTRA:                  -0.287
REMARK UNBOUND:                -0.550
REMARK  Name = 
REMARK  3 active torsions:
REMARK  status: ('A' for Active; 'I' for Inactive)
REMARK    1  A    between atoms: N_6  and  C_7
REMARK    2  A    between atoms: C_7  and  C_8
REMARK    3  A    between atoms: C_12  and  C_13
REMARK                            x       y       z     vdW  Elec       q    Type
REMARK                         _______ _______ _______ _____ _____    ______ ____
ROOT
ATOM      1  C   UNL     1      44.121   4.805  11.828  0.00  0.00    +0.000 C 
ATOM      2  C   UNL     1      42.839   5.123  12.585  0.00  0.00    +0.000 C 
ATOM      3  C   UNL     1      43.239   5.975  11.427  0.00  0.00    +0.000 C 
ENDROOT
BRANCH   1   9
ATOM      4 CL   UNL     1      46.890   2.698   6.061  0.00  0.00    +0.000 Cl
ATOM      5  C   UNL     1      46.065   2.953   7.533  0.00  0.00    +0.000 A 
ATOM      6  C   UNL     1      45.847   1.946   8.439  0.00  0.00    +0.000 A 
ATOM      7  N   UNL     1      45.204   2.126   9.617  0.00  0.00    +0.000 NA
ATOM      8  C   UNL     1      44.774   3.368   9.896  0.00  0.00    +0.000 A 
ATOM      9  N   UNL     1      44.118   3.523  11.113  0.00  0.00    +0.000 N 
ATOM     10  N   UNL     1      44.944   4.415   9.069  0.00  0.00    +0.000 NA
ATOM     11  C   UNL     1      45.577   4.183   7.900  0.00  0.00    +0.000 A 
ATOM     12  H   UNL     1      44.282   2.673  11.643  0.00  0.00    +0.000 HD
ENDBRANCH   1   9
BRANCH   1  13
ATOM     13  C   UNL     1      45.469   5.188  12.426  0.00  0.00    +0.000 A 
ATOM     14  C   UNL     1      46.313   6.091  11.768  0.00  0.00    +0.000 A 
ATOM     15  C   UNL     1      47.481   6.502  12.385  0.00  0.00    +0.000 A 
ATOM     16  N   UNL     1      47.876   6.068  13.599  0.00  0.00    +0.000 NA
ATOM     17  C   UNL     1      47.092   5.160  14.228  0.00  0.00    +0.000 A 
ATOM     18  C   UNL     1      45.902   4.699  13.664  0.00  0.00    +0.000 A 
BRANCH  17  19
ATOM     19  C   UNL     1      47.565   4.720  15.541  0.00  0.00    +0.000 A 
ATOM     20  C   UNL     1      47.185   3.514  16.104  0.00  0.00    +0.000 A 
ATOM     21  N   UNL     1      47.609   3.059  17.308  0.00  0.00    +0.000 NA
ATOM     22  C   UNL     1      48.445   3.869  17.971  0.00  0.00    +0.000 A 
ATOM     23  N   UNL     1      48.888   5.061  17.545  0.00  0.00    +0.000 NA
ATOM     24  C   UNL     1      48.428   5.455  16.337  0.00  0.00    +0.000 A 
ENDBRANCH  17  19
ENDBRANCH   1  13
TORSDOF 3
ENDMDL
MODEL 3
REMARK VINA RESULT:    -6.377      3.841      7.631
REMARK INTER + INTRA:          -8.045
REMARK INTER:                  -7.564
REMARK INTRA:                  -0.481
REMARK UNBOUND:                -0.550
REMARK  Name = 
REMARK  3 active torsions:
REMARK  status: ('A' for Active; 'I' for Inactive)
REMARK    1  A    between atoms: N_6  and  C_7
REMARK    2  A    between atoms: C_7  and  C_8
REMARK    3  A    between atoms: C_12  and  C_13
REMARK                            x       y       z     vdW  Elec       q    Type
REMARK                         _______ _______ _______ _____ _____    ______ ____
ROOT
ATOM      1  C   UNL     1      49.066   7.730  12.573  0.00  0.00    +0.000 C 
ATOM      2  C   UNL     1      49.991   7.819  11.368  0.00  0.00    +0.000 C 
ATOM      3  C   UNL     1      49.704   9.046  12.166  0.00  0.00    +0.000 C 
ENDROOT
BRANCH   1   9
ATOM      4 CL   UNL     1      48.052   7.801  19.232  0.00  0.00    +0.000 Cl
ATOM      5  C   UNL     1      48.506   7.557  17.604  0.00  0.00    +0.000 A 
ATOM      6  C   UNL     1      48.858   6.325  17.115  0.00  0.00    +0.000 A 
ATOM      7  N   UNL     1      49.213   6.106  15.826  0.00  0.00    +0.000 NA
ATOM      8  C   UNL     1      49.201   7.165  15.000  0.00  0.00    +0.000 A 
ATOM      9  N   UNL     1      49.569   6.910  13.682  0.00  0.00    +0.000 N 
ATOM     10  N   UNL     1      48.869   8.409  15.391  0.00  0.00    +0.000 NA
ATOM     11  C   UNL     1      48.538   8.580  16.689  0.00  0.00    +0.000 A 
ATOM     12  H   UNL     1      49.578   5.901  13.573  0.00  0.00    +0.000 HD
ENDBRANCH   1   9
BRANCH   1  13
ATOM     13  C   UNL     1      47.558   7.652  12.368  0.00  0.00    +0.000 A 
ATOM     14  C   UNL     1      46.800   8.814  12.180  0.00  0.00    +0.000 A 
ATOM     15  C   UNL     1      45.453   8.706  11.889  0.00  0.00    +0.000 A 
ATOM     16  N   UNL     1      44.803   7.530  11.788  0.00  0.00    +0.000 NA
ATOM     17  C   UNL     1      45.513   6.398  12.011  0.00  0.00    +0.000 A 
ATOM     18  C   UNL     1      46.875   6.431  12.312  0.00  0.00    +0.000 A 
BRANCH  17  19
ATOM     19  C   UNL     1      44.762   5.148  11.890  0.00  0.00    +0.000 A 
ATOM     20  C   UNL     1      44.488   4.335  12.977  0.00  0.00    +0.000 A 
ATOM     21  N   UNL     1      43.784   3.179  12.915  0.00  0.00    +0.000 NA
ATOM     22  C   UNL     1      43.351   2.829  11.697  0.00  0.00    +0.000 A 
ATOM     23  N   UNL     1      43.549   3.519  10.564  0.00  0.00    +0.000 NA
ATOM     24  C   UNL     1      44.257   4.663  10.696  0.00  0.00    +0.000 A 
ENDBRANCH  17  19
ENDBRANCH   1  13
TORSDOF 3
ENDMDL
MODEL 4
REMARK VINA RESULT:    -6.056      2.532      4.426
REMARK INTER + INTRA:          -7.668
REMARK INTER:                  -7.233
REMARK INTRA:                  -0.434
REMARK UNBOUND:                -0.550
REMARK  Name = 
REMARK  3 active torsions:
REMARK  status: ('A' for Active; 'I' for Inactive)
REMARK    1  A    between atoms: N_6  and  C_7
REMARK    2  A    between atoms: C_7  and  C_8
REMARK    3  A    between atoms: C_12  and  C_13
REMARK                            x       y       z     vdW  Elec       q    Type
REMARK                         _______ _______ _______ _____ _____    ______ ____
ROOT
ATOM      1  C   UNL     1      45.204   7.704  12.174  0.00  0.00    +0.000 C 
ATOM      2  C   UNL     1      44.774   9.116  12.547  0.00  0.00    +0.000 C 
ATOM      3  C   UNL     1      45.360   8.859  11.199  0.00  0.00    +0.000 C 
ENDROOT
BRANCH   1   9
ATOM      4 CL   UNL     1      44.550   1.742   9.108  0.00  0.00    +0.000 Cl
ATOM      5  C   UNL     1      44.423   3.214   9.964  0.00  0.00    +0.000 A 
ATOM      6  C   UNL     1      43.610   3.361  11.059  0.00  0.00    +0.000 A 
ATOM      7  N   UNL     1      43.500   4.516  11.759  0.00  0.00    +0.000 NA
ATOM      8  C   UNL     1      44.244   5.555  11.345  0.00  0.00    +0.000 A 
ATOM      9  N   UNL     1      44.112   6.727  12.084  0.00  0.00    +0.000 N 
ATOM     10  N   UNL     1      45.069   5.502  10.284  0.00  0.00    +0.000 NA
ATOM     11  C   UNL     1      45.133   4.334   9.609  0.00  0.00    +0.000 A 
ATOM     12  H   UNL     1      43.610   6.482  12.932  0.00  0.00    +0.000 HD
ENDBRANCH   1   9
BRANCH   1  13
ATOM     13  C   UNL     1      46.508   7.139  12.721  0.00  0.00    +0.000 A 
ATOM     14  C   UNL     1      47.734   7.468  12.131  0.00  0.00    +0.000 A 
ATOM     15  C   UNL     1      48.908   7.028  12.713  0.00  0.00    +0.000 A 
ATOM     16  N   UNL     1      48.951   6.272  13.828  0.00  0.00    +0.000 NA
ATOM     17  C   UNL     1      47.771   5.908  14.387  0.00  0.00    +0.000 A 
ATOM     18  C   UNL     1      46.548   6.314  13.852  0.00  0.00    +0.000 A 
BRANCH  17  19
ATOM     19  C   UNL     1      47.871   5.089  15.594  0.00  0.00    +0.000 A 
ATOM     20  C   UNL     1      48.776   5.359  16.606  0.00  0.00    +0.000 A 
ATOM     21  N   UNL     1      48.893   4.638  17.748  0.00  0.00    +0.000 NA
ATOM     22  C   UNL     1      48.062   3.593  17.860  0.00  0.00    +0.000 A 
ATOM     23  N   UNL     1      47.145   3.218  16.957  0.00  0.00    +0.000 NA
ATOM     24  C   UNL     1      47.079   3.980  15.842  0.00  0.00    +0.000 A 
ENDBRANCH  17  19
ENDBRANCH   1  13
TORSDOF 3
ENDMDL
MODEL 5
REMARK VINA RESULT:    -5.724      3.092      6.883
REMARK INTER + INTRA:          -7.278
REMARK INTER:                  -7.828
REMARK INTRA:                   0.550
REMARK UNBOUND:                -0.550
REMARK  Name = 
REMARK  3 active torsions:
REMARK  status: ('A' for Active; 'I' for Inactive)
REMARK    1  A    between atoms: N_6  and  C_7
REMARK    2  A    between atoms: C_7  and  C_8
REMARK    3  A    between atoms: C_12  and  C_13
REMARK                            x       y       z     vdW  Elec       q    Type
REMARK                         _______ _______ _______ _____ _____    ______ ____
ROOT
ATOM      1  C   UNL     1      48.546   7.749  13.026  0.00  0.00    +0.000 C 
ATOM      2  C   UNL     1      49.754   7.262  12.238  0.00  0.00    +0.000 C 
ATOM      3  C   UNL     1      49.369   8.702  12.177  0.00  0.00    +0.000 C 
ENDROOT
BRANCH   1   9
ATOM      4 CL   UNL     1      47.769   2.749  17.472  0.00  0.00    +0.000 Cl
ATOM      5  C   UNL     1      48.017   4.190  16.591  0.00  0.00    +0.000 A 
ATOM      6  C   UNL     1      48.880   5.170  17.011  0.00  0.00    +0.000 A 
ATOM      7  N   UNL     1      49.100   6.317  16.325  0.00  0.00    +0.000 NA
ATOM      8  C   UNL     1      48.434   6.475  15.169  0.00  0.00    +0.000 A 
ATOM      9  N   UNL     1      48.681   7.662  14.485  0.00  0.00    +0.000 N 
ATOM     10  N   UNL     1      47.570   5.568  14.679  0.00  0.00    +0.000 NA
ATOM     11  C   UNL     1      47.372   4.448  15.407  0.00  0.00    +0.000 A 
ATOM     12  H   UNL     1      49.493   8.087  14.922  0.00  0.00    +0.000 HD
ENDBRANCH   1   9
BRANCH   1  13
ATOM     13  C   UNL     1      47.140   7.472  12.508  0.00  0.00    +0.000 A 
ATOM     14  C   UNL     1      46.081   8.335  12.815  0.00  0.00    +0.000 A 
ATOM     15  C   UNL     1      44.841   8.118  12.244  0.00  0.00    +0.000 A 
ATOM     16  N   UNL     1      44.574   7.099  11.403  0.00  0.00    +0.000 NA
ATOM     17  C   UNL     1      45.577   6.230  11.131  0.00  0.00    +0.000 A 
ATOM     18  C   UNL     1      46.853   6.385  11.674  0.00  0.00    +0.000 A 
BRANCH  17  19
ATOM     19  C   UNL     1      45.237   5.141  10.214  0.00  0.00    +0.000 A 
ATOM     20  C   UNL     1      45.755   5.056   8.933  0.00  0.00    +0.000 A 
ATOM     21  N   UNL     1      45.482   4.060   8.057  0.00  0.00    +0.000 NA
ATOM     22  C   UNL     1      44.639   3.116   8.497  0.00  0.00    +0.000 A 
ATOM     23  N   UNL     1      44.064   3.079   9.708  0.00  0.00    +0.000 NA
ATOM     24  C   UNL     1      44.380   4.102  10.534  0.00  0.00    +0.000 A 
ENDBRANCH  17  19
ENDBRANCH   1  13
TORSDOF 3
ENDMDL
MODEL 6
REMARK VINA RESULT:    -5.395      4.723      7.784
REMARK INTER + INTRA:          -6.891
REMARK INTER:                  -6.847
REMARK INTRA:                  -0.044
REMARK UNBOUND:                -0.550
REMARK  Name = 
REMARK  3 active torsions:
REMARK  status: ('A' for Active; 'I' for Inactive)
REMARK    1  A    between atoms: N_6  and  C_7
REMARK    2  A    between atoms: C_7  and  C_8
REMARK    3  A    between atoms: C_12  and  C_13
REMARK                            x       y       z     vdW  Elec       q    Type
REMARK                         _______ _______ _______ _____ _____    ______ ____
ROOT
ATOM      1  C   UNL     1      48.183   4.670  17.238  0.00  0.00    +0.000 C 
ATOM      2  C   UNL     1      46.980   4.657  18.170  0.00  0.00    +0.000 C 
ATOM      3  C   UNL     1      47.287   3.449  17.351  0.00  0.00    +0.000 C 
ENDROOT
BRANCH   1   9
ATOM      4 CL   UNL     1      53.662   0.753  17.328  0.00  0.00    +0.000 Cl
ATOM      5  C   UNL     1      52.426   1.917  17.508  0.00  0.00    +0.000 A 
ATOM      6  C   UNL     1      52.690   3.238  17.763  0.00  0.00    +0.000 A 
ATOM      7  N   UNL     1      51.727   4.181  17.900  0.00  0.00    +0.000 NA
ATOM      8  C   UNL     1      50.453   3.777  17.763  0.00  0.00    +0.000 A 
ATOM      9  N   UNL     1      49.486   4.767  17.908  0.00  0.00    +0.000 N 
ATOM     10  N   UNL     1      50.100   2.504  17.511  0.00  0.00    +0.000 NA
ATOM     11  C   UNL     1      51.095   1.598  17.399  0.00  0.00    +0.000 A 
ATOM     12  H   UNL     1      49.974   5.657  17.890  0.00  0.00    +0.000 HD
ENDBRANCH   1   9
BRANCH   1  13
ATOM     13  C   UNL     1      48.104   5.409  15.908  0.00  0.00    +0.000 A 
ATOM     14  C   UNL     1      48.986   6.456  15.617  0.00  0.00    +0.000 A 
ATOM     15  C   UNL     1      48.962   7.036  14.362  0.00  0.00    +0.000 A 
ATOM     16  N   UNL     1      48.115   6.661  13.383  0.00  0.00    +0.000 NA
ATOM     17  C   UNL     1      47.226   5.678  13.663  0.00  0.00    +0.000 A 
ATOM     18  C   UNL     1      47.191   5.050  14.909  0.00  0.00    +0.000 A 
BRANCH  17  19
ATOM     19  C   UNL     1      46.329   5.308  12.568  0.00  0.00    +0.000 A 
ATOM     20  C   UNL     1      46.193   6.075  11.424  0.00  0.00    +0.000 A 
ATOM     21  N   UNL     1      45.388   5.764  10.379  0.00  0.00    +0.000 NA
ATOM     22  C   UNL     1      44.685   4.632  10.508  0.00  0.00    +0.000 A 
ATOM     23  N   UNL     1      44.718   3.801  11.560  0.00  0.00    +0.000 NA
ATOM     24  C   UNL     1      45.542   4.169  12.567  0.00  0.00    +0.000 A 
ENDBRANCH  17  19
ENDBRANCH   1  13
TORSDOF 3
ENDMDL
MODEL 7
REMARK VINA RESULT:    -5.258      5.263      8.612
REMARK INTER + INTRA:          -6.730
REMARK INTER:                  -6.745
REMARK INTRA:                   0.016
REMARK UNBOUND:                -0.550
REMARK  Name = 
REMARK  3 active torsions:
REMARK  status: ('A' for Active; 'I' for Inactive)
REMARK    1  A    between atoms: N_6  and  C_7
REMARK    2  A    between atoms: C_7  and  C_8
REMARK    3  A    between atoms: C_12  and  C_13
REMARK                            x       y       z     vdW  Elec       q    Type
REMARK                         _______ _______ _______ _____ _____    ______ ____
ROOT
ATOM      1  C   UNL     1      47.699   4.318  17.099  0.00  0.00    +0.000 C 
ATOM      2  C   UNL     1      47.553   2.807  17.213  0.00  0.00    +0.000 C 
ATOM      3  C   UNL     1      48.911   3.421  17.279  0.00  0.00    +0.000 C 
ENDROOT
BRANCH   1   9
ATOM      4 CL   UNL     1      49.960   9.264  21.073  0.00  0.00    +0.000 Cl
ATOM      5  C   UNL     1      49.135   8.025  20.238  0.00  0.00    +0.000 A 
ATOM      6  C   UNL     1      47.771   8.018  20.090  0.00  0.00    +0.000 A 
ATOM      7  N   UNL     1      47.096   7.051  19.425  0.00  0.00    +0.000 NA
ATOM      8  C   UNL     1      47.823   6.061  18.880  0.00  0.00    +0.000 A 
ATOM      9  N   UNL     1      47.103   5.083  18.202  0.00  0.00    +0.000 N 
ATOM     10  N   UNL     1      49.163   5.987  18.973  0.00  0.00    +0.000 NA
ATOM     11  C   UNL     1      49.790   6.966  19.660  0.00  0.00    +0.000 A 
ATOM     12  H   UNL     1      46.160   5.441  18.088  0.00  0.00    +0.000 HD
ENDBRANCH   1   9
BRANCH   1  13
ATOM     13  C   UNL     1      47.589   4.990  15.737  0.00  0.00    +0.000 A 
ATOM     14  C   UNL     1      48.451   6.035  15.383  0.00  0.00    +0.000 A 
ATOM     15  C   UNL     1      48.399   6.553  14.102  0.00  0.00    +0.000 A 
ATOM     16  N   UNL     1      47.543   6.120  13.155  0.00  0.00    +0.000 NA
ATOM     17  C   UNL     1      46.673   5.139  13.496  0.00  0.00    +0.000 A 
ATOM     18  C   UNL     1      46.666   4.571  14.771  0.00  0.00    +0.000 A 
BRANCH  17  19
ATOM     19  C   UNL     1      45.765   4.704  12.434  0.00  0.00    +0.000 A 
ATOM     20  C   UNL     1      45.029   3.534  12.515  0.00  0.00    +0.000 A 
ATOM     21  N   UNL     1      44.166   3.100  11.566  0.00  0.00    +0.000 NA
ATOM     22  C   UNL     1      44.054   3.883  10.484  0.00  0.00    +0.000 A 
ATOM     23  N   UNL     1      44.708   5.034  10.276  0.00  0.00    +0.000 NA
ATOM     24  C   UNL     1      45.553   5.411  11.262  0.00  0.00    +0.000 A 
ENDBRANCH  17  19
ENDBRANCH   1  13
TORSDOF 3
ENDMDL
MODEL 8
REMARK VINA RESULT:    -5.231      3.538      6.036
REMARK INTER + INTRA:          -6.699
REMARK INTER:                  -6.373
REMARK INTRA:                  -0.325
REMARK UNBOUND:                -0.550
REMARK  Name = 
REMARK  3 active torsions:
REMARK  status: ('A' for Active; 'I' for Inactive)
REMARK    1  A    between atoms: N_6  and  C_7
REMARK    2  A    between atoms: C_7  and  C_8
REMARK    3  A    between atoms: C_12  and  C_13
REMARK                            x       y       z     vdW  Elec       q    Type
REMARK                         _______ _______ _______ _____ _____    ______ ____
ROOT
ATOM      1  C   UNL     1      48.096   8.194  12.611  0.00  0.00    +0.000 C 
ATOM      2  C   UNL     1      48.927   9.146  11.762  0.00  0.00    +0.000 C 
ATOM      3  C   UNL     1      49.193   7.679  11.695  0.00  0.00    +0.000 C 
ENDROOT
BRANCH   1   9
ATOM      4 CL   UNL     1      43.522   3.249  12.605  0.00  0.00    +0.000 Cl
ATOM      5  C   UNL     1      44.456   4.673  12.490  0.00  0.00    +0.000 A 
ATOM      6  C   UNL     1      43.914   5.924  12.641  0.00  0.00    +0.000 A 
ATOM      7  N   UNL     1      44.636   7.067  12.562  0.00  0.00    +0.000 NA
ATOM      8  C   UNL     1      45.955   6.943  12.335  0.00  0.00    +0.000 A 
ATOM      9  N   UNL     1      46.671   8.134  12.261  0.00  0.00    +0.000 N 
ATOM     10  N   UNL     1      46.572   5.759  12.176  0.00  0.00    +0.000 NA
ATOM     11  C   UNL     1      45.807   4.649  12.247  0.00  0.00    +0.000 A 
ATOM     12  H   UNL     1      46.057   8.865  12.604  0.00  0.00    +0.000 HD
ENDBRANCH   1   9
BRANCH   1  13
ATOM     13  C   UNL     1      48.382   8.060  14.101  0.00  0.00    +0.000 A 
ATOM     14  C   UNL     1      48.302   9.171  14.949  0.00  0.00    +0.000 A 
ATOM     15  C   UNL     1      48.461   8.999  16.312  0.00  0.00    +0.000 A 
ATOM     16  N   UNL     1      48.710   7.807  16.889  0.00  0.00    +0.000 NA
ATOM     17  C   UNL     1      48.835   6.729  16.078  0.00  0.00    +0.000 A 
ATOM     18  C   UNL     1      48.690   6.829  14.694  0.00  0.00    +0.000 A 
BRANCH  17  19
ATOM     19  C   UNL     1      49.106   5.460  16.753  0.00  0.00    +0.000 A 
ATOM     20  C   UNL     1      48.186   4.426  16.794  0.00  0.00    +0.000 A 
ATOM     21  N   UNL     1      48.399   3.229  17.392  0.00  0.00    +0.000 NA
ATOM     22  C   UNL     1      49.592   3.081  17.982  0.00  0.00    +0.000 A 
ATOM     23  N   UNL     1      50.569   3.998  18.021  0.00  0.00    +0.000 NA
ATOM     24  C   UNL     1      50.293   5.169  17.405  0.00  0.00    +0.000 A 
ENDBRANCH  17  19
ENDBRANCH   1  13
TORSDOF 3
ENDMDL
MODEL 9
REMARK VINA RESULT:    -5.089      6.022      9.175
REMARK INTER + INTRA:          -6.531
REMARK INTER:                  -5.987
REMARK INTRA:                  -0.544
REMARK UNBOUND:                -0.550
REMARK  Name = 
REMARK  3 active torsions:
REMARK  status: ('A' for Active; 'I' for Inactive)
REMARK    1  A    between atoms: N_6  and  C_7
REMARK    2  A    between atoms: C_7  and  C_8
REMARK    3  A    between atoms: C_12  and  C_13
REMARK                            x       y       z     vdW  Elec       q    Type
REMARK                         _______ _______ _______ _____ _____    ______ ____
ROOT
ATOM      1  C   UNL     1      50.206   5.459  18.334  0.00  0.00    +0.000 C 
ATOM      2  C   UNL     1      51.617   4.892  18.277  0.00  0.00    +0.000 C 
ATOM      3  C   UNL     1      51.284   6.114  17.487  0.00  0.00    +0.000 C 
ENDROOT
BRANCH   1   9
ATOM      4 CL   UNL     1      46.123  10.447  20.288  0.00  0.00    +0.000 Cl
ATOM      5  C   UNL     1      47.214   9.149  20.091  0.00  0.00    +0.000 A 
ATOM      6  C   UNL     1      47.340   8.147  21.019  0.00  0.00    +0.000 A 
ATOM      7  N   UNL     1      48.192   7.103  20.880  0.00  0.00    +0.000 NA
ATOM      8  C   UNL     1      48.934   7.063  19.761  0.00  0.00    +0.000 A 
ATOM      9  N   UNL     1      49.798   5.979  19.645  0.00  0.00    +0.000 N 
ATOM     10  N   UNL     1      48.875   8.000  18.798  0.00  0.00    +0.000 NA
ATOM     11  C   UNL     1      48.023   9.030  18.989  0.00  0.00    +0.000 A 
ATOM     12  H   UNL     1      49.533   5.316  20.367  0.00  0.00    +0.000 HD
ENDBRANCH   1   9
BRANCH   1  13
ATOM     13  C   UNL     1      49.087   4.788  17.549  0.00  0.00    +0.000 A 
ATOM     14  C   UNL     1      48.365   3.723  18.099  0.00  0.00    +0.000 A 
ATOM     15  C   UNL     1      47.285   3.204  17.408  0.00  0.00    +0.000 A 
ATOM     16  N   UNL     1      46.882   3.657  16.204  0.00  0.00    +0.000 NA
ATOM     17  C   UNL     1      47.597   4.658  15.638  0.00  0.00    +0.000 A 
ATOM     18  C   UNL     1      48.700   5.228  16.277  0.00  0.00    +0.000 A 
BRANCH  17  19
ATOM     19  C   UNL     1      47.121   5.114  14.332  0.00  0.00    +0.000 A 
ATOM     20  C   UNL     1      46.009   4.569  13.713  0.00  0.00    +0.000 A 
ATOM     21  N   UNL     1      45.522   4.969  12.513  0.00  0.00    +0.000 NA
ATOM     22  C   UNL     1      46.200   5.957  11.914  0.00  0.00    +0.000 A 
ATOM     23  N   UNL     1      47.291   6.568  12.398  0.00  0.00    +0.000 NA
ATOM     24  C   UNL     1      47.723   6.122  13.599  0.00  0.00    +0.000 A 
ENDBRANCH  17  19
ENDBRANCH   1  13
TORSDOF 3
ENDMDL
