MODEL 1
REMARK VINA RESULT:    -7.520      0.000      0.000
REMARK INTER + INTRA:         -10.534
REMARK INTER:                  -9.937
REMARK INTRA:                  -0.596
REMARK UNBOUND:                -0.596
REMARK  Name = 
REMARK  6 active torsions:
REMARK  status: ('A' for Active; 'I' for Inactive)
REMARK    1  A    between atoms: C_2  and  C_3
REMARK    2  A    between atoms: C_8  and  O_9
REMARK    3  A    between atoms: O_9  and  C_10
REMARK    4  A    between atoms: C_10  and  C_11
REMARK    5  A    between atoms: C_15  and  N_16
REMARK    6  A    between atoms: C_20  and  N_21
REMARK                            x       y       z     vdW  Elec       q    Type
REMARK                         _______ _______ _______ _____ _____    ______ ____
ROOT
ATOM      1  C   UNL     1      45.355   4.488  13.014  0.00  0.00    +0.000 A 
ATOM      2  C   UNL     1      44.028   4.817  13.252  0.00  0.00    +0.000 A 
ATOM      3  N   UNL     1      43.035   4.624  12.362  0.00  0.00    +0.000 NA
ATOM      4  C   UNL     1      43.388   4.071  11.173  0.00  0.00    +0.000 A 
ATOM      5  C   UNL     1      44.682   3.686  10.801  0.00  0.00    +0.000 A 
ATOM      6  C   UNL     1      45.663   3.902  11.777  0.00  0.00    +0.000 A 
ENDROOT
BRANCH   5   7
ATOM      7  N   UNL     1      44.971   3.189   9.543  0.00  0.00    +0.000 N 
ATOM      8  C   UNL     1      44.627   1.821   9.164  0.00  0.00    +0.000 C 
ATOM      9  C   UNL     1      45.807   1.216   8.403  0.00  0.00    +0.000 C 
ATOM     10  C   UNL     1      46.199   2.073   7.200  0.00  0.00    +0.000 C 
ATOM     11  C   UNL     1      46.485   3.523   7.623  0.00  0.00    +0.000 C 
ATOM     12  C   UNL     1      45.293   4.098   8.431  0.00  0.00    +0.000 C 
BRANCH  11  13
ATOM     13  N   UNL     1      46.803   4.332   6.438  0.00  0.00    +0.000 NA
ATOM     14  H   UNL     1      46.089   5.046   6.302  0.00  0.00    +0.000 HD
ATOM     15  H   UNL     1      46.764   3.738   5.609  0.00  0.00    +0.000 HD
ENDBRANCH  11  13
ENDBRANCH   5   7
BRANCH   1  16
ATOM     16  C   UNL     1      46.408   4.708  14.067  0.00  0.00    +0.000 C 
BRANCH  16  17
ATOM     17  O   UNL     1      46.989   3.438  14.359  0.00  0.00    +0.000 OA
BRANCH  17  23
ATOM     18  C   UNL     1      47.934   4.336  17.730  0.00  0.00    +0.000 A 
ATOM     19  C   UNL     1      48.928   3.395  17.979  0.00  0.00    +0.000 A 
ATOM     20  C   UNL     1      49.228   2.493  16.974  0.00  0.00    +0.000 A 
ATOM     21  F   UNL     1      50.183   1.584  17.204  0.00  0.00    +0.000 F 
ATOM     22  N   UNL     1      48.618   2.466  15.771  0.00  0.00    +0.000 NA
ATOM     23  C   UNL     1      47.662   3.389  15.561  0.00  0.00    +0.000 A 
ATOM     24  C   UNL     1      47.285   4.336  16.499  0.00  0.00    +0.000 A 
BRANCH  18  26
ATOM     25  N   UNL     1      47.281   6.070  19.541  0.00  0.00    +0.000 NA
ATOM     26  C   UNL     1      47.578   5.295  18.732  0.00  0.00    +0.000 C 
ENDBRANCH  18  26
ENDBRANCH  17  23
ENDBRANCH  16  17
ENDBRANCH   1  16
TORSDOF 6
ENDMDL
MODEL 2
REMARK VINA RESULT:    -7.268      2.028      2.352
REMARK INTER + INTRA:         -10.201
REMARK INTER:                  -9.503
REMARK INTRA:                  -0.698
REMARK UNBOUND:                -0.596
REMARK  Name = 
REMARK  6 active torsions:
REMARK  status: ('A' for Active; 'I' for Inactive)
REMARK    1  A    between atoms: C_2  and  C_3
REMARK    2  A    between atoms: C_8  and  O_9
REMARK    3  A    between atoms: O_9  and  C_10
REMARK    4  A    between atoms: C_10  and  C_11
REMARK    5  A    between atoms: C_15  and  N_16
REMARK    6  A    between atoms: C_20  and  N_21
REMARK                            x       y       z     vdW  Elec       q    Type
REMARK                         _______ _______ _______ _____ _____    ______ ____
ROOT
ATOM      1  C   UNL     1      45.022   5.700  12.250  0.00  0.00    +0.000 A 
ATOM      2  C   UNL     1      43.776   5.396  12.780  0.00  0.00    +0.000 A 
ATOM      3  N   UNL     1      42.940   4.478  12.256  0.00  0.00    +0.000 NA
ATOM      4  C   UNL     1      43.375   3.831  11.144  0.00  0.00    +0.000 A 
ATOM      5  C   UNL     1      44.605   4.031  10.508  0.00  0.00    +0.000 A 
ATOM      6  C   UNL     1      45.430   4.988  11.111  0.00  0.00    +0.000 A 
ENDROOT
BRANCH   5   7
ATOM      7  N   UNL     1      44.946   3.377   9.338  0.00  0.00    +0.000 N 
ATOM      8  C   UNL     1      44.670   1.955   9.150  0.00  0.00    +0.000 C 
ATOM      9  C   UNL     1      45.893   1.303   8.505  0.00  0.00    +0.000 C 
ATOM     10  C   UNL     1      46.279   1.999   7.200  0.00  0.00    +0.000 C 
ATOM     11  C   UNL     1      46.493   3.506   7.419  0.00  0.00    +0.000 C 
ATOM     12  C   UNL     1      45.258   4.134   8.115  0.00  0.00    +0.000 C 
BRANCH  11  13
ATOM     13  N   UNL     1      46.806   4.154   6.138  0.00  0.00    +0.000 NA
ATOM     14  H   UNL     1      47.470   4.913   6.284  0.00  0.00    +0.000 HD
ATOM     15  H   UNL     1      45.960   4.592   5.771  0.00  0.00    +0.000 HD
ENDBRANCH  11  13
ENDBRANCH   5   7
BRANCH   1  16
ATOM     16  C   UNL     1      45.914   6.719  12.905  0.00  0.00    +0.000 C 
BRANCH  16  17
ATOM     17  O   UNL     1      47.239   6.189  12.900  0.00  0.00    +0.000 OA
BRANCH  17  23
ATOM     18  C   UNL     1      47.716   4.711  16.164  0.00  0.00    +0.000 A 
ATOM     19  C   UNL     1      48.744   5.508  16.660  0.00  0.00    +0.000 A 
ATOM     20  C   UNL     1      49.226   6.517  15.848  0.00  0.00    +0.000 A 
ATOM     21  F   UNL     1      50.215   7.288  16.317  0.00  0.00    +0.000 F 
ATOM     22  N   UNL     1      48.767   6.779  14.607  0.00  0.00    +0.000 NA
ATOM     23  C   UNL     1      47.772   5.993  14.156  0.00  0.00    +0.000 A 
ATOM     24  C   UNL     1      47.219   4.955  14.887  0.00  0.00    +0.000 A 
BRANCH  18  26
ATOM     25  N   UNL     1      46.731   2.793  17.599  0.00  0.00    +0.000 NA
ATOM     26  C   UNL     1      47.176   3.649  16.957  0.00  0.00    +0.000 C 
ENDBRANCH  18  26
ENDBRANCH  17  23
ENDBRANCH  16  17
ENDBRANCH   1  16
TORSDOF 6
ENDMDL
MODEL 3
REMARK VINA RESULT:    -7.179      1.406      2.179
REMARK INTER + INTRA:         -10.084
REMARK INTER:                  -9.549
REMARK INTRA:                  -0.535
REMARK UNBOUND:                -0.596
REMARK  Name = 
REMARK  6 active torsions:
REMARK  status: ('A' for Active; 'I' for Inactive)
REMARK    1  A    between atoms: C_2  and  C_3
REMARK    2  A    between atoms: C_8  and  O_9
REMARK    3  A    between atoms: O_9  and  C_10
REMARK    4  A    between atoms: C_10  and  C_11
REMARK    5  A    between atoms: C_15  and  N_16
REMARK    6  A    between atoms: C_20  and  N_21
REMARK                            x       y       z     vdW  Elec       q    Type
REMARK                         _______ _______ _______ _____ _____    ______ ____
ROOT
ATOM      1  C   UNL     1      45.314   4.705  13.018  0.00  0.00    +0.000 A 
ATOM      2  C   UNL     1      44.000   5.110  13.209  0.00  0.00    +0.000 A 
ATOM      3  N   UNL     1      43.021   4.940  12.298  0.00  0.00    +0.000 NA
ATOM      4  C   UNL     1      43.376   4.332  11.137  0.00  0.00    +0.000 A 
ATOM      5  C   UNL     1      44.657   3.869  10.813  0.00  0.00    +0.000 A 
ATOM      6  C   UNL     1      45.622   4.065  11.807  0.00  0.00    +0.000 A 
ENDROOT
BRANCH   5   7
ATOM      7  N   UNL     1      44.952   3.318   9.578  0.00  0.00    +0.000 N 
ATOM      8  C   UNL     1      44.599   1.938   9.254  0.00  0.00    +0.000 C 
ATOM      9  C   UNL     1      45.780   1.293   8.529  0.00  0.00    +0.000 C 
ATOM     10  C   UNL     1      46.189   2.096   7.294  0.00  0.00    +0.000 C 
ATOM     11  C   UNL     1      46.483   3.561   7.659  0.00  0.00    +0.000 C 
ATOM     12  C   UNL     1      45.290   4.177   8.432  0.00  0.00    +0.000 C 
BRANCH  11  13
ATOM     13  N   UNL     1      46.816   4.317   6.444  0.00  0.00    +0.000 NA
ATOM     14  H   UNL     1      46.318   5.206   6.438  0.00  0.00    +0.000 HD
ATOM     15  H   UNL     1      46.477   3.804   5.628  0.00  0.00    +0.000 HD
ENDBRANCH  11  13
ENDBRANCH   5   7
BRANCH   1  16
ATOM     16  C   UNL     1      46.349   4.904  14.091  0.00  0.00    +0.000 C 
BRANCH  16  17
ATOM     17  O   UNL     1      46.635   3.622  14.648  0.00  0.00    +0.000 OA
BRANCH  17  23
ATOM     18  C   UNL     1      49.165   2.802  17.096  0.00  0.00    +0.000 A 
ATOM     19  C   UNL     1      48.810   3.661  18.132  0.00  0.00    +0.000 A 
ATOM     20  C   UNL     1      47.716   4.484  17.940  0.00  0.00    +0.000 A 
ATOM     21  F   UNL     1      47.366   5.314  18.931  0.00  0.00    +0.000 F 
ATOM     22  N   UNL     1      46.972   4.510  16.814  0.00  0.00    +0.000 NA
ATOM     23  C   UNL     1      47.339   3.666  15.832  0.00  0.00    +0.000 A 
ATOM     24  C   UNL     1      48.418   2.802  15.922  0.00  0.00    +0.000 A 
BRANCH  18  26
ATOM     25  N   UNL     1      51.199   1.218  17.355  0.00  0.00    +0.000 NA
ATOM     26  C   UNL     1      50.289   1.926  17.235  0.00  0.00    +0.000 C 
ENDBRANCH  18  26
ENDBRANCH  17  23
ENDBRANCH  16  17
ENDBRANCH   1  16
TORSDOF 6
ENDMDL
MODEL 4
REMARK VINA RESULT:    -6.831      3.104      8.197
REMARK INTER + INTRA:          -9.624
REMARK INTER:                  -8.840
REMARK INTRA:                  -0.784
REMARK UNBOUND:                -0.596
REMARK  Name = 
REMARK  6 active torsions:
REMARK  status: ('A' for Active; 'I' for Inactive)
REMARK    1  A    between atoms: C_2  and  C_3
REMARK    2  A    between atoms: C_8  and  O_9
REMARK    3  A    between atoms: O_9  and  C_10
REMARK    4  A    between atoms: C_10  and  C_11
REMARK    5  A    between atoms: C_15  and  N_16
REMARK    6  A    between atoms: C_20  and  N_21
REMARK                            x       y       z     vdW  Elec       q    Type
REMARK                         _______ _______ _______ _____ _____    ______ ____
ROOT
ATOM      1  C   UNL     1      47.581   7.136  13.084  0.00  0.00    +0.000 A 
ATOM      2  C   UNL     1      48.481   8.192  13.090  0.00  0.00    +0.000 A 
ATOM      3  N   UNL     1      49.408   8.385  14.050  0.00  0.00    +0.000 NA
ATOM      4  C   UNL     1      49.434   7.471  15.055  0.00  0.00    +0.000 A 
ATOM      5  C   UNL     1      48.593   6.358  15.173  0.00  0.00    +0.000 A 
ATOM      6  C   UNL     1      47.664   6.211  14.136  0.00  0.00    +0.000 A 
ENDROOT
BRANCH   5   7
ATOM      7  N   UNL     1      48.641   5.509  16.264  0.00  0.00    +0.000 N 
ATOM      8  C   UNL     1      49.790   5.488  17.165  0.00  0.00    +0.000 C 
ATOM      9  C   UNL     1      50.132   4.032  17.483  0.00  0.00    +0.000 C 
ATOM     10  C   UNL     1      48.928   3.284  18.056  0.00  0.00    +0.000 C 
ATOM     11  C   UNL     1      47.715   3.387  17.116  0.00  0.00    +0.000 C 
ATOM     12  C   UNL     1      47.418   4.869  16.774  0.00  0.00    +0.000 C 
BRANCH  11  13
ATOM     13  N   UNL     1      46.561   2.708  17.721  0.00  0.00    +0.000 NA
ATOM     14  H   UNL     1      45.753   2.778  17.105  0.00  0.00    +0.000 HD
ATOM     15  H   UNL     1      46.299   3.195  18.579  0.00  0.00    +0.000 HD
ENDBRANCH  11  13
ENDBRANCH   5   7
BRANCH   1  16
ATOM     16  C   UNL     1      46.591   6.970  11.963  0.00  0.00    +0.000 C 
BRANCH  16  17
ATOM     17  O   UNL     1      45.457   6.287  12.496  0.00  0.00    +0.000 OA
BRANCH  17  23
ATOM     18  C   UNL     1      45.123   4.110   9.630  0.00  0.00    +0.000 A 
ATOM     19  C   UNL     1      44.291   3.124  10.151  0.00  0.00    +0.000 A 
ATOM     20  C   UNL     1      43.883   3.253  11.465  0.00  0.00    +0.000 A 
ATOM     21  F   UNL     1      43.083   2.308  11.975  0.00  0.00    +0.000 F 
ATOM     22  N   UNL     1      44.240   4.271  12.276  0.00  0.00    +0.000 NA
ATOM     23  C   UNL     1      45.044   5.209  11.742  0.00  0.00    +0.000 A 
ATOM     24  C   UNL     1      45.510   5.175  10.438  0.00  0.00    +0.000 A 
BRANCH  18  26
ATOM     25  N   UNL     1      45.952   3.975   7.179  0.00  0.00    +0.000 NA
ATOM     26  C   UNL     1      45.579   4.031   8.275  0.00  0.00    +0.000 C 
ENDBRANCH  18  26
ENDBRANCH  17  23
ENDBRANCH  16  17
ENDBRANCH   1  16
TORSDOF 6
ENDMDL
MODEL 5
REMARK VINA RESULT:    -6.803      3.081      8.468
REMARK INTER + INTRA:          -9.587
REMARK INTER:                  -8.886
REMARK INTRA:                  -0.701
REMARK UNBOUND:                -0.596
REMARK  Name = 
REMARK  6 active torsions:
REMARK  status: ('A' for Active; 'I' for Inactive)
REMARK    1  A    between atoms: C_2  and  C_3
REMARK    2  A    between atoms: C_8  and  O_9
REMARK    3  A    between atoms: O_9  and  C_10
REMARK    4  A    between atoms: C_10  and  C_11
REMARK    5  A    between atoms: C_15  and  N_16
REMARK    6  A    between atoms: C_20  and  N_21
REMARK                            x       y       z     vdW  Elec       q    Type
REMARK                         _______ _______ _______ _____ _____    ______ ____
ROOT
ATOM      1  C   UNL     1      46.588   6.553  12.459  0.00  0.00    +0.000 A 
ATOM      2  C   UNL     1      47.652   7.276  11.939  0.00  0.00    +0.000 A 
ATOM      3  N   UNL     1      48.837   7.424  12.564  0.00  0.00    +0.000 NA
ATOM      4  C   UNL     1      48.963   6.814  13.771  0.00  0.00    +0.000 A 
ATOM      5  C   UNL     1      47.978   6.052  14.411  0.00  0.00    +0.000 A 
ATOM      6  C   UNL     1      46.777   5.928  13.701  0.00  0.00    +0.000 A 
ENDROOT
BRANCH   5   7
ATOM      7  N   UNL     1      48.162   5.517  15.673  0.00  0.00    +0.000 N 
ATOM      8  C   UNL     1      49.198   6.020  16.572  0.00  0.00    +0.000 C 
ATOM      9  C   UNL     1      49.890   4.827  17.232  0.00  0.00    +0.000 C 
ATOM     10  C   UNL     1      48.888   3.921  17.947  0.00  0.00    +0.000 C 
ATOM     11  C   UNL     1      47.772   3.468  16.991  0.00  0.00    +0.000 C 
ATOM     12  C   UNL     1      47.118   4.693  16.301  0.00  0.00    +0.000 C 
BRANCH  11  13
ATOM     13  N   UNL     1      46.796   2.648  17.722  0.00  0.00    +0.000 NA
ATOM     14  H   UNL     1      45.879   2.725  17.285  0.00  0.00    +0.000 HD
ATOM     15  H   UNL     1      46.687   3.021  18.666  0.00  0.00    +0.000 HD
ENDBRANCH  11  13
ENDBRANCH   5   7
BRANCH   1  16
ATOM     16  C   UNL     1      45.302   6.409  11.692  0.00  0.00    +0.000 C 
BRANCH  16  17
ATOM     17  O   UNL     1      45.644   6.250  10.315  0.00  0.00    +0.000 OA
BRANCH  17  23
ATOM     18  C   UNL     1      45.685   3.471   8.005  0.00  0.00    +0.000 A 
ATOM     19  C   UNL     1      44.921   2.542   8.705  0.00  0.00    +0.000 A 
ATOM     20  C   UNL     1      44.428   2.914   9.942  0.00  0.00    +0.000 A 
ATOM     21  F   UNL     1      43.692   2.027  10.623  0.00  0.00    +0.000 F 
ATOM     22  N   UNL     1      44.639   4.118  10.514  0.00  0.00    +0.000 NA
ATOM     23  C   UNL     1      45.379   4.995   9.811  0.00  0.00    +0.000 A 
ATOM     24  C   UNL     1      45.921   4.722   8.565  0.00  0.00    +0.000 A 
BRANCH  18  26
ATOM     25  N   UNL     1      46.661   2.885   5.678  0.00  0.00    +0.000 NA
ATOM     26  C   UNL     1      46.225   3.143   6.720  0.00  0.00    +0.000 C 
ENDBRANCH  18  26
ENDBRANCH  17  23
ENDBRANCH  16  17
ENDBRANCH   1  16
TORSDOF 6
ENDMDL
MODEL 6
REMARK VINA RESULT:    -6.634      2.128      2.446
REMARK INTER + INTRA:          -9.363
REMARK INTER:                  -8.661
REMARK INTRA:                  -0.703
REMARK UNBOUND:                -0.596
REMARK  Name = 
REMARK  6 active torsions:
REMARK  status: ('A' for Active; 'I' for Inactive)
REMARK    1  A    between atoms: C_2  and  C_3
REMARK    2  A    between atoms: C_8  and  O_9
REMARK    3  A    between atoms: O_9  and  C_10
REMARK    4  A    between atoms: C_10  and  C_11
REMARK    5  A    between atoms: C_15  and  N_16
REMARK    6  A    between atoms: C_20  and  N_21
REMARK                            x       y       z     vdW  Elec       q    Type
REMARK                         _______ _______ _______ _____ _____    ______ ____
ROOT
ATOM      1  C   UNL     1      46.855   6.809  13.074  0.00  0.00    +0.000 A 
ATOM      2  C   UNL     1      46.199   8.031  13.032  0.00  0.00    +0.000 A 
ATOM      3  N   UNL     1      45.187   8.313  12.188  0.00  0.00    +0.000 NA
ATOM      4  C   UNL     1      44.811   7.318  11.343  0.00  0.00    +0.000 A 
ATOM      5  C   UNL     1      45.377   6.039  11.280  0.00  0.00    +0.000 A 
ATOM      6  C   UNL     1      46.414   5.810  12.193  0.00  0.00    +0.000 A 
ENDROOT
BRANCH   5   7
ATOM      7  N   UNL     1      44.979   5.101  10.344  0.00  0.00    +0.000 N 
ATOM      8  C   UNL     1      43.828   4.232  10.575  0.00  0.00    +0.000 C 
ATOM      9  C   UNL     1      44.192   2.815  10.132  0.00  0.00    +0.000 C 
ATOM     10  C   UNL     1      44.664   2.784   8.678  0.00  0.00    +0.000 C 
ATOM     11  C   UNL     1      45.829   3.762   8.454  0.00  0.00    +0.000 C 
ATOM     12  C   UNL     1      45.451   5.180   8.953  0.00  0.00    +0.000 C 
BRANCH  11  13
ATOM     13  N   UNL     1      46.221   3.750   7.038  0.00  0.00    +0.000 NA
ATOM     14  H   UNL     1      46.082   2.820   6.645  0.00  0.00    +0.000 HD
ATOM     15  H   UNL     1      47.222   3.935   6.967  0.00  0.00    +0.000 HD
ENDBRANCH  11  13
ENDBRANCH   5   7
BRANCH   1  16
ATOM     16  C   UNL     1      47.961   6.558  14.062  0.00  0.00    +0.000 C 
BRANCH  16  17
ATOM     17  O   UNL     1      47.984   5.155  14.326  0.00  0.00    +0.000 OA
BRANCH  17  23
ATOM     18  C   UNL     1      48.408   5.464  17.903  0.00  0.00    +0.000 A 
ATOM     19  C   UNL     1      47.785   4.298  18.337  0.00  0.00    +0.000 A 
ATOM     20  C   UNL     1      47.247   3.459  17.380  0.00  0.00    +0.000 A 
ATOM     21  F   UNL     1      46.646   2.335  17.789  0.00  0.00    +0.000 F 
ATOM     22  N   UNL     1      47.285   3.697  16.052  0.00  0.00    +0.000 NA
ATOM     23  C   UNL     1      47.896   4.832  15.663  0.00  0.00    +0.000 A 
ATOM     24  C   UNL     1      48.466   5.740  16.540  0.00  0.00    +0.000 A 
BRANCH  18  26
ATOM     25  N   UNL     1      49.441   7.114  19.612  0.00  0.00    +0.000 NA
ATOM     26  C   UNL     1      48.983   6.374  18.847  0.00  0.00    +0.000 C 
ENDBRANCH  18  26
ENDBRANCH  17  23
ENDBRANCH  16  17
ENDBRANCH   1  16
TORSDOF 6
ENDMDL
MODEL 7
REMARK VINA RESULT:    -6.524      2.741      4.041
REMARK INTER + INTRA:          -9.218
REMARK INTER:                  -8.458
REMARK INTRA:                  -0.761
REMARK UNBOUND:                -0.596
REMARK  Name = 
REMARK  6 active torsions:
REMARK  status: ('A' for Active; 'I' for Inactive)
REMARK    1  A    between atoms: C_2  and  C_3
REMARK    2  A    between atoms: C_8  and  O_9
REMARK    3  A    between atoms: O_9  and  C_10
REMARK    4  A    between atoms: C_10  and  C_11
REMARK    5  A    between atoms: C_15  and  N_16
REMARK    6  A    between atoms: C_20  and  N_21
REMARK                            x       y       z     vdW  Elec       q    Type
REMARK                         _______ _______ _______ _____ _____    ______ ____
ROOT
ATOM      1  C   UNL     1      47.880   7.146  13.987  0.00  0.00    +0.000 A 
ATOM      2  C   UNL     1      47.291   8.395  13.853  0.00  0.00    +0.000 A 
ATOM      3  N   UNL     1      46.188   8.631  13.116  0.00  0.00    +0.000 NA
ATOM      4  C   UNL     1      45.644   7.559  12.483  0.00  0.00    +0.000 A 
ATOM      5  C   UNL     1      46.127   6.246  12.535  0.00  0.00    +0.000 A 
ATOM      6  C   UNL     1      47.267   6.070  13.327  0.00  0.00    +0.000 A 
ENDROOT
BRANCH   5   7
ATOM      7  N   UNL     1      45.553   5.220  11.806  0.00  0.00    +0.000 N 
ATOM      8  C   UNL     1      45.532   5.239  10.346  0.00  0.00    +0.000 C 
ATOM      9  C   UNL     1      44.148   4.790   9.874  0.00  0.00    +0.000 C 
ATOM     10  C   UNL     1      43.776   3.421  10.445  0.00  0.00    +0.000 C 
ATOM     11  C   UNL     1      43.878   3.416  11.979  0.00  0.00    +0.000 C 
ATOM     12  C   UNL     1      45.273   3.918  12.432  0.00  0.00    +0.000 C 
BRANCH  11  13
ATOM     13  N   UNL     1      43.571   2.073  12.491  0.00  0.00    +0.000 NA
ATOM     14  H   UNL     1      42.624   2.051  12.866  0.00  0.00    +0.000 HD
ATOM     15  H   UNL     1      44.186   1.868  13.279  0.00  0.00    +0.000 HD
ENDBRANCH  11  13
ENDBRANCH   5   7
BRANCH   1  16
ATOM     16  C   UNL     1      49.098   6.953  14.849  0.00  0.00    +0.000 C 
BRANCH  16  17
ATOM     17  O   UNL     1      48.649   6.826  16.198  0.00  0.00    +0.000 OA
BRANCH  17  23
ATOM     18  C   UNL     1      50.263   3.914  17.605  0.00  0.00    +0.000 A 
ATOM     19  C   UNL     1      49.172   3.064  17.760  0.00  0.00    +0.000 A 
ATOM     20  C   UNL     1      47.930   3.533  17.374  0.00  0.00    +0.000 A 
ATOM     21  F   UNL     1      46.874   2.723  17.520  0.00  0.00    +0.000 F 
ATOM     22  N   UNL     1      47.707   4.760  16.858  0.00  0.00    +0.000 NA
ATOM     23  C   UNL     1      48.782   5.557  16.719  0.00  0.00    +0.000 A 
ATOM     24  C   UNL     1      50.068   5.186  17.075  0.00  0.00    +0.000 A 
BRANCH  18  26
ATOM     25  N   UNL     1      52.637   3.147  18.301  0.00  0.00    +0.000 NA
ATOM     26  C   UNL     1      51.574   3.486  17.988  0.00  0.00    +0.000 C 
ENDBRANCH  18  26
ENDBRANCH  17  23
ENDBRANCH  16  17
ENDBRANCH   1  16
TORSDOF 6
ENDMDL
MODEL 8
REMARK VINA RESULT:    -6.496      4.092      5.150
REMARK INTER + INTRA:          -9.181
REMARK INTER:                  -8.434
REMARK INTRA:                  -0.747
REMARK UNBOUND:                -0.596
REMARK  Name = 
REMARK  6 active torsions:
REMARK  status: ('A' for Active; 'I' for Inactive)
REMARK    1  A    between atoms: C_2  and  C_3
REMARK    2  A    between atoms: C_8  and  O_9
REMARK    3  A    between atoms: O_9  and  C_10
REMARK    4  A    between atoms: C_10  and  C_11
REMARK    5  A    between atoms: C_15  and  N_16
REMARK    6  A    between atoms: C_20  and  N_21
REMARK                            x       y       z     vdW  Elec       q    Type
REMARK                         _______ _______ _______ _____ _____    ______ ____
ROOT
ATOM      1  C   UNL     1      45.114   5.306  12.583  0.00  0.00    +0.000 A 
ATOM      2  C   UNL     1      43.773   5.250  12.939  0.00  0.00    +0.000 A 
ATOM      3  N   UNL     1      42.833   4.599  12.226  0.00  0.00    +0.000 NA
ATOM      4  C   UNL     1      43.257   3.970  11.100  0.00  0.00    +0.000 A 
ATOM      5  C   UNL     1      44.574   3.938  10.626  0.00  0.00    +0.000 A 
ATOM      6  C   UNL     1      45.502   4.623  11.420  0.00  0.00    +0.000 A 
ENDROOT
BRANCH   5   7
ATOM      7  N   UNL     1      44.914   3.329   9.432  0.00  0.00    +0.000 N 
ATOM      8  C   UNL     1      44.614   1.921   9.180  0.00  0.00    +0.000 C 
ATOM      9  C   UNL     1      45.831   1.276   8.517  0.00  0.00    +0.000 C 
ATOM     10  C   UNL     1      46.241   2.021   7.247  0.00  0.00    +0.000 C 
ATOM     11  C   UNL     1      46.480   3.513   7.533  0.00  0.00    +0.000 C 
ATOM     12  C   UNL     1      45.250   4.132   8.245  0.00  0.00    +0.000 C 
BRANCH  11  13
ATOM     13  N   UNL     1      46.816   4.210   6.284  0.00  0.00    +0.000 NA
ATOM     14  H   UNL     1      45.969   4.392   5.747  0.00  0.00    +0.000 HD
ATOM     15  H   UNL     1      47.386   3.595   5.702  0.00  0.00    +0.000 HD
ENDBRANCH  11  13
ENDBRANCH   5   7
BRANCH   1  16
ATOM     16  C   UNL     1      46.113   6.030  13.444  0.00  0.00    +0.000 C 
BRANCH  16  17
ATOM     17  O   UNL     1      47.364   6.004  12.757  0.00  0.00    +0.000 OA
BRANCH  17  23
ATOM     18  C   UNL     1      49.691   8.532  11.637  0.00  0.00    +0.000 A 
ATOM     19  C   UNL     1      48.871   9.657  11.639  0.00  0.00    +0.000 A 
ATOM     20  C   UNL     1      47.554   9.493  12.026  0.00  0.00    +0.000 A 
ATOM     21  F   UNL     1      46.757  10.569  12.031  0.00  0.00    +0.000 F 
ATOM     22  N   UNL     1      47.011   8.315  12.399  0.00  0.00    +0.000 NA
ATOM     23  C   UNL     1      47.830   7.247  12.388  0.00  0.00    +0.000 A 
ATOM     24  C   UNL     1      49.164   7.302  12.018  0.00  0.00    +0.000 A 
BRANCH  18  26
ATOM     25  N   UNL     1      52.177   8.727  10.936  0.00  0.00    +0.000 NA
ATOM     26  C   UNL     1      51.064   8.638  11.246  0.00  0.00    +0.000 C 
ENDBRANCH  18  26
ENDBRANCH  17  23
ENDBRANCH  16  17
ENDBRANCH   1  16
TORSDOF 6
ENDMDL
MODEL 9
REMARK VINA RESULT:    -6.305      2.846      3.830
REMARK INTER + INTRA:          -8.928
REMARK INTER:                  -8.148
REMARK INTRA:                  -0.780
REMARK UNBOUND:                -0.596
REMARK  Name = 
REMARK  6 active torsions:
REMARK  status: ('A' for Active; 'I' for Inactive)
REMARK    1  A    between atoms: C_2  and  C_3
REMARK    2  A    between atoms: C_8  and  O_9
REMARK    3  A    between atoms: O_9  and  C_10
REMARK    4  A    between atoms: C_10  and  C_11
REMARK    5  A    between atoms: C_15  and  N_16
REMARK    6  A    between atoms: C_20  and  N_21
REMARK                            x       y       z     vdW  Elec       q    Type
REMARK                         _______ _______ _______ _____ _____    ______ ____
ROOT
ATOM      1  C   UNL     1      47.672   7.463  12.955  0.00  0.00    +0.000 A 
ATOM      2  C   UNL     1      47.153   8.736  12.759  0.00  0.00    +0.000 A 
ATOM      3  N   UNL     1      45.901   8.978  12.322  0.00  0.00    +0.000 NA
ATOM      4  C   UNL     1      45.128   7.890  12.071  0.00  0.00    +0.000 A 
ATOM      5  C   UNL     1      45.517   6.555  12.229  0.00  0.00    +0.000 A 
ATOM      6  C   UNL     1      46.824   6.375  12.698  0.00  0.00    +0.000 A 
ENDROOT
BRANCH   5   7
ATOM      7  N   UNL     1      44.690   5.500  11.888  0.00  0.00    +0.000 N 
ATOM      8  C   UNL     1      43.564   5.108  12.732  0.00  0.00    +0.000 C 
ATOM      9  C   UNL     1      43.537   3.582  12.828  0.00  0.00    +0.000 C 
ATOM     10  C   UNL     1      43.484   2.932  11.446  0.00  0.00    +0.000 C 
ATOM     11  C   UNL     1      44.641   3.421  10.559  0.00  0.00    +0.000 C 
ATOM     12  C   UNL     1      44.674   4.970  10.515  0.00  0.00    +0.000 C 
BRANCH  11  13
ATOM     13  N   UNL     1      44.528   2.823   9.222  0.00  0.00    +0.000 NA
ATOM     14  H   UNL     1      45.280   2.151   9.076  0.00  0.00    +0.000 HD
ATOM     15  H   UNL     1      44.665   3.550   8.519  0.00  0.00    +0.000 HD
ENDBRANCH  11  13
ENDBRANCH   5   7
BRANCH   1  16
ATOM     16  C   UNL     1      49.072   7.269  13.471  0.00  0.00    +0.000 C 
BRANCH  16  17
ATOM     17  O   UNL     1      49.073   7.645  14.848  0.00  0.00    +0.000 OA
BRANCH  17  23
ATOM     18  C   UNL     1      48.513   4.698  16.864  0.00  0.00    +0.000 A 
ATOM     19  C   UNL     1      49.777   4.521  17.419  0.00  0.00    +0.000 A 
ATOM     20  C   UNL     1      50.765   5.425  17.073  0.00  0.00    +0.000 A 
ATOM     21  F   UNL     1      51.984   5.262  17.602  0.00  0.00    +0.000 F 
ATOM     22  N   UNL     1      50.584   6.464  16.232  0.00  0.00    +0.000 NA
ATOM     23  C   UNL     1      49.351   6.609  15.714  0.00  0.00    +0.000 A 
ATOM     24  C   UNL     1      48.292   5.761  15.993  0.00  0.00    +0.000 A 
BRANCH  18  26
ATOM     25  N   UNL     1      46.583   3.067  17.436  0.00  0.00    +0.000 NA
ATOM     26  C   UNL     1      47.450   3.794  17.183  0.00  0.00    +0.000 C 
ENDBRANCH  18  26
ENDBRANCH  17  23
ENDBRANCH  16  17
ENDBRANCH   1  16
TORSDOF 6
ENDMDL
