MODEL 1
REMARK VINA RESULT:    -8.381      0.000      0.000
REMARK INTER + INTRA:         -13.161
REMARK INTER:                 -12.056
REMARK INTRA:                  -1.105
REMARK UNBOUND:                -1.105
REMARK  Name = 
REMARK  8 active torsions:
REMARK  status: ('A' for Active; 'I' for Inactive)
REMARK    1  A    between atoms: N_1  and  C_2
REMARK    2  A    between atoms: C_2  and  C_3
REMARK    3  A    between atoms: C_3  and  N_4
REMARK    4  A    between atoms: C_3  and  C_27
REMARK    5  A    between atoms: C_5  and  C_7
REMARK    6  A    between atoms: C_10  and  C_11
REMARK    7  A    between atoms: C_11  and  N_12
REMARK    8  A    between atoms: C_13  and  C_15
REMARK                            x       y       z     vdW  Elec       q    Type
REMARK                         _______ _______ _______ _____ _____    ______ ____
ROOT
ATOM      1  C   UNL     1      46.762   4.713  13.807  0.00  0.00    +0.000 A 
ATOM      2  C   UNL     1      47.338   5.924  13.424  0.00  0.00    +0.000 A 
ATOM      3  C   UNL     1      48.211   6.570  14.299  0.00  0.00    +0.000 A 
ATOM      4  C   UNL     1      48.475   5.989  15.537  0.00  0.00    +0.000 A 
ATOM      5  N   UNL     1      47.977   4.778  15.898  0.00  0.00    +0.000 NA
ATOM      6  C   UNL     1      47.148   4.166  15.021  0.00  0.00    +0.000 A 
ENDROOT
BRANCH   1   8
ATOM      7  N   UNL     1      45.118   4.868  12.036  0.00  0.00    +0.000 N 
ATOM      8  C   UNL     1      45.768   4.048  12.932  0.00  0.00    +0.000 C 
ATOM      9  O   UNL     1      45.599   2.839  13.014  0.00  0.00    +0.000 OA
ATOM     10  H   UNL     1      45.440   5.813  11.884  0.00  0.00    +0.000 HD
BRANCH   7  11
ATOM     11  C   UNL     1      44.114   4.372  11.096  0.00  0.00    +0.000 C 
BRANCH  11  12
ATOM     12  C   UNL     1      44.824   3.760   9.893  0.00  0.00    +0.000 A 
ATOM     13  C   UNL     1      45.443   4.604   8.954  0.00  0.00    +0.000 A 
ATOM     14  C   UNL     1      46.121   4.076   7.852  0.00  0.00    +0.000 A 
ATOM     15  C   UNL     1      46.183   2.697   7.664  0.00  0.00    +0.000 A 
ATOM     16  C   UNL     1      45.546   1.848   8.562  0.00  0.00    +0.000 A 
ATOM     17  C   UNL     1      44.861   2.375   9.659  0.00  0.00    +0.000 A 
ENDBRANCH  11  12
BRANCH  11  18
ATOM     18  C   UNL     1      43.123   5.514  10.714  0.00  0.00    +0.000 C 
BRANCH  18  19
ATOM     19  N   UNL     1      42.258   5.954  11.814  0.00  0.00    +0.000 NA
ATOM     20  H   UNL     1      41.364   6.268  11.446  0.00  0.00    +0.000 HD
ATOM     21  H   UNL     1      42.691   6.752  12.280  0.00  0.00    +0.000 HD
ENDBRANCH  18  19
ENDBRANCH  11  18
ENDBRANCH   7  11
ENDBRANCH   1   8
BRANCH   4  22
ATOM     22  C   UNL     1      49.347   6.697  16.543  0.00  0.00    +0.000 C 
BRANCH  22  23
ATOM     23  N   UNL     1      50.443   5.874  16.983  0.00  0.00    +0.000 N 
ATOM     24  C   UNL     1      50.551   5.404  18.265  0.00  0.00    +0.000 C 
ATOM     25  O   UNL     1      49.717   5.658  19.127  0.00  0.00    +0.000 OA
ATOM     26  H   UNL     1      51.253   5.862  16.372  0.00  0.00    +0.000 HD
BRANCH  24  27
ATOM     27  C   UNL     1      51.681   4.500  18.525  0.00  0.00    +0.000 A 
ATOM     28  C   UNL     1      52.763   4.945  19.270  0.00  0.00    +0.000 A 
ATOM     29  S   UNL     1      53.939   3.741  19.550  0.00  0.00    +0.000 S 
ATOM     30  C   UNL     1      53.067   2.599  18.639  0.00  0.00    +0.000 A 
ATOM     31  N   UNL     1      53.538   1.335  18.467  0.00  0.00    +0.000 NA
ATOM     32  C   UNL     1      52.793   0.584  17.724  0.00  0.00    +0.000 A 
ATOM     33  N   UNL     1      51.616   0.980  17.142  0.00  0.00    +0.000 N 
ATOM     34  C   UNL     1      51.085   2.234  17.321  0.00  0.00    +0.000 A 
ATOM     35  O   UNL     1      49.999   2.536  16.838  0.00  0.00    +0.000 OA
ATOM     36  C   UNL     1      51.890   3.124  18.135  0.00  0.00    +0.000 A 
ATOM     37  H   UNL     1      51.072   0.342  16.582  0.00  0.00    +0.000 HD
ENDBRANCH  24  27
ENDBRANCH  22  23
ENDBRANCH   4  22
TORSDOF 8
ENDMDL
MODEL 2
REMARK VINA RESULT:    -7.630      1.456      1.765
REMARK INTER + INTRA:         -12.080
REMARK INTER:                 -10.824
REMARK INTRA:                  -1.256
REMARK UNBOUND:                -1.105
REMARK  Name = 
REMARK  8 active torsions:
REMARK  status: ('A' for Active; 'I' for Inactive)
REMARK    1  A    between atoms: N_1  and  C_2
REMARK    2  A    between atoms: C_2  and  C_3
REMARK    3  A    between atoms: C_3  and  N_4
REMARK    4  A    between atoms: C_3  and  C_27
REMARK    5  A    between atoms: C_5  and  C_7
REMARK    6  A    between atoms: C_10  and  C_11
REMARK    7  A    between atoms: C_11  and  N_12
REMARK    8  A    between atoms: C_13  and  C_15
REMARK                            x       y       z     vdW  Elec       q    Type
REMARK                         _______ _______ _______ _____ _____    ______ ____
ROOT
ATOM      1  C   UNL     1      46.905   4.955  13.825  0.00  0.00    +0.000 A 
ATOM      2  C   UNL     1      47.432   6.155  13.350  0.00  0.00    +0.000 A 
ATOM      3  C   UNL     1      48.266   6.908  14.176  0.00  0.00    +0.000 A 
ATOM      4  C   UNL     1      48.542   6.440  15.460  0.00  0.00    +0.000 A 
ATOM      5  N   UNL     1      48.092   5.241  15.913  0.00  0.00    +0.000 NA
ATOM      6  C   UNL     1      47.301   4.525  15.082  0.00  0.00    +0.000 A 
ENDROOT
BRANCH   1   8
ATOM      7  N   UNL     1      45.162   4.917  12.146  0.00  0.00    +0.000 N 
ATOM      8  C   UNL     1      45.951   4.178  13.000  0.00  0.00    +0.000 C 
ATOM      9  O   UNL     1      45.931   2.957  13.080  0.00  0.00    +0.000 OA
ATOM     10  H   UNL     1      45.362   5.893  11.984  0.00  0.00    +0.000 HD
BRANCH   7  11
ATOM     11  C   UNL     1      44.175   4.307  11.256  0.00  0.00    +0.000 C 
BRANCH  11  12
ATOM     12  C   UNL     1      44.875   3.849   9.981  0.00  0.00    +0.000 A 
ATOM     13  C   UNL     1      44.941   2.476   9.685  0.00  0.00    +0.000 A 
ATOM     14  C   UNL     1      45.556   2.024   8.515  0.00  0.00    +0.000 A 
ATOM     15  C   UNL     1      46.126   2.933   7.627  0.00  0.00    +0.000 A 
ATOM     16  C   UNL     1      46.104   4.292   7.921  0.00  0.00    +0.000 A 
ATOM     17  C   UNL     1      45.496   4.745   9.095  0.00  0.00    +0.000 A 
ENDBRANCH  11  12
BRANCH  11  18
ATOM     18  C   UNL     1      43.000   5.299  10.995  0.00  0.00    +0.000 C 
BRANCH  18  19
ATOM     19  N   UNL     1      43.324   6.702  11.272  0.00  0.00    +0.000 NA
ATOM     20  H   UNL     1      43.621   6.803  12.240  0.00  0.00    +0.000 HD
ATOM     21  H   UNL     1      42.483   7.269  11.153  0.00  0.00    +0.000 HD
ENDBRANCH  18  19
ENDBRANCH  11  18
ENDBRANCH   7  11
ENDBRANCH   1   8
BRANCH   4  22
ATOM     22  C   UNL     1      49.371   7.265  16.412  0.00  0.00    +0.000 C 
BRANCH  22  23
ATOM     23  N   UNL     1      50.510   6.538  16.906  0.00  0.00    +0.000 N 
ATOM     24  C   UNL     1      51.745   6.602  16.316  0.00  0.00    +0.000 C 
ATOM     25  O   UNL     1      51.959   7.285  15.320  0.00  0.00    +0.000 OA
ATOM     26  H   UNL     1      50.302   5.790  17.559  0.00  0.00    +0.000 HD
BRANCH  24  27
ATOM     27  C   UNL     1      52.823   5.875  17.002  0.00  0.00    +0.000 A 
ATOM     28  C   UNL     1      54.053   6.486  17.194  0.00  0.00    +0.000 A 
ATOM     29  S   UNL     1      55.156   5.535  18.083  0.00  0.00    +0.000 S 
ATOM     30  C   UNL     1      54.044   4.251  18.195  0.00  0.00    +0.000 A 
ATOM     31  N   UNL     1      54.370   3.098  18.836  0.00  0.00    +0.000 NA
ATOM     32  C   UNL     1      53.446   2.195  18.814  0.00  0.00    +0.000 A 
ATOM     33  N   UNL     1      52.222   2.343  18.213  0.00  0.00    +0.000 N 
ATOM     34  C   UNL     1      51.837   3.504  17.588  0.00  0.00    +0.000 A 
ATOM     35  O   UNL     1      50.712   3.625  17.115  0.00  0.00    +0.000 OA
ATOM     36  C   UNL     1      52.845   4.546  17.570  0.00  0.00    +0.000 A 
ATOM     37  H   UNL     1      51.535   1.604  18.240  0.00  0.00    +0.000 HD
ENDBRANCH  24  27
ENDBRANCH  22  23
ENDBRANCH   4  22
TORSDOF 8
ENDMDL
MODEL 3
REMARK VINA RESULT:    -7.433      3.469      4.145
REMARK INTER + INTRA:         -11.797
REMARK INTER:                 -10.797
REMARK INTRA:                  -1.000
REMARK UNBOUND:                -1.105
REMARK  Name = 
REMARK  8 active torsions:
REMARK  status: ('A' for Active; 'I' for Inactive)
REMARK    1  A    between atoms: N_1  and  C_2
REMARK    2  A    between atoms: C_2  and  C_3
REMARK    3  A    between atoms: C_3  and  N_4
REMARK    4  A    between atoms: C_3  and  C_27
REMARK    5  A    between atoms: C_5  and  C_7
REMARK    6  A    between atoms: C_10  and  C_11
REMARK    7  A    between atoms: C_11  and  N_12
REMARK    8  A    between atoms: C_13  and  C_15
REMARK                            x       y       z     vdW  Elec       q    Type
REMARK                         _______ _______ _______ _____ _____    ______ ____
ROOT
ATOM      1  C   UNL     1      46.990   5.310  13.701  0.00  0.00    +0.000 A 
ATOM      2  C   UNL     1      47.401   6.515  13.132  0.00  0.00    +0.000 A 
ATOM      3  C   UNL     1      48.310   7.318  13.819  0.00  0.00    +0.000 A 
ATOM      4  C   UNL     1      48.777   6.895  15.062  0.00  0.00    +0.000 A 
ATOM      5  N   UNL     1      48.440   5.694  15.599  0.00  0.00    +0.000 NA
ATOM      6  C   UNL     1      47.570   4.928  14.901  0.00  0.00    +0.000 A 
ENDROOT
BRANCH   1   8
ATOM      7  N   UNL     1      45.146   5.141  12.141  0.00  0.00    +0.000 N 
ATOM      8  C   UNL     1      45.963   4.478  13.032  0.00  0.00    +0.000 C 
ATOM      9  O   UNL     1      45.908   3.278  13.261  0.00  0.00    +0.000 OA
ATOM     10  H   UNL     1      45.367   6.082  11.851  0.00  0.00    +0.000 HD
BRANCH   7  11
ATOM     11  C   UNL     1      44.087   4.468  11.390  0.00  0.00    +0.000 C 
BRANCH  11  12
ATOM     12  C   UNL     1      44.695   3.821  10.151  0.00  0.00    +0.000 A 
ATOM     13  C   UNL     1      45.328   4.630   9.190  0.00  0.00    +0.000 A 
ATOM     14  C   UNL     1      45.915   4.067   8.054  0.00  0.00    +0.000 A 
ATOM     15  C   UNL     1      45.870   2.690   7.852  0.00  0.00    +0.000 A 
ATOM     16  C   UNL     1      45.216   1.878   8.772  0.00  0.00    +0.000 A 
ATOM     17  C   UNL     1      44.622   2.440   9.904  0.00  0.00    +0.000 A 
ENDBRANCH  11  12
BRANCH  11  18
ATOM     18  C   UNL     1      42.938   5.472  11.064  0.00  0.00    +0.000 C 
BRANCH  18  19
ATOM     19  N   UNL     1      43.293   6.880  11.267  0.00  0.00    +0.000 NA
ATOM     20  H   UNL     1      43.984   7.165  10.577  0.00  0.00    +0.000 HD
ATOM     21  H   UNL     1      43.724   6.987  12.186  0.00  0.00    +0.000 HD
ENDBRANCH  18  19
ENDBRANCH  11  18
ENDBRANCH   7  11
ENDBRANCH   1   8
BRANCH   4  22
ATOM     22  C   UNL     1      49.696   7.774  15.873  0.00  0.00    +0.000 C 
BRANCH  22  23
ATOM     23  N   UNL     1      49.313   7.822  17.260  0.00  0.00    +0.000 N 
ATOM     24  C   UNL     1      48.315   8.636  17.727  0.00  0.00    +0.000 C 
ATOM     25  O   UNL     1      47.682   9.383  16.990  0.00  0.00    +0.000 OA
ATOM     26  H   UNL     1      49.975   7.412  17.910  0.00  0.00    +0.000 HD
BRANCH  24  27
ATOM     27  C   UNL     1      47.986   8.495  19.153  0.00  0.00    +0.000 A 
ATOM     28  C   UNL     1      47.723   9.624  19.915  0.00  0.00    +0.000 A 
ATOM     29  S   UNL     1      47.272   9.272  21.522  0.00  0.00    +0.000 S 
ATOM     30  C   UNL     1      47.466   7.600  21.269  0.00  0.00    +0.000 A 
ATOM     31  N   UNL     1      47.243   6.711  22.273  0.00  0.00    +0.000 NA
ATOM     32  C   UNL     1      47.462   5.478  21.953  0.00  0.00    +0.000 A 
ATOM     33  N   UNL     1      47.878   5.053  20.717  0.00  0.00    +0.000 N 
ATOM     34  C   UNL     1      48.077   5.913  19.664  0.00  0.00    +0.000 A 
ATOM     35  O   UNL     1      48.388   5.493  18.555  0.00  0.00    +0.000 OA
ATOM     36  C   UNL     1      47.860   7.312  19.975  0.00  0.00    +0.000 A 
ATOM     37  H   UNL     1      48.020   4.073  20.524  0.00  0.00    +0.000 HD
ENDBRANCH  24  27
ENDBRANCH  22  23
ENDBRANCH   4  22
TORSDOF 8
ENDMDL
MODEL 4
REMARK VINA RESULT:    -7.287      3.285      5.033
REMARK INTER + INTRA:         -11.588
REMARK INTER:                 -10.434
REMARK INTRA:                  -1.153
REMARK UNBOUND:                -1.105
REMARK  Name = 
REMARK  8 active torsions:
REMARK  status: ('A' for Active; 'I' for Inactive)
REMARK    1  A    between atoms: N_1  and  C_2
REMARK    2  A    between atoms: C_2  and  C_3
REMARK    3  A    between atoms: C_3  and  N_4
REMARK    4  A    between atoms: C_3  and  C_27
REMARK    5  A    between atoms: C_5  and  C_7
REMARK    6  A    between atoms: C_10  and  C_11
REMARK    7  A    between atoms: C_11  and  N_12
REMARK    8  A    between atoms: C_13  and  C_15
REMARK                            x       y       z     vdW  Elec       q    Type
REMARK                         _______ _______ _______ _____ _____    ______ ____
ROOT
ATOM      1  C   UNL     1      46.845   4.863  13.603  0.00  0.00    +0.000 A 
ATOM      2  C   UNL     1      47.317   6.089  13.136  0.00  0.00    +0.000 A 
ATOM      3  C   UNL     1      48.125   6.870  13.962  0.00  0.00    +0.000 A 
ATOM      4  C   UNL     1      48.431   6.402  15.238  0.00  0.00    +0.000 A 
ATOM      5  N   UNL     1      48.037   5.181  15.684  0.00  0.00    +0.000 NA
ATOM      6  C   UNL     1      47.270   4.439  14.853  0.00  0.00    +0.000 A 
ENDROOT
BRANCH   1   8
ATOM      7  N   UNL     1      45.180   4.754  11.849  0.00  0.00    +0.000 N 
ATOM      8  C   UNL     1      45.919   4.054  12.778  0.00  0.00    +0.000 C 
ATOM      9  O   UNL     1      45.876   2.840  12.924  0.00  0.00    +0.000 OA
ATOM     10  H   UNL     1      45.401   5.717  11.644  0.00  0.00    +0.000 HD
BRANCH   7  11
ATOM     11  C   UNL     1      44.225   4.108  10.950  0.00  0.00    +0.000 C 
BRANCH  11  12
ATOM     12  C   UNL     1      44.970   3.606   9.717  0.00  0.00    +0.000 A 
ATOM     13  C   UNL     1      45.121   2.222   9.519  0.00  0.00    +0.000 A 
ATOM     14  C   UNL     1      45.780   1.728   8.390  0.00  0.00    +0.000 A 
ATOM     15  C   UNL     1      46.307   2.606   7.447  0.00  0.00    +0.000 A 
ATOM     16  C   UNL     1      46.201   3.979   7.645  0.00  0.00    +0.000 A 
ATOM     17  C   UNL     1      45.550   4.474   8.777  0.00  0.00    +0.000 A 
ENDBRANCH  11  12
BRANCH  11  18
ATOM     18  C   UNL     1      43.058   5.086  10.612  0.00  0.00    +0.000 C 
BRANCH  18  19
ATOM     19  N   UNL     1      43.209   6.426  11.188  0.00  0.00    +0.000 NA
ATOM     20  H   UNL     1      44.006   6.895  10.765  0.00  0.00    +0.000 HD
ATOM     21  H   UNL     1      43.404   6.340  12.186  0.00  0.00    +0.000 HD
ENDBRANCH  18  19
ENDBRANCH  11  18
ENDBRANCH   7  11
ENDBRANCH   1   8
BRANCH   4  22
ATOM     22  C   UNL     1      49.232   7.253  16.192  0.00  0.00    +0.000 C 
BRANCH  22  23
ATOM     23  N   UNL     1      48.602   7.360  17.482  0.00  0.00    +0.000 N 
ATOM     24  C   UNL     1      49.249   7.063  18.652  0.00  0.00    +0.000 C 
ATOM     25  O   UNL     1      50.414   6.681  18.676  0.00  0.00    +0.000 OA
ATOM     26  H   UNL     1      47.590   7.428  17.469  0.00  0.00    +0.000 HD
BRANCH  24  27
ATOM     27  C   UNL     1      48.493   7.316  19.887  0.00  0.00    +0.000 A 
ATOM     28  C   UNL     1      48.468   6.357  20.888  0.00  0.00    +0.000 A 
ATOM     29  S   UNL     1      47.620   6.851  22.284  0.00  0.00    +0.000 S 
ATOM     30  C   UNL     1      47.211   8.343  21.576  0.00  0.00    +0.000 A 
ATOM     31  N   UNL     1      46.463   9.256  22.250  0.00  0.00    +0.000 NA
ATOM     32  C   UNL     1      46.198  10.329  21.580  0.00  0.00    +0.000 A 
ATOM     33  N   UNL     1      46.617  10.574  20.298  0.00  0.00    +0.000 N 
ATOM     34  C   UNL     1      47.407   9.697  19.594  0.00  0.00    +0.000 A 
ATOM     35  O   UNL     1      47.817   9.975  18.473  0.00  0.00    +0.000 OA
ATOM     36  C   UNL     1      47.721   8.468  20.295  0.00  0.00    +0.000 A 
ATOM     37  H   UNL     1      46.388  11.439  19.831  0.00  0.00    +0.000 HD
ENDBRANCH  24  27
ENDBRANCH  22  23
ENDBRANCH   4  22
TORSDOF 8
ENDMDL
MODEL 5
REMARK VINA RESULT:    -7.002      4.108      5.874
REMARK INTER + INTRA:         -11.177
REMARK INTER:                 -10.201
REMARK INTRA:                  -0.976
REMARK UNBOUND:                -1.105
REMARK  Name = 
REMARK  8 active torsions:
REMARK  status: ('A' for Active; 'I' for Inactive)
REMARK    1  A    between atoms: N_1  and  C_2
REMARK    2  A    between atoms: C_2  and  C_3
REMARK    3  A    between atoms: C_3  and  N_4
REMARK    4  A    between atoms: C_3  and  C_27
REMARK    5  A    between atoms: C_5  and  C_7
REMARK    6  A    between atoms: C_10  and  C_11
REMARK    7  A    between atoms: C_11  and  N_12
REMARK    8  A    between atoms: C_13  and  C_15
REMARK                            x       y       z     vdW  Elec       q    Type
REMARK                         _______ _______ _______ _____ _____    ______ ____
ROOT
ATOM      1  C   UNL     1      45.131   8.187  12.090  0.00  0.00    +0.000 A 
ATOM      2  C   UNL     1      46.401   8.105  12.659  0.00  0.00    +0.000 A 
ATOM      3  C   UNL     1      46.803   6.913  13.261  0.00  0.00    +0.000 A 
ATOM      4  C   UNL     1      45.916   5.838  13.283  0.00  0.00    +0.000 A 
ATOM      5  N   UNL     1      44.703   5.879  12.675  0.00  0.00    +0.000 NA
ATOM      6  C   UNL     1      44.348   7.043  12.083  0.00  0.00    +0.000 A 
ENDROOT
BRANCH   1   8
ATOM      7  N   UNL     1      43.291   9.544  11.294  0.00  0.00    +0.000 N 
ATOM      8  C   UNL     1      44.648   9.465  11.518  0.00  0.00    +0.000 C 
ATOM      9  O   UNL     1      45.438  10.377  11.312  0.00  0.00    +0.000 OA
ATOM     10  H   UNL     1      42.672   8.838  11.664  0.00  0.00    +0.000 HD
BRANCH   7  11
ATOM     11  C   UNL     1      42.649  10.736  10.742  0.00  0.00    +0.000 C 
BRANCH  11  12
ATOM     12  C   UNL     1      41.292  10.921  11.413  0.00  0.00    +0.000 A 
ATOM     13  C   UNL     1      41.170  11.822  12.486  0.00  0.00    +0.000 A 
ATOM     14  C   UNL     1      39.937  12.031  13.109  0.00  0.00    +0.000 A 
ATOM     15  C   UNL     1      38.808  11.338  12.678  0.00  0.00    +0.000 A 
ATOM     16  C   UNL     1      38.917  10.415  11.643  0.00  0.00    +0.000 A 
ATOM     17  C   UNL     1      40.151  10.198  11.025  0.00  0.00    +0.000 A 
ENDBRANCH  11  12
BRANCH  11  18
ATOM     18  C   UNL     1      42.563  10.630   9.188  0.00  0.00    +0.000 C 
BRANCH  18  19
ATOM     19  N   UNL     1      43.864  10.618   8.512  0.00  0.00    +0.000 NA
ATOM     20  H   UNL     1      44.203  11.571   8.400  0.00  0.00    +0.000 HD
ATOM     21  H   UNL     1      43.751  10.226   7.577  0.00  0.00    +0.000 HD
ENDBRANCH  18  19
ENDBRANCH  11  18
ENDBRANCH   7  11
ENDBRANCH   1   8
BRANCH   4  22
ATOM     22  C   UNL     1      46.281   4.561  13.997  0.00  0.00    +0.000 C 
BRANCH  22  23
ATOM     23  N   UNL     1      47.393   4.741  14.893  0.00  0.00    +0.000 N 
ATOM     24  C   UNL     1      47.395   4.269  16.179  0.00  0.00    +0.000 C 
ATOM     25  O   UNL     1      46.442   3.662  16.654  0.00  0.00    +0.000 OA
ATOM     26  H   UNL     1      48.072   5.441  14.612  0.00  0.00    +0.000 HD
BRANCH  24  27
ATOM     27  C   UNL     1      48.646   4.453  16.930  0.00  0.00    +0.000 A 
ATOM     28  C   UNL     1      48.898   5.662  17.561  0.00  0.00    +0.000 A 
ATOM     29  S   UNL     1      50.350   5.673  18.458  0.00  0.00    +0.000 S 
ATOM     30  C   UNL     1      50.717   4.079  17.988  0.00  0.00    +0.000 A 
ATOM     31  N   UNL     1      51.857   3.471  18.409  0.00  0.00    +0.000 NA
ATOM     32  C   UNL     1      52.028   2.276  17.947  0.00  0.00    +0.000 A 
ATOM     33  N   UNL     1      51.157   1.631  17.107  0.00  0.00    +0.000 N 
ATOM     34  C   UNL     1      49.975   2.193  16.688  0.00  0.00    +0.000 A 
ATOM     35  O   UNL     1      49.190   1.564  15.987  0.00  0.00    +0.000 OA
ATOM     36  C   UNL     1      49.743   3.542  17.165  0.00  0.00    +0.000 A 
ATOM     37  H   UNL     1      51.339   0.691  16.790  0.00  0.00    +0.000 HD
ENDBRANCH  24  27
ENDBRANCH  22  23
ENDBRANCH   4  22
TORSDOF 8
ENDMDL
MODEL 6
REMARK VINA RESULT:    -6.884      4.353      6.466
REMARK INTER + INTRA:         -11.007
REMARK INTER:                  -9.828
REMARK INTRA:                  -1.179
REMARK UNBOUND:                -1.105
REMARK  Name = 
REMARK  8 active torsions:
REMARK  status: ('A' for Active; 'I' for Inactive)
REMARK    1  A    between atoms: N_1  and  C_2
REMARK    2  A    between atoms: C_2  and  C_3
REMARK    3  A    between atoms: C_3  and  N_4
REMARK    4  A    between atoms: C_3  and  C_27
REMARK    5  A    between atoms: C_5  and  C_7
REMARK    6  A    between atoms: C_10  and  C_11
REMARK    7  A    between atoms: C_11  and  N_12
REMARK    8  A    between atoms: C_13  and  C_15
REMARK                            x       y       z     vdW  Elec       q    Type
REMARK                         _______ _______ _______ _____ _____    ______ ____
ROOT
ATOM      1  C   UNL     1      44.905   8.591  11.832  0.00  0.00    +0.000 A 
ATOM      2  C   UNL     1      45.993   8.546  12.702  0.00  0.00    +0.000 A 
ATOM      3  C   UNL     1      46.401   7.318  13.222  0.00  0.00    +0.000 A 
ATOM      4  C   UNL     1      45.700   6.169  12.861  0.00  0.00    +0.000 A 
ATOM      5  N   UNL     1      44.682   6.186  11.962  0.00  0.00    +0.000 NA
ATOM      6  C   UNL     1      44.321   7.390  11.461  0.00  0.00    +0.000 A 
ENDROOT
BRANCH   1   8
ATOM      7  N   UNL     1      43.592   9.828  10.217  0.00  0.00    +0.000 N 
ATOM      8  C   UNL     1      44.400   9.891  11.332  0.00  0.00    +0.000 C 
ATOM      9  O   UNL     1      44.679  10.922  11.928  0.00  0.00    +0.000 OA
ATOM     10  H   UNL     1      43.242   8.939   9.892  0.00  0.00    +0.000 HD
BRANCH   7  11
ATOM     11  C   UNL     1      43.003  11.015   9.600  0.00  0.00    +0.000 C 
BRANCH  11  12
ATOM     12  C   UNL     1      41.524  11.079   9.964  0.00  0.00    +0.000 A 
ATOM     13  C   UNL     1      40.710  12.063   9.375  0.00  0.00    +0.000 A 
ATOM     14  C   UNL     1      39.346  12.136   9.670  0.00  0.00    +0.000 A 
ATOM     15  C   UNL     1      38.774  11.235  10.564  0.00  0.00    +0.000 A 
ATOM     16  C   UNL     1      39.570  10.278  11.185  0.00  0.00    +0.000 A 
ATOM     17  C   UNL     1      40.936  10.209  10.898  0.00  0.00    +0.000 A 
ENDBRANCH  11  12
BRANCH  11  18
ATOM     18  C   UNL     1      43.263  11.007   8.062  0.00  0.00    +0.000 C 
BRANCH  18  19
ATOM     19  N   UNL     1      44.582  11.516   7.672  0.00  0.00    +0.000 NA
ATOM     20  H   UNL     1      44.480  12.404   7.186  0.00  0.00    +0.000 HD
ATOM     21  H   UNL     1      45.012  10.862   7.017  0.00  0.00    +0.000 HD
ENDBRANCH  18  19
ENDBRANCH  11  18
ENDBRANCH   7  11
ENDBRANCH   1   8
BRANCH   4  22
ATOM     22  C   UNL     1      46.057   4.835  13.466  0.00  0.00    +0.000 C 
BRANCH  22  23
ATOM     23  N   UNL     1      46.659   4.973  14.766  0.00  0.00    +0.000 N 
ATOM     24  C   UNL     1      47.413   3.987  15.345  0.00  0.00    +0.000 C 
ATOM     25  O   UNL     1      47.623   2.914  14.790  0.00  0.00    +0.000 OA
ATOM     26  H   UNL     1      46.298   5.732  15.335  0.00  0.00    +0.000 HD
BRANCH  24  27
ATOM     27  C   UNL     1      48.034   4.326  16.634  0.00  0.00    +0.000 A 
ATOM     28  C   UNL     1      47.729   3.580  17.763  0.00  0.00    +0.000 A 
ATOM     29  S   UNL     1      48.604   4.052  19.149  0.00  0.00    +0.000 S 
ATOM     30  C   UNL     1      49.380   5.306  18.300  0.00  0.00    +0.000 A 
ATOM     31  N   UNL     1      50.272   6.123  18.921  0.00  0.00    +0.000 NA
ATOM     32  C   UNL     1      50.758   7.054  18.168  0.00  0.00    +0.000 A 
ATOM     33  N   UNL     1      50.438   7.238  16.846  0.00  0.00    +0.000 N 
ATOM     34  C   UNL     1      49.572   6.412  16.170  0.00  0.00    +0.000 A 
ATOM     35  O   UNL     1      49.356   6.567  14.973  0.00  0.00    +0.000 OA
ATOM     36  C   UNL     1      48.985   5.359  16.975  0.00  0.00    +0.000 A 
ATOM     37  H   UNL     1      50.861   7.977  16.306  0.00  0.00    +0.000 HD
ENDBRANCH  24  27
ENDBRANCH  22  23
ENDBRANCH   4  22
TORSDOF 8
ENDMDL
MODEL 7
REMARK VINA RESULT:    -6.766      1.820      2.770
REMARK INTER + INTRA:         -10.838
REMARK INTER:                  -9.868
REMARK INTRA:                  -0.970
REMARK UNBOUND:                -1.105
REMARK  Name = 
REMARK  8 active torsions:
REMARK  status: ('A' for Active; 'I' for Inactive)
REMARK    1  A    between atoms: N_1  and  C_2
REMARK    2  A    between atoms: C_2  and  C_3
REMARK    3  A    between atoms: C_3  and  N_4
REMARK    4  A    between atoms: C_3  and  C_27
REMARK    5  A    between atoms: C_5  and  C_7
REMARK    6  A    between atoms: C_10  and  C_11
REMARK    7  A    between atoms: C_11  and  N_12
REMARK    8  A    between atoms: C_13  and  C_15
REMARK                            x       y       z     vdW  Elec       q    Type
REMARK                         _______ _______ _______ _____ _____    ______ ____
ROOT
ATOM      1  C   UNL     1      46.939   5.057  13.854  0.00  0.00    +0.000 A 
ATOM      2  C   UNL     1      47.564   6.211  13.387  0.00  0.00    +0.000 A 
ATOM      3  C   UNL     1      48.490   6.863  14.200  0.00  0.00    +0.000 A 
ATOM      4  C   UNL     1      48.757   6.343  15.465  0.00  0.00    +0.000 A 
ATOM      5  N   UNL     1      48.209   5.183  15.910  0.00  0.00    +0.000 NA
ATOM      6  C   UNL     1      47.328   4.563  15.090  0.00  0.00    +0.000 A 
ENDROOT
BRANCH   1   8
ATOM      7  N   UNL     1      45.235   5.199  12.140  0.00  0.00    +0.000 N 
ATOM      8  C   UNL     1      45.891   4.393  13.045  0.00  0.00    +0.000 C 
ATOM      9  O   UNL     1      45.685   3.194  13.181  0.00  0.00    +0.000 OA
ATOM     10  H   UNL     1      45.582   6.125  11.939  0.00  0.00    +0.000 HD
BRANCH   7  11
ATOM     11  C   UNL     1      44.180   4.702  11.258  0.00  0.00    +0.000 C 
BRANCH  11  12
ATOM     12  C   UNL     1      44.824   4.053  10.037  0.00  0.00    +0.000 A 
ATOM     13  C   UNL     1      44.747   2.658   9.876  0.00  0.00    +0.000 A 
ATOM     14  C   UNL     1      45.307   2.034   8.758  0.00  0.00    +0.000 A 
ATOM     15  C   UNL     1      45.961   2.789   7.789  0.00  0.00    +0.000 A 
ATOM     16  C   UNL     1      46.080   4.166   7.950  0.00  0.00    +0.000 A 
ATOM     17  C   UNL     1      45.528   4.790   9.071  0.00  0.00    +0.000 A 
ENDBRANCH  11  12
BRANCH  11  18
ATOM     18  C   UNL     1      43.191   5.853  10.899  0.00  0.00    +0.000 C 
BRANCH  18  19
ATOM     19  N   UNL     1      42.054   5.978  11.816  0.00  0.00    +0.000 NA
ATOM     20  H   UNL     1      42.285   6.627  12.565  0.00  0.00    +0.000 HD
ATOM     21  H   UNL     1      41.872   5.072  12.248  0.00  0.00    +0.000 HD
ENDBRANCH  18  19
ENDBRANCH  11  18
ENDBRANCH   7  11
ENDBRANCH   1   8
BRANCH   4  22
ATOM     22  C   UNL     1      49.689   7.064  16.407  0.00  0.00    +0.000 C 
BRANCH  22  23
ATOM     23  N   UNL     1      50.446   6.152  17.223  0.00  0.00    +0.000 N 
ATOM     24  C   UNL     1      51.792   5.955  17.066  0.00  0.00    +0.000 C 
ATOM     25  O   UNL     1      52.443   6.545  16.211  0.00  0.00    +0.000 OA
ATOM     26  H   UNL     1      49.898   5.483  17.754  0.00  0.00    +0.000 HD
BRANCH  24  27
ATOM     27  C   UNL     1      52.430   5.061  18.043  0.00  0.00    +0.000 A 
ATOM     28  C   UNL     1      52.519   3.702  17.779  0.00  0.00    +0.000 A 
ATOM     29  S   UNL     1      53.366   2.829  18.975  0.00  0.00    +0.000 S 
ATOM     30  C   UNL     1      53.595   4.229  19.914  0.00  0.00    +0.000 A 
ATOM     31  N   UNL     1      54.253   4.175  21.103  0.00  0.00    +0.000 NA
ATOM     32  C   UNL     1      54.323   5.304  21.727  0.00  0.00    +0.000 A 
ATOM     33  N   UNL     1      53.799   6.486  21.268  0.00  0.00    +0.000 N 
ATOM     34  C   UNL     1      53.161   6.594  20.056  0.00  0.00    +0.000 A 
ATOM     35  O   UNL     1      52.760   7.678  19.647  0.00  0.00    +0.000 OA
ATOM     36  C   UNL     1      53.041   5.350  19.321  0.00  0.00    +0.000 A 
ATOM     37  H   UNL     1      53.897   7.339  21.797  0.00  0.00    +0.000 HD
ENDBRANCH  24  27
ENDBRANCH  22  23
ENDBRANCH   4  22
TORSDOF 8
ENDMDL
MODEL 8
REMARK VINA RESULT:    -6.732      3.605      9.816
REMARK INTER + INTRA:         -10.788
REMARK INTER:                  -9.696
REMARK INTRA:                  -1.092
REMARK UNBOUND:                -1.105
REMARK  Name = 
REMARK  8 active torsions:
REMARK  status: ('A' for Active; 'I' for Inactive)
REMARK    1  A    between atoms: N_1  and  C_2
REMARK    2  A    between atoms: C_2  and  C_3
REMARK    3  A    between atoms: C_3  and  N_4
REMARK    4  A    between atoms: C_3  and  C_27
REMARK    5  A    between atoms: C_5  and  C_7
REMARK    6  A    between atoms: C_10  and  C_11
REMARK    7  A    between atoms: C_11  and  N_12
REMARK    8  A    between atoms: C_13  and  C_15
REMARK                            x       y       z     vdW  Elec       q    Type
REMARK                         _______ _______ _______ _____ _____    ______ ____
ROOT
ATOM      1  C   UNL     1      48.688   7.140  16.974  0.00  0.00    +0.000 A 
ATOM      2  C   UNL     1      48.524   8.404  16.411  0.00  0.00    +0.000 A 
ATOM      3  C   UNL     1      48.488   8.534  15.023  0.00  0.00    +0.000 A 
ATOM      4  C   UNL     1      48.626   7.392  14.237  0.00  0.00    +0.000 A 
ATOM      5  N   UNL     1      48.718   6.145  14.769  0.00  0.00    +0.000 NA
ATOM      6  C   UNL     1      48.731   6.049  16.118  0.00  0.00    +0.000 A 
ENDROOT
BRANCH   1   8
ATOM      7  N   UNL     1      49.584   5.924  18.866  0.00  0.00    +0.000 N 
ATOM      8  C   UNL     1      48.813   6.984  18.442  0.00  0.00    +0.000 C 
ATOM      9  O   UNL     1      48.278   7.793  19.187  0.00  0.00    +0.000 OA
ATOM     10  H   UNL     1      50.155   5.414  18.208  0.00  0.00    +0.000 HD
BRANCH   7  11
ATOM     11  C   UNL     1      49.817   5.632  20.279  0.00  0.00    +0.000 C 
BRANCH  11  12
ATOM     12  C   UNL     1      51.167   4.937  20.424  0.00  0.00    +0.000 A 
ATOM     13  C   UNL     1      51.734   4.791  21.703  0.00  0.00    +0.000 A 
ATOM     14  C   UNL     1      52.959   4.141  21.874  0.00  0.00    +0.000 A 
ATOM     15  C   UNL     1      53.643   3.635  20.771  0.00  0.00    +0.000 A 
ATOM     16  C   UNL     1      53.116   3.803  19.495  0.00  0.00    +0.000 A 
ATOM     17  C   UNL     1      51.896   4.461  19.322  0.00  0.00    +0.000 A 
ENDBRANCH  11  12
BRANCH  11  18
ATOM     18  C   UNL     1      48.629   4.805  20.861  0.00  0.00    +0.000 C 
BRANCH  18  19
ATOM     19  N   UNL     1      48.431   3.503  20.218  0.00  0.00    +0.000 NA
ATOM     20  H   UNL     1      48.239   2.795  20.923  0.00  0.00    +0.000 HD
ATOM     21  H   UNL     1      49.292   3.230  19.743  0.00  0.00    +0.000 HD
ENDBRANCH  18  19
ENDBRANCH  11  18
ENDBRANCH   7  11
ENDBRANCH   1   8
BRANCH   4  22
ATOM     22  C   UNL     1      48.676   7.500  12.734  0.00  0.00    +0.000 C 
BRANCH  22  23
ATOM     23  N   UNL     1      47.814   6.541  12.093  0.00  0.00    +0.000 N 
ATOM     24  C   UNL     1      46.512   6.816  11.764  0.00  0.00    +0.000 C 
ATOM     25  O   UNL     1      45.994   7.902  11.999  0.00  0.00    +0.000 OA
ATOM     26  H   UNL     1      48.135   5.579  12.119  0.00  0.00    +0.000 HD
BRANCH  24  27
ATOM     27  C   UNL     1      45.799   5.761  11.030  0.00  0.00    +0.000 A 
ATOM     28  C   UNL     1      45.917   5.681   9.650  0.00  0.00    +0.000 A 
ATOM     29  S   UNL     1      45.098   4.347   8.972  0.00  0.00    +0.000 S 
ATOM     30  C   UNL     1      44.513   3.862  10.494  0.00  0.00    +0.000 A 
ATOM     31  N   UNL     1      43.716   2.767  10.620  0.00  0.00    +0.000 NA
ATOM     32  C   UNL     1      43.314   2.535  11.826  0.00  0.00    +0.000 A 
ATOM     33  N   UNL     1      43.643   3.295  12.920  0.00  0.00    +0.000 N 
ATOM     34  C   UNL     1      44.476   4.385  12.844  0.00  0.00    +0.000 A 
ATOM     35  O   UNL     1      44.800   5.005  13.851  0.00  0.00    +0.000 OA
ATOM     36  C   UNL     1      44.942   4.699  11.508  0.00  0.00    +0.000 A 
ATOM     37  H   UNL     1      43.308   3.054  13.841  0.00  0.00    +0.000 HD
ENDBRANCH  24  27
ENDBRANCH  22  23
ENDBRANCH   4  22
TORSDOF 8
ENDMDL
MODEL 9
REMARK VINA RESULT:    -6.616      4.000      5.439
REMARK INTER + INTRA:         -10.622
REMARK INTER:                  -9.536
REMARK INTRA:                  -1.086
REMARK UNBOUND:                -1.105
REMARK  Name = 
REMARK  8 active torsions:
REMARK  status: ('A' for Active; 'I' for Inactive)
REMARK    1  A    between atoms: N_1  and  C_2
REMARK    2  A    between atoms: C_2  and  C_3
REMARK    3  A    between atoms: C_3  and  N_4
REMARK    4  A    between atoms: C_3  and  C_27
REMARK    5  A    between atoms: C_5  and  C_7
REMARK    6  A    between atoms: C_10  and  C_11
REMARK    7  A    between atoms: C_11  and  N_12
REMARK    8  A    between atoms: C_13  and  C_15
REMARK                            x       y       z     vdW  Elec       q    Type
REMARK                         _______ _______ _______ _____ _____    ______ ____
ROOT
ATOM      1  C   UNL     1      47.332   5.807  13.611  0.00  0.00    +0.000 A 
ATOM      2  C   UNL     1      47.985   6.721  12.786  0.00  0.00    +0.000 A 
ATOM      3  C   UNL     1      49.045   7.468  13.300  0.00  0.00    +0.000 A 
ATOM      4  C   UNL     1      49.416   7.281  14.630  0.00  0.00    +0.000 A 
ATOM      5  N   UNL     1      48.836   6.347  15.427  0.00  0.00    +0.000 NA
ATOM      6  C   UNL     1      47.822   5.626  14.895  0.00  0.00    +0.000 A 
ENDROOT
BRANCH   1   8
ATOM      7  N   UNL     1      45.574   5.555  11.965  0.00  0.00    +0.000 N 
ATOM      8  C   UNL     1      46.151   5.062  13.116  0.00  0.00    +0.000 C 
ATOM      9  O   UNL     1      45.773   4.058  13.704  0.00  0.00    +0.000 OA
ATOM     10  H   UNL     1      46.046   6.263  11.422  0.00  0.00    +0.000 HD
BRANCH   7  11
ATOM     11  C   UNL     1      44.408   4.936  11.338  0.00  0.00    +0.000 C 
BRANCH  11  12
ATOM     12  C   UNL     1      44.864   4.155  10.110  0.00  0.00    +0.000 A 
ATOM     13  C   UNL     1      44.623   2.771  10.044  0.00  0.00    +0.000 A 
ATOM     14  C   UNL     1      45.008   2.029   8.925  0.00  0.00    +0.000 A 
ATOM     15  C   UNL     1      45.650   2.653   7.858  0.00  0.00    +0.000 A 
ATOM     16  C   UNL     1      45.930   4.014   7.921  0.00  0.00    +0.000 A 
ATOM     17  C   UNL     1      45.553   4.755   9.044  0.00  0.00    +0.000 A 
ENDBRANCH  11  12
BRANCH  11  18
ATOM     18  C   UNL     1      43.330   6.017  11.019  0.00  0.00    +0.000 C 
BRANCH  18  19
ATOM     19  N   UNL     1      42.091   5.879  11.791  0.00  0.00    +0.000 NA
ATOM     20  H   UNL     1      42.271   6.086  12.771  0.00  0.00    +0.000 HD
ATOM     21  H   UNL     1      41.773   4.911  11.741  0.00  0.00    +0.000 HD
ENDBRANCH  18  19
ENDBRANCH  11  18
ENDBRANCH   7  11
ENDBRANCH   1   8
BRANCH   4  22
ATOM     22  C   UNL     1      50.501   8.128  15.246  0.00  0.00    +0.000 C 
BRANCH  22  23
ATOM     23  N   UNL     1      50.016   8.906  16.356  0.00  0.00    +0.000 N 
ATOM     24  C   UNL     1      49.256  10.034  16.196  0.00  0.00    +0.000 C 
ATOM     25  O   UNL     1      48.940  10.458  15.090  0.00  0.00    +0.000 OA
ATOM     26  H   UNL     1      50.465   8.724  17.247  0.00  0.00    +0.000 HD
BRANCH  24  27
ATOM     27  C   UNL     1      48.763  10.658  17.433  0.00  0.00    +0.000 A 
ATOM     28  C   UNL     1      48.834  12.034  17.587  0.00  0.00    +0.000 A 
ATOM     29  S   UNL     1      48.137  12.595  19.040  0.00  0.00    +0.000 S 
ATOM     30  C   UNL     1      47.765  11.011  19.537  0.00  0.00    +0.000 A 
ATOM     31  N   UNL     1      47.154  10.777  20.729  0.00  0.00    +0.000 NA
ATOM     32  C   UNL     1      46.965   9.528  20.997  0.00  0.00    +0.000 A 
ATOM     33  N   UNL     1      47.325   8.488  20.177  0.00  0.00    +0.000 N 
ATOM     34  C   UNL     1      47.908   8.680  18.948  0.00  0.00    +0.000 A 
ATOM     35  O   UNL     1      48.160   7.732  18.213  0.00  0.00    +0.000 OA
ATOM     36  C   UNL     1      48.158  10.067  18.605  0.00  0.00    +0.000 A 
ATOM     37  H   UNL     1      47.138   7.532  20.436  0.00  0.00    +0.000 HD
ENDBRANCH  24  27
ENDBRANCH  22  23
ENDBRANCH   4  22
TORSDOF 8
ENDMDL
