MODEL 1
REMARK VINA RESULT:    -8.167      0.000      0.000
REMARK INTER + INTRA:         -12.473
REMARK INTER:                 -11.509
REMARK INTRA:                  -0.964
REMARK UNBOUND:                -0.964
REMARK  Name = 
REMARK  7 active torsions:
REMARK  status: ('A' for Active; 'I' for Inactive)
REMARK    1  A    between atoms: C_2  and  C_20
REMARK    2  A    between atoms: N_3  and  C_4
REMARK    3  A    between atoms: C_4  and  C_5
REMARK    4  A    between atoms: C_8  and  C_9
REMARK    5  A    between atoms: C_9  and  N_10
REMARK    6  A    between atoms: N_10  and  C_11
REMARK    7  A    between atoms: C_11  and  C_12
REMARK                            x       y       z     vdW  Elec       q    Type
REMARK                         _______ _______ _______ _____ _____    ______ ____
ROOT
ATOM      1  C   UNL     1      46.475   7.438  12.351  0.00  0.00    +0.000 A 
ATOM      2  C   UNL     1      46.562   8.520  13.234  0.00  0.00    +0.000 A 
ATOM      3  C   UNL     1      47.735   8.764  13.950  0.00  0.00    +0.000 A 
ATOM      4  C   UNL     1      48.852   7.928  13.804  0.00  0.00    +0.000 A 
ATOM      5  C   UNL     1      48.774   6.859  12.902  0.00  0.00    +0.000 A 
ATOM      6  C   UNL     1      47.599   6.618  12.182  0.00  0.00    +0.000 A 
ENDROOT
BRANCH   1   7
ATOM      7  C   UNL     1      45.215   7.169  11.564  0.00  0.00    +0.000 C 
BRANCH   7  10
ATOM      8  O   UNL     1      42.774   5.734  11.176  0.00  0.00    +0.000 OA
ATOM      9  C   UNL     1      43.855   5.187  10.992  0.00  0.00    +0.000 C 
ATOM     10  N   UNL     1      45.071   5.763  11.295  0.00  0.00    +0.000 N 
ATOM     11  H   UNL     1      45.879   5.229  10.985  0.00  0.00    +0.000 HD
BRANCH   9  12
ATOM     12  C   UNL     1      44.017   3.898  10.295  0.00  0.00    +0.000 A 
ATOM     13  N   UNL     1      43.525   2.759  10.838  0.00  0.00    +0.000 NA
ATOM     14  N   UNL     1      44.119   1.788  10.130  0.00  0.00    +0.000 N 
ATOM     15  C   UNL     1      45.009   2.240   9.197  0.00  0.00    +0.000 A 
ATOM     16  C   UNL     1      45.961   1.573   8.424  0.00  0.00    +0.000 A 
ATOM     17  C   UNL     1      46.676   2.339   7.499  0.00  0.00    +0.000 A 
ATOM     18  C   UNL     1      46.402   3.696   7.323  0.00  0.00    +0.000 A 
ATOM     19  C   UNL     1      45.483   4.355   8.152  0.00  0.00    +0.000 A 
ATOM     20  C   UNL     1      44.812   3.616   9.144  0.00  0.00    +0.000 A 
ATOM     21  H   UNL     1      43.907   0.825  10.364  0.00  0.00    +0.000 HD
ENDBRANCH   9  12
ENDBRANCH   7  10
ENDBRANCH   1   7
BRANCH   4  22
ATOM     22  C   UNL     1      50.109   8.173  14.610  0.00  0.00    +0.000 C 
BRANCH  22  23
ATOM     23  N   UNL     1      50.577   6.934  15.218  0.00  0.00    +0.000 NA
ATOM     24  H   UNL     1      51.586   6.983  15.368  0.00  0.00    +0.000 HD
BRANCH  23  25
ATOM     25  C   UNL     1      49.943   6.687  16.523  0.00  0.00    +0.000 C 
BRANCH  25  26
ATOM     26  C   UNL     1      49.319   5.300  16.608  0.00  0.00    +0.000 A 
ATOM     27  N   UNL     1      48.104   5.129  16.036  0.00  0.00    +0.000 NA
ATOM     28  C   UNL     1      47.545   3.912  16.176  0.00  0.00    +0.000 A 
ATOM     29  C   UNL     1      48.146   2.871  16.841  0.00  0.00    +0.000 A 
ATOM     30  C   UNL     1      49.387   3.140  17.367  0.00  0.00    +0.000 A 
ATOM     31  N   UNL     1      49.997   4.335  17.263  0.00  0.00    +0.000 NA
ENDBRANCH  25  26
ENDBRANCH  23  25
ENDBRANCH  22  23
ENDBRANCH   4  22
TORSDOF 7
ENDMDL
MODEL 2
REMARK VINA RESULT:    -7.931      1.440      2.112
REMARK INTER + INTRA:         -12.141
REMARK INTER:                 -11.686
REMARK INTRA:                  -0.455
REMARK UNBOUND:                -0.964
REMARK  Name = 
REMARK  7 active torsions:
REMARK  status: ('A' for Active; 'I' for Inactive)
REMARK    1  A    between atoms: C_2  and  C_20
REMARK    2  A    between atoms: N_3  and  C_4
REMARK    3  A    between atoms: C_4  and  C_5
REMARK    4  A    between atoms: C_8  and  C_9
REMARK    5  A    between atoms: C_9  and  N_10
REMARK    6  A    between atoms: N_10  and  C_11
REMARK    7  A    between atoms: C_11  and  C_12
REMARK                            x       y       z     vdW  Elec       q    Type
REMARK                         _______ _______ _______ _____ _____    ______ ____
ROOT
ATOM      1  C   UNL     1      44.944   6.214  12.097  0.00  0.00    +0.000 A 
ATOM      2  C   UNL     1      45.416   5.113  12.822  0.00  0.00    +0.000 A 
ATOM      3  C   UNL     1      46.564   5.216  13.608  0.00  0.00    +0.000 A 
ATOM      4  C   UNL     1      47.274   6.423  13.687  0.00  0.00    +0.000 A 
ATOM      5  C   UNL     1      46.790   7.532  12.982  0.00  0.00    +0.000 A 
ATOM      6  C   UNL     1      45.636   7.428  12.197  0.00  0.00    +0.000 A 
ENDROOT
BRANCH   1   7
ATOM      7  C   UNL     1      43.698   6.118  11.251  0.00  0.00    +0.000 C 
BRANCH   7  10
ATOM      8  O   UNL     1      45.670   5.741   9.216  0.00  0.00    +0.000 OA
ATOM      9  C   UNL     1      44.856   4.859   9.468  0.00  0.00    +0.000 C 
ATOM     10  N   UNL     1      43.790   5.018  10.328  0.00  0.00    +0.000 N 
ATOM     11  H   UNL     1      43.270   4.165  10.516  0.00  0.00    +0.000 HD
BRANCH   9  12
ATOM     12  C   UNL     1      44.979   3.467   8.998  0.00  0.00    +0.000 A 
ATOM     13  N   UNL     1      44.421   2.455   9.703  0.00  0.00    +0.000 NA
ATOM     14  N   UNL     1      44.990   1.357   9.184  0.00  0.00    +0.000 N 
ATOM     15  C   UNL     1      45.924   1.613   8.220  0.00  0.00    +0.000 A 
ATOM     16  C   UNL     1      46.867   0.790   7.601  0.00  0.00    +0.000 A 
ATOM     17  C   UNL     1      47.640   1.363   6.587  0.00  0.00    +0.000 A 
ATOM     18  C   UNL     1      47.432   2.683   6.183  0.00  0.00    +0.000 A 
ATOM     19  C   UNL     1      46.522   3.506   6.860  0.00  0.00    +0.000 A 
ATOM     20  C   UNL     1      45.792   2.968   7.936  0.00  0.00    +0.000 A 
ATOM     21  H   UNL     1      44.728   0.455   9.565  0.00  0.00    +0.000 HD
ENDBRANCH   9  12
ENDBRANCH   7  10
ENDBRANCH   1   7
BRANCH   4  22
ATOM     22  C   UNL     1      48.541   6.520  14.510  0.00  0.00    +0.000 C 
BRANCH  22  23
ATOM     23  N   UNL     1      48.298   7.267  15.737  0.00  0.00    +0.000 NA
ATOM     24  H   UNL     1      47.301   7.246  15.962  0.00  0.00    +0.000 HD
BRANCH  23  25
ATOM     25  C   UNL     1      49.026   6.696  16.883  0.00  0.00    +0.000 C 
BRANCH  25  26
ATOM     26  C   UNL     1      48.719   5.218  17.082  0.00  0.00    +0.000 A 
ATOM     27  N   UNL     1      49.763   4.357  17.056  0.00  0.00    +0.000 NA
ATOM     28  C   UNL     1      49.462   3.050  17.173  0.00  0.00    +0.000 A 
ATOM     29  C   UNL     1      48.182   2.576  17.326  0.00  0.00    +0.000 A 
ATOM     30  C   UNL     1      47.195   3.531  17.361  0.00  0.00    +0.000 A 
ATOM     31  N   UNL     1      47.431   4.852  17.247  0.00  0.00    +0.000 NA
ENDBRANCH  25  26
ENDBRANCH  23  25
ENDBRANCH  22  23
ENDBRANCH   4  22
TORSDOF 7
ENDMDL
MODEL 3
REMARK VINA RESULT:    -7.619      2.106      8.230
REMARK INTER + INTRA:         -11.701
REMARK INTER:                 -10.616
REMARK INTRA:                  -1.084
REMARK UNBOUND:                -0.964
REMARK  Name = 
REMARK  7 active torsions:
REMARK  status: ('A' for Active; 'I' for Inactive)
REMARK    1  A    between atoms: C_2  and  C_20
REMARK    2  A    between atoms: N_3  and  C_4
REMARK    3  A    between atoms: C_4  and  C_5
REMARK    4  A    between atoms: C_8  and  C_9
REMARK    5  A    between atoms: C_9  and  N_10
REMARK    6  A    between atoms: N_10  and  C_11
REMARK    7  A    between atoms: C_11  and  C_12
REMARK                            x       y       z     vdW  Elec       q    Type
REMARK                         _______ _______ _______ _____ _____    ______ ____
ROOT
ATOM      1  C   UNL     1      47.431   6.541  12.643  0.00  0.00    +0.000 A 
ATOM      2  C   UNL     1      47.193   5.383  13.392  0.00  0.00    +0.000 A 
ATOM      3  C   UNL     1      46.187   4.489  13.025  0.00  0.00    +0.000 A 
ATOM      4  C   UNL     1      45.387   4.733  11.898  0.00  0.00    +0.000 A 
ATOM      5  C   UNL     1      45.639   5.879  11.134  0.00  0.00    +0.000 A 
ATOM      6  C   UNL     1      46.651   6.772  11.501  0.00  0.00    +0.000 A 
ENDROOT
BRANCH   1   7
ATOM      7  C   UNL     1      48.522   7.511  13.025  0.00  0.00    +0.000 C 
BRANCH   7  10
ATOM      8  O   UNL     1      48.514   8.430  15.730  0.00  0.00    +0.000 OA
ATOM      9  C   UNL     1      49.133   7.420  15.417  0.00  0.00    +0.000 C 
ATOM     10  N   UNL     1      49.305   6.995  14.116  0.00  0.00    +0.000 N 
ATOM     11  H   UNL     1      49.748   6.084  14.026  0.00  0.00    +0.000 HD
BRANCH   9  12
ATOM     12  C   UNL     1      49.662   6.444  16.387  0.00  0.00    +0.000 A 
ATOM     13  N   UNL     1      50.969   6.473  16.744  0.00  0.00    +0.000 NA
ATOM     14  N   UNL     1      51.155   5.294  17.354  0.00  0.00    +0.000 N 
ATOM     15  C   UNL     1      50.053   4.486  17.362  0.00  0.00    +0.000 A 
ATOM     16  C   UNL     1      49.891   3.141  17.697  0.00  0.00    +0.000 A 
ATOM     17  C   UNL     1      48.591   2.630  17.659  0.00  0.00    +0.000 A 
ATOM     18  C   UNL     1      47.504   3.451  17.354  0.00  0.00    +0.000 A 
ATOM     19  C   UNL     1      47.698   4.782  16.963  0.00  0.00    +0.000 A 
ATOM     20  C   UNL     1      49.010   5.292  16.918  0.00  0.00    +0.000 A 
ATOM     21  H   UNL     1      52.080   5.078  17.710  0.00  0.00    +0.000 HD
ENDBRANCH   9  12
ENDBRANCH   7  10
ENDBRANCH   1   7
BRANCH   4  22
ATOM     22  C   UNL     1      44.271   3.781  11.525  0.00  0.00    +0.000 C 
BRANCH  22  23
ATOM     23  N   UNL     1      44.792   2.656  10.760  0.00  0.00    +0.000 NA
ATOM     24  H   UNL     1      44.402   1.783  11.121  0.00  0.00    +0.000 HD
BRANCH  23  25
ATOM     25  C   UNL     1      44.438   2.747   9.334  0.00  0.00    +0.000 C 
BRANCH  25  26
ATOM     26  C   UNL     1      45.616   2.424   8.425  0.00  0.00    +0.000 A 
ATOM     27  N   UNL     1      46.165   3.448   7.730  0.00  0.00    +0.000 NA
ATOM     28  C   UNL     1      47.166   3.129   6.888  0.00  0.00    +0.000 A 
ATOM     29  C   UNL     1      47.642   1.851   6.723  0.00  0.00    +0.000 A 
ATOM     30  C   UNL     1      47.033   0.887   7.489  0.00  0.00    +0.000 A 
ATOM     31  N   UNL     1      46.027   1.141   8.347  0.00  0.00    +0.000 NA
ENDBRANCH  25  26
ENDBRANCH  23  25
ENDBRANCH  22  23
ENDBRANCH   4  22
TORSDOF 7
ENDMDL
MODEL 4
REMARK VINA RESULT:    -7.319      2.912      9.115
REMARK INTER + INTRA:         -11.279
REMARK INTER:                 -10.615
REMARK INTRA:                  -0.663
REMARK UNBOUND:                -0.964
REMARK  Name = 
REMARK  7 active torsions:
REMARK  status: ('A' for Active; 'I' for Inactive)
REMARK    1  A    between atoms: C_2  and  C_20
REMARK    2  A    between atoms: N_3  and  C_4
REMARK    3  A    between atoms: C_4  and  C_5
REMARK    4  A    between atoms: C_8  and  C_9
REMARK    5  A    between atoms: C_9  and  N_10
REMARK    6  A    between atoms: N_10  and  C_11
REMARK    7  A    between atoms: C_11  and  C_12
REMARK                            x       y       z     vdW  Elec       q    Type
REMARK                         _______ _______ _______ _____ _____    ______ ____
ROOT
ATOM      1  C   UNL     1      46.906   6.316  13.431  0.00  0.00    +0.000 A 
ATOM      2  C   UNL     1      46.570   4.960  13.336  0.00  0.00    +0.000 A 
ATOM      3  C   UNL     1      45.520   4.540  12.519  0.00  0.00    +0.000 A 
ATOM      4  C   UNL     1      44.774   5.467  11.776  0.00  0.00    +0.000 A 
ATOM      5  C   UNL     1      45.124   6.821  11.851  0.00  0.00    +0.000 A 
ATOM      6  C   UNL     1      46.180   7.240  12.668  0.00  0.00    +0.000 A 
ENDROOT
BRANCH   1   7
ATOM      7  C   UNL     1      48.045   6.781  14.305  0.00  0.00    +0.000 C 
BRANCH   7  10
ATOM      8  O   UNL     1      50.332   6.278  15.943  0.00  0.00    +0.000 OA
ATOM      9  C   UNL     1      49.210   5.962  16.324  0.00  0.00    +0.000 C 
ATOM     10  N   UNL     1      48.081   6.038  15.537  0.00  0.00    +0.000 N 
ATOM     11  H   UNL     1      47.211   5.845  16.028  0.00  0.00    +0.000 HD
BRANCH   9  12
ATOM     12  C   UNL     1      48.886   5.589  17.713  0.00  0.00    +0.000 A 
ATOM     13  N   UNL     1      48.560   4.311  18.021  0.00  0.00    +0.000 NA
ATOM     14  N   UNL     1      48.031   4.407  19.249  0.00  0.00    +0.000 N 
ATOM     15  C   UNL     1      47.950   5.685  19.726  0.00  0.00    +0.000 A 
ATOM     16  C   UNL     1      47.292   6.222  20.834  0.00  0.00    +0.000 A 
ATOM     17  C   UNL     1      47.473   7.586  21.079  0.00  0.00    +0.000 A 
ATOM     18  C   UNL     1      48.319   8.355  20.279  0.00  0.00    +0.000 A 
ATOM     19  C   UNL     1      48.921   7.807  19.138  0.00  0.00    +0.000 A 
ATOM     20  C   UNL     1      48.686   6.454  18.830  0.00  0.00    +0.000 A 
ATOM     21  H   UNL     1      47.698   3.560  19.696  0.00  0.00    +0.000 HD
ENDBRANCH   9  12
ENDBRANCH   7  10
ENDBRANCH   1   7
BRANCH   4  22
ATOM     22  C   UNL     1      43.612   5.012  10.920  0.00  0.00    +0.000 C 
BRANCH  22  23
ATOM     23  N   UNL     1      44.068   4.663   9.581  0.00  0.00    +0.000 NA
ATOM     24  H   UNL     1      44.957   5.127   9.388  0.00  0.00    +0.000 HD
BRANCH  23  25
ATOM     25  C   UNL     1      44.280   3.214   9.431  0.00  0.00    +0.000 C 
BRANCH  25  26
ATOM     26  C   UNL     1      45.368   2.892   8.416  0.00  0.00    +0.000 A 
ATOM     27  N   UNL     1      45.896   1.645   8.443  0.00  0.00    +0.000 NA
ATOM     28  C   UNL     1      46.898   1.402   7.578  0.00  0.00    +0.000 A 
ATOM     29  C   UNL     1      47.379   2.335   6.691  0.00  0.00    +0.000 A 
ATOM     30  C   UNL     1      46.763   3.562   6.727  0.00  0.00    +0.000 A 
ATOM     31  N   UNL     1      45.758   3.868   7.570  0.00  0.00    +0.000 NA
ENDBRANCH  25  26
ENDBRANCH  23  25
ENDBRANCH  22  23
ENDBRANCH   4  22
TORSDOF 7
ENDMDL
MODEL 5
REMARK VINA RESULT:    -7.194      3.383      4.840
REMARK INTER + INTRA:         -11.102
REMARK INTER:                 -10.154
REMARK INTRA:                  -0.947
REMARK UNBOUND:                -0.964
REMARK  Name = 
REMARK  7 active torsions:
REMARK  status: ('A' for Active; 'I' for Inactive)
REMARK    1  A    between atoms: C_2  and  C_20
REMARK    2  A    between atoms: N_3  and  C_4
REMARK    3  A    between atoms: C_4  and  C_5
REMARK    4  A    between atoms: C_8  and  C_9
REMARK    5  A    between atoms: C_9  and  N_10
REMARK    6  A    between atoms: N_10  and  C_11
REMARK    7  A    between atoms: C_11  and  C_12
REMARK                            x       y       z     vdW  Elec       q    Type
REMARK                         _______ _______ _______ _____ _____    ______ ____
ROOT
ATOM      1  C   UNL     1      46.196   6.275  12.826  0.00  0.00    +0.000 A 
ATOM      2  C   UNL     1      47.151   6.067  13.828  0.00  0.00    +0.000 A 
ATOM      3  C   UNL     1      48.455   6.540  13.681  0.00  0.00    +0.000 A 
ATOM      4  C   UNL     1      48.841   7.233  12.524  0.00  0.00    +0.000 A 
ATOM      5  C   UNL     1      47.880   7.463  11.531  0.00  0.00    +0.000 A 
ATOM      6  C   UNL     1      46.572   6.991  11.682  0.00  0.00    +0.000 A 
ENDROOT
BRANCH   1   7
ATOM      7  C   UNL     1      44.780   5.776  12.978  0.00  0.00    +0.000 C 
BRANCH   7  10
ATOM      8  O   UNL     1      43.012   5.544  10.744  0.00  0.00    +0.000 OA
ATOM      9  C   UNL     1      43.783   4.634  11.026  0.00  0.00    +0.000 C 
ATOM     10  N   UNL     1      44.560   4.609  12.165  0.00  0.00    +0.000 N 
ATOM     11  H   UNL     1      45.226   3.841  12.203  0.00  0.00    +0.000 HD
BRANCH   9  12
ATOM     12  C   UNL     1      44.093   3.509  10.125  0.00  0.00    +0.000 A 
ATOM     13  N   UNL     1      43.656   2.261  10.413  0.00  0.00    +0.000 NA
ATOM     14  N   UNL     1      44.372   1.478   9.593  0.00  0.00    +0.000 N 
ATOM     15  C   UNL     1      45.284   2.151   8.831  0.00  0.00    +0.000 A 
ATOM     16  C   UNL     1      46.337   1.702   8.032  0.00  0.00    +0.000 A 
ATOM     17  C   UNL     1      47.050   2.670   7.319  0.00  0.00    +0.000 A 
ATOM     18  C   UNL     1      46.682   4.016   7.368  0.00  0.00    +0.000 A 
ATOM     19  C   UNL     1      45.661   4.449   8.224  0.00  0.00    +0.000 A 
ATOM     20  C   UNL     1      44.984   3.497   9.010  0.00  0.00    +0.000 A 
ATOM     21  H   UNL     1      44.221   0.476   9.632  0.00  0.00    +0.000 HD
ENDBRANCH   9  12
ENDBRANCH   7  10
ENDBRANCH   1   7
BRANCH   4  22
ATOM     22  C   UNL     1      50.266   7.711  12.351  0.00  0.00    +0.000 C 
BRANCH  22  23
ATOM     23  N   UNL     1      50.795   7.289  11.060  0.00  0.00    +0.000 NA
ATOM     24  H   UNL     1      50.179   7.614  10.313  0.00  0.00    +0.000 HD
BRANCH  23  25
ATOM     25  C   UNL     1      52.136   7.841  10.807  0.00  0.00    +0.000 C 
BRANCH  25  26
ATOM     26  C   UNL     1      52.929   6.997   9.818  0.00  0.00    +0.000 A 
ATOM     27  N   UNL     1      54.057   6.402  10.273  0.00  0.00    +0.000 NA
ATOM     28  C   UNL     1      54.774   5.711   9.368  0.00  0.00    +0.000 A 
ATOM     29  C   UNL     1      54.410   5.581   8.049  0.00  0.00    +0.000 A 
ATOM     30  C   UNL     1      53.239   6.204   7.692  0.00  0.00    +0.000 A 
ATOM     31  N   UNL     1      52.479   6.911   8.549  0.00  0.00    +0.000 NA
ENDBRANCH  25  26
ENDBRANCH  23  25
ENDBRANCH  22  23
ENDBRANCH   4  22
TORSDOF 7
ENDMDL
MODEL 6
REMARK VINA RESULT:    -7.134      3.125      9.294
REMARK INTER + INTRA:         -11.017
REMARK INTER:                 -10.287
REMARK INTRA:                  -0.730
REMARK UNBOUND:                -0.964
REMARK  Name = 
REMARK  7 active torsions:
REMARK  status: ('A' for Active; 'I' for Inactive)
REMARK    1  A    between atoms: C_2  and  C_20
REMARK    2  A    between atoms: N_3  and  C_4
REMARK    3  A    between atoms: C_4  and  C_5
REMARK    4  A    between atoms: C_8  and  C_9
REMARK    5  A    between atoms: C_9  and  N_10
REMARK    6  A    between atoms: N_10  and  C_11
REMARK    7  A    between atoms: C_11  and  C_12
REMARK                            x       y       z     vdW  Elec       q    Type
REMARK                         _______ _______ _______ _____ _____    ______ ____
ROOT
ATOM      1  C   UNL     1      47.249   5.888  13.209  0.00  0.00    +0.000 A 
ATOM      2  C   UNL     1      46.414   6.378  12.198  0.00  0.00    +0.000 A 
ATOM      3  C   UNL     1      45.383   5.592  11.681  0.00  0.00    +0.000 A 
ATOM      4  C   UNL     1      45.163   4.291  12.159  0.00  0.00    +0.000 A 
ATOM      5  C   UNL     1      45.983   3.809  13.187  0.00  0.00    +0.000 A 
ATOM      6  C   UNL     1      47.014   4.600  13.707  0.00  0.00    +0.000 A 
ENDROOT
BRANCH   1   7
ATOM      7  C   UNL     1      48.361   6.732  13.782  0.00  0.00    +0.000 C 
BRANCH   7  10
ATOM      8  O   UNL     1      49.642   5.771  16.150  0.00  0.00    +0.000 OA
ATOM      9  C   UNL     1      48.832   6.689  16.208  0.00  0.00    +0.000 C 
ATOM     10  N   UNL     1      48.068   7.110  15.139  0.00  0.00    +0.000 N 
ATOM     11  H   UNL     1      47.523   7.950  15.316  0.00  0.00    +0.000 HD
BRANCH   9  12
ATOM     12  C   UNL     1      48.658   7.561  17.384  0.00  0.00    +0.000 A 
ATOM     13  N   UNL     1      49.218   8.794  17.411  0.00  0.00    +0.000 NA
ATOM     14  N   UNL     1      49.136   9.149  18.702  0.00  0.00    +0.000 N 
ATOM     15  C   UNL     1      48.602   8.190  19.514  0.00  0.00    +0.000 A 
ATOM     16  C   UNL     1      48.539   8.081  20.905  0.00  0.00    +0.000 A 
ATOM     17  C   UNL     1      47.849   6.983  21.425  0.00  0.00    +0.000 A 
ATOM     18  C   UNL     1      47.208   6.072  20.583  0.00  0.00    +0.000 A 
ATOM     19  C   UNL     1      47.337   6.168  19.191  0.00  0.00    +0.000 A 
ATOM     20  C   UNL     1      48.095   7.224  18.651  0.00  0.00    +0.000 A 
ATOM     21  H   UNL     1      49.507  10.052  18.976  0.00  0.00    +0.000 HD
ENDBRANCH   9  12
ENDBRANCH   7  10
ENDBRANCH   1   7
BRANCH   4  22
ATOM     22  C   UNL     1      44.069   3.428  11.569  0.00  0.00    +0.000 C 
BRANCH  22  23
ATOM     23  N   UNL     1      44.628   2.464  10.629  0.00  0.00    +0.000 NA
ATOM     24  H   UNL     1      44.145   1.569  10.725  0.00  0.00    +0.000 HD
BRANCH  23  25
ATOM     25  C   UNL     1      44.477   2.906   9.233  0.00  0.00    +0.000 C 
BRANCH  25  26
ATOM     26  C   UNL     1      45.628   2.438   8.353  0.00  0.00    +0.000 A 
ATOM     27  N   UNL     1      45.939   1.120   8.383  0.00  0.00    +0.000 NA
ATOM     28  C   UNL     1      46.998   0.740   7.644  0.00  0.00    +0.000 A 
ATOM     29  C   UNL     1      47.740   1.605   6.877  0.00  0.00    +0.000 A 
ATOM     30  C   UNL     1      47.332   2.917   6.898  0.00  0.00    +0.000 A 
ATOM     31  N   UNL     1      46.283   3.360   7.617  0.00  0.00    +0.000 NA
ENDBRANCH  25  26
ENDBRANCH  23  25
ENDBRANCH  22  23
ENDBRANCH   4  22
TORSDOF 7
ENDMDL
MODEL 7
REMARK VINA RESULT:    -7.107      1.978      2.347
REMARK INTER + INTRA:         -10.979
REMARK INTER:                 -10.666
REMARK INTRA:                  -0.313
REMARK UNBOUND:                -0.964
REMARK  Name = 
REMARK  7 active torsions:
REMARK  status: ('A' for Active; 'I' for Inactive)
REMARK    1  A    between atoms: C_2  and  C_20
REMARK    2  A    between atoms: N_3  and  C_4
REMARK    3  A    between atoms: C_4  and  C_5
REMARK    4  A    between atoms: C_8  and  C_9
REMARK    5  A    between atoms: C_9  and  N_10
REMARK    6  A    between atoms: N_10  and  C_11
REMARK    7  A    between atoms: C_11  and  C_12
REMARK                            x       y       z     vdW  Elec       q    Type
REMARK                         _______ _______ _______ _____ _____    ______ ____
ROOT
ATOM      1  C   UNL     1      45.052   6.178  12.145  0.00  0.00    +0.000 A 
ATOM      2  C   UNL     1      45.741   7.395  12.174  0.00  0.00    +0.000 A 
ATOM      3  C   UNL     1      46.953   7.513  12.855  0.00  0.00    +0.000 A 
ATOM      4  C   UNL     1      47.507   6.415  13.530  0.00  0.00    +0.000 A 
ATOM      5  C   UNL     1      46.830   5.190  13.482  0.00  0.00    +0.000 A 
ATOM      6  C   UNL     1      45.617   5.072  12.795  0.00  0.00    +0.000 A 
ENDROOT
BRANCH   1   7
ATOM      7  C   UNL     1      43.744   6.035  11.404  0.00  0.00    +0.000 C 
BRANCH   7  10
ATOM      8  O   UNL     1      45.551   5.732   9.210  0.00  0.00    +0.000 OA
ATOM      9  C   UNL     1      44.796   4.820   9.527  0.00  0.00    +0.000 C 
ATOM     10  N   UNL     1      43.801   4.939  10.474  0.00  0.00    +0.000 N 
ATOM     11  H   UNL     1      43.331   4.066  10.703  0.00  0.00    +0.000 HD
BRANCH   9  12
ATOM     12  C   UNL     1      44.932   3.433   9.045  0.00  0.00    +0.000 A 
ATOM     13  N   UNL     1      44.376   2.410   9.736  0.00  0.00    +0.000 NA
ATOM     14  N   UNL     1      44.957   1.322   9.211  0.00  0.00    +0.000 N 
ATOM     15  C   UNL     1      45.895   1.593   8.256  0.00  0.00    +0.000 A 
ATOM     16  C   UNL     1      46.848   0.783   7.635  0.00  0.00    +0.000 A 
ATOM     17  C   UNL     1      47.623   1.371   6.632  0.00  0.00    +0.000 A 
ATOM     18  C   UNL     1      47.408   2.693   6.239  0.00  0.00    +0.000 A 
ATOM     19  C   UNL     1      46.488   3.503   6.918  0.00  0.00    +0.000 A 
ATOM     20  C   UNL     1      45.755   2.950   7.984  0.00  0.00    +0.000 A 
ATOM     21  H   UNL     1      44.699   0.414   9.582  0.00  0.00    +0.000 HD
ENDBRANCH   9  12
ENDBRANCH   7  10
ENDBRANCH   1   7
BRANCH   4  22
ATOM     22  C   UNL     1      48.802   6.557  14.300  0.00  0.00    +0.000 C 
BRANCH  22  23
ATOM     23  N   UNL     1      48.675   5.969  15.627  0.00  0.00    +0.000 NA
ATOM     24  H   UNL     1      49.411   5.275  15.769  0.00  0.00    +0.000 HD
BRANCH  23  25
ATOM     25  C   UNL     1      48.802   6.979  16.691  0.00  0.00    +0.000 C 
BRANCH  25  26
ATOM     26  C   UNL     1      48.519   6.401  18.071  0.00  0.00    +0.000 A 
ATOM     27  N   UNL     1      47.960   7.224  18.989  0.00  0.00    +0.000 NA
ATOM     28  C   UNL     1      47.774   6.710  20.218  0.00  0.00    +0.000 A 
ATOM     29  C   UNL     1      48.107   5.422  20.562  0.00  0.00    +0.000 A 
ATOM     30  C   UNL     1      48.649   4.660  19.555  0.00  0.00    +0.000 A 
ATOM     31  N   UNL     1      48.862   5.117  18.306  0.00  0.00    +0.000 NA
ENDBRANCH  25  26
ENDBRANCH  23  25
ENDBRANCH  22  23
ENDBRANCH   4  22
TORSDOF 7
ENDMDL
MODEL 8
REMARK VINA RESULT:    -7.066      2.038      3.042
REMARK INTER + INTRA:         -10.921
REMARK INTER:                 -10.215
REMARK INTRA:                  -0.707
REMARK UNBOUND:                -0.964
REMARK  Name = 
REMARK  7 active torsions:
REMARK  status: ('A' for Active; 'I' for Inactive)
REMARK    1  A    between atoms: C_2  and  C_20
REMARK    2  A    between atoms: N_3  and  C_4
REMARK    3  A    between atoms: C_4  and  C_5
REMARK    4  A    between atoms: C_8  and  C_9
REMARK    5  A    between atoms: C_9  and  N_10
REMARK    6  A    between atoms: N_10  and  C_11
REMARK    7  A    between atoms: C_11  and  C_12
REMARK                            x       y       z     vdW  Elec       q    Type
REMARK                         _______ _______ _______ _____ _____    ______ ____
ROOT
ATOM      1  C   UNL     1      45.404   5.894  12.165  0.00  0.00    +0.000 A 
ATOM      2  C   UNL     1      46.587   6.620  12.346  0.00  0.00    +0.000 A 
ATOM      3  C   UNL     1      47.448   6.329  13.404  0.00  0.00    +0.000 A 
ATOM      4  C   UNL     1      47.147   5.304  14.314  0.00  0.00    +0.000 A 
ATOM      5  C   UNL     1      45.976   4.560  14.120  0.00  0.00    +0.000 A 
ATOM      6  C   UNL     1      45.115   4.851  13.056  0.00  0.00    +0.000 A 
ENDROOT
BRANCH   1   7
ATOM      7  C   UNL     1      44.468   6.193  11.019  0.00  0.00    +0.000 C 
BRANCH   7  10
ATOM      8  O   UNL     1      46.236   5.642   8.842  0.00  0.00    +0.000 OA
ATOM      9  C   UNL     1      45.379   4.829   9.171  0.00  0.00    +0.000 C 
ATOM     10  N   UNL     1      44.401   5.080  10.110  0.00  0.00    +0.000 N 
ATOM     11  H   UNL     1      43.833   4.272  10.352  0.00  0.00    +0.000 HD
BRANCH   9  12
ATOM     12  C   UNL     1      45.356   3.428   8.715  0.00  0.00    +0.000 A 
ATOM     13  N   UNL     1      44.799   2.465   9.489  0.00  0.00    +0.000 NA
ATOM     14  N   UNL     1      45.235   1.324   8.936  0.00  0.00    +0.000 N 
ATOM     15  C   UNL     1      46.085   1.502   7.881  0.00  0.00    +0.000 A 
ATOM     16  C   UNL     1      46.901   0.607   7.187  0.00  0.00    +0.000 A 
ATOM     17  C   UNL     1      47.609   1.112   6.093  0.00  0.00    +0.000 A 
ATOM     18  C   UNL     1      47.457   2.439   5.688  0.00  0.00    +0.000 A 
ATOM     19  C   UNL     1      46.679   3.333   6.437  0.00  0.00    +0.000 A 
ATOM     20  C   UNL     1      46.022   2.860   7.588  0.00  0.00    +0.000 A 
ATOM     21  H   UNL     1      44.949   0.447   9.356  0.00  0.00    +0.000 HD
ENDBRANCH   9  12
ENDBRANCH   7  10
ENDBRANCH   1   7
BRANCH   4  22
ATOM     22  C   UNL     1      48.065   5.016  15.482  0.00  0.00    +0.000 C 
BRANCH  22  23
ATOM     23  N   UNL     1      48.983   6.127  15.698  0.00  0.00    +0.000 NA
ATOM     24  H   UNL     1      48.467   7.008  15.681  0.00  0.00    +0.000 HD
BRANCH  23  25
ATOM     25  C   UNL     1      49.665   6.033  17.000  0.00  0.00    +0.000 C 
BRANCH  25  26
ATOM     26  C   UNL     1      51.181   6.067  16.860  0.00  0.00    +0.000 A 
ATOM     27  N   UNL     1      51.702   6.903  15.931  0.00  0.00    +0.000 NA
ATOM     28  C   UNL     1      53.039   6.872  15.783  0.00  0.00    +0.000 A 
ATOM     29  C   UNL     1      53.867   6.062  16.522  0.00  0.00    +0.000 A 
ATOM     30  C   UNL     1      53.244   5.267  17.453  0.00  0.00    +0.000 A 
ATOM     31  N   UNL     1      51.911   5.250  17.647  0.00  0.00    +0.000 NA
ENDBRANCH  25  26
ENDBRANCH  23  25
ENDBRANCH  22  23
ENDBRANCH   4  22
TORSDOF 7
ENDMDL
MODEL 9
REMARK VINA RESULT:    -6.844      2.307      4.393
REMARK INTER + INTRA:         -10.608
REMARK INTER:                  -9.622
REMARK INTRA:                  -0.986
REMARK UNBOUND:                -0.964
REMARK  Name = 
REMARK  7 active torsions:
REMARK  status: ('A' for Active; 'I' for Inactive)
REMARK    1  A    between atoms: C_2  and  C_20
REMARK    2  A    between atoms: N_3  and  C_4
REMARK    3  A    between atoms: C_4  and  C_5
REMARK    4  A    between atoms: C_8  and  C_9
REMARK    5  A    between atoms: C_9  and  N_10
REMARK    6  A    between atoms: N_10  and  C_11
REMARK    7  A    between atoms: C_11  and  C_12
REMARK                            x       y       z     vdW  Elec       q    Type
REMARK                         _______ _______ _______ _____ _____    ______ ____
ROOT
ATOM      1  C   UNL     1      45.040   5.418  13.152  0.00  0.00    +0.000 A 
ATOM      2  C   UNL     1      46.034   4.613  13.720  0.00  0.00    +0.000 A 
ATOM      3  C   UNL     1      47.313   5.118  13.958  0.00  0.00    +0.000 A 
ATOM      4  C   UNL     1      47.633   6.445  13.630  0.00  0.00    +0.000 A 
ATOM      5  C   UNL     1      46.632   7.259  13.084  0.00  0.00    +0.000 A 
ATOM      6  C   UNL     1      45.350   6.751  12.850  0.00  0.00    +0.000 A 
ENDROOT
BRANCH   1   7
ATOM      7  C   UNL     1      43.651   4.886  12.898  0.00  0.00    +0.000 C 
BRANCH   7  10
ATOM      8  O   UNL     1      43.483   5.429  10.097  0.00  0.00    +0.000 OA
ATOM      9  C   UNL     1      43.708   4.293  10.500  0.00  0.00    +0.000 C 
ATOM     10  N   UNL     1      43.660   3.924  11.827  0.00  0.00    +0.000 N 
ATOM     11  H   UNL     1      43.976   2.975  12.012  0.00  0.00    +0.000 HD
BRANCH   9  12
ATOM     12  C   UNL     1      44.194   3.196   9.642  0.00  0.00    +0.000 A 
ATOM     13  N   UNL     1      43.856   1.914   9.915  0.00  0.00    +0.000 NA
ATOM     14  N   UNL     1      44.705   1.197   9.164  0.00  0.00    +0.000 N 
ATOM     15  C   UNL     1      45.607   1.949   8.465  0.00  0.00    +0.000 A 
ATOM     16  C   UNL     1      46.757   1.598   7.756  0.00  0.00    +0.000 A 
ATOM     17  C   UNL     1      47.428   2.625   7.087  0.00  0.00    +0.000 A 
ATOM     18  C   UNL     1      46.931   3.929   7.087  0.00  0.00    +0.000 A 
ATOM     19  C   UNL     1      45.809   4.269   7.855  0.00  0.00    +0.000 A 
ATOM     20  C   UNL     1      45.166   3.262   8.600  0.00  0.00    +0.000 A 
ATOM     21  H   UNL     1      44.648   0.186   9.206  0.00  0.00    +0.000 HD
ENDBRANCH   9  12
ENDBRANCH   7  10
ENDBRANCH   1   7
BRANCH   4  22
ATOM     22  C   UNL     1      49.031   6.978  13.854  0.00  0.00    +0.000 C 
BRANCH  22  23
ATOM     23  N   UNL     1      49.669   7.293  12.583  0.00  0.00    +0.000 NA
ATOM     24  H   UNL     1      48.961   7.360  11.849  0.00  0.00    +0.000 HD
BRANCH  23  25
ATOM     25  C   UNL     1      50.387   8.578  12.629  0.00  0.00    +0.000 C 
BRANCH  25  26
ATOM     26  C   UNL     1      49.503   9.747  12.214  0.00  0.00    +0.000 A 
ATOM     27  N   UNL     1      49.513  10.101  10.908  0.00  0.00    +0.000 NA
ATOM     28  C   UNL     1      48.772  11.174  10.575  0.00  0.00    +0.000 A 
ATOM     29  C   UNL     1      48.022  11.890  11.477  0.00  0.00    +0.000 A 
ATOM     30  C   UNL     1      48.062  11.438  12.774  0.00  0.00    +0.000 A 
ATOM     31  N   UNL     1      48.785  10.373  13.170  0.00  0.00    +0.000 NA
ENDBRANCH  25  26
ENDBRANCH  23  25
ENDBRANCH  22  23
ENDBRANCH   4  22
TORSDOF 7
ENDMDL
