MODEL 1
REMARK VINA RESULT:    -7.441      0.000      0.000
REMARK INTER + INTRA:         -10.150
REMARK INTER:                  -9.834
REMARK INTRA:                  -0.316
REMARK UNBOUND:                -0.316
REMARK  Name = 
REMARK  6 active torsions:
REMARK  status: ('A' for Active; 'I' for Inactive)
REMARK    1  A    between atoms: N_1  and  C_2
REMARK    2  A    between atoms: C_2  and  C_3
REMARK    3  A    between atoms: C_7  and  C_8
REMARK    4  A    between atoms: C_8  and  O_9
REMARK    5  A    between atoms: O_9  and  C_10
REMARK    6  A    between atoms: C_14  and  C_15
REMARK                            x       y       z     vdW  Elec       q    Type
REMARK                         _______ _______ _______ _____ _____    ______ ____
ROOT
ATOM      1  O   UNL     1      43.640   3.288  10.295  0.00  0.00    +0.000 OA
ENDROOT
BRANCH   1   2
ATOM      2  C   UNL     1      44.623   3.222   9.357  0.00  0.00    +0.000 A 
ATOM      3  C   UNL     1      45.001   4.441   8.803  0.00  0.00    +0.000 A 
ATOM      4  N   UNL     1      45.955   4.590   7.855  0.00  0.00    +0.000 NA
ATOM      5  C   UNL     1      46.564   3.456   7.435  0.00  0.00    +0.000 A 
ATOM      6  C   UNL     1      46.264   2.188   7.916  0.00  0.00    +0.000 A 
ATOM      7  C   UNL     1      45.272   2.079   8.904  0.00  0.00    +0.000 A 
BRANCH   6   8
ATOM      8  C   UNL     1      46.931   0.956   7.431  0.00  0.00    +0.000 C 
ATOM      9  N   UNL     1      47.817   1.039   6.393  0.00  0.00    +0.000 N 
ATOM     10  O   UNL     1      46.695  -0.132   7.944  0.00  0.00    +0.000 OA
ATOM     11  H   UNL     1      48.077   1.874   5.893  0.00  0.00    +0.000 HD
ATOM     12  H   UNL     1      48.238   0.168   6.091  0.00  0.00    +0.000 HD
ENDBRANCH   6   8
ENDBRANCH   1   2
BRANCH   1  13
ATOM     13  C   UNL     1      43.922   2.783  11.605  0.00  0.00    +0.000 C 
BRANCH  13  18
ATOM     14  C   UNL     1      45.604   5.942  12.916  0.00  0.00    +0.000 A 
ATOM     15  C   UNL     1      46.653   5.359  13.627  0.00  0.00    +0.000 A 
ATOM     16  C   UNL     1      46.760   3.977  13.642  0.00  0.00    +0.000 A 
ATOM     17  N   UNL     1      45.905   3.146  13.004  0.00  0.00    +0.000 NA
ATOM     18  C   UNL     1      44.893   3.714  12.301  0.00  0.00    +0.000 A 
ATOM     19  C   UNL     1      44.710   5.098  12.253  0.00  0.00    +0.000 A 
BRANCH  14  20
ATOM     20  C   UNL     1      45.428   7.436  12.868  0.00  0.00    +0.000 C 
BRANCH  20  21
ATOM     21  N   UNL     1      44.483   7.830  11.832  0.00  0.00    +0.000 NA
ATOM     22  H   UNL     1      43.539   7.600  12.139  0.00  0.00    +0.000 HD
ATOM     23  H   UNL     1      44.654   7.269  10.998  0.00  0.00    +0.000 HD
ENDBRANCH  20  21
ENDBRANCH  14  20
ENDBRANCH  13  18
ENDBRANCH   1  13
TORSDOF 6
ENDMDL
MODEL 2
REMARK VINA RESULT:    -7.298      1.795      2.764
REMARK INTER + INTRA:          -9.961
REMARK INTER:                  -9.486
REMARK INTRA:                  -0.474
REMARK UNBOUND:                -0.316
REMARK  Name = 
REMARK  6 active torsions:
REMARK  status: ('A' for Active; 'I' for Inactive)
REMARK    1  A    between atoms: N_1  and  C_2
REMARK    2  A    between atoms: C_2  and  C_3
REMARK    3  A    between atoms: C_7  and  C_8
REMARK    4  A    between atoms: C_8  and  O_9
REMARK    5  A    between atoms: O_9  and  C_10
REMARK    6  A    between atoms: C_14  and  C_15
REMARK                            x       y       z     vdW  Elec       q    Type
REMARK                         _______ _______ _______ _____ _____    ______ ____
ROOT
ATOM      1  O   UNL     1      44.152   4.553   9.224  0.00  0.00    +0.000 OA
ENDROOT
BRANCH   1   2
ATOM      2  C   UNL     1      44.906   3.556   8.687  0.00  0.00    +0.000 A 
ATOM      3  C   UNL     1      44.750   2.306   9.278  0.00  0.00    +0.000 A 
ATOM      4  N   UNL     1      45.410   1.189   8.895  0.00  0.00    +0.000 NA
ATOM      5  C   UNL     1      46.275   1.328   7.864  0.00  0.00    +0.000 A 
ATOM      6  C   UNL     1      46.512   2.527   7.204  0.00  0.00    +0.000 A 
ATOM      7  C   UNL     1      45.802   3.661   7.629  0.00  0.00    +0.000 A 
BRANCH   6   8
ATOM      8  C   UNL     1      47.478   2.663   6.087  0.00  0.00    +0.000 C 
ATOM      9  N   UNL     1      48.818   2.600   6.349  0.00  0.00    +0.000 N 
ATOM     10  O   UNL     1      47.091   2.836   4.937  0.00  0.00    +0.000 OA
ATOM     11  H   UNL     1      49.246   2.472   7.253  0.00  0.00    +0.000 HD
ATOM     12  H   UNL     1      49.437   2.710   5.555  0.00  0.00    +0.000 HD
ENDBRANCH   6   8
ENDBRANCH   1   2
BRANCH   1  13
ATOM     13  C   UNL     1      43.800   4.462  10.609  0.00  0.00    +0.000 C 
BRANCH  13  18
ATOM     14  C   UNL     1      46.353   5.214  13.338  0.00  0.00    +0.000 A 
ATOM     15  C   UNL     1      46.808   6.452  12.885  0.00  0.00    +0.000 A 
ATOM     16  C   UNL     1      46.263   6.976  11.723  0.00  0.00    +0.000 A 
ATOM     17  N   UNL     1      45.307   6.360  10.992  0.00  0.00    +0.000 NA
ATOM     18  C   UNL     1      44.855   5.162  11.440  0.00  0.00    +0.000 A 
ATOM     19  C   UNL     1      45.368   4.561  12.592  0.00  0.00    +0.000 A 
BRANCH  14  20
ATOM     20  C   UNL     1      46.910   4.586  14.587  0.00  0.00    +0.000 C 
BRANCH  20  21
ATOM     21  N   UNL     1      47.362   3.222  14.346  0.00  0.00    +0.000 NA
ATOM     22  H   UNL     1      47.137   2.963  13.387  0.00  0.00    +0.000 HD
ATOM     23  H   UNL     1      46.831   2.589  14.943  0.00  0.00    +0.000 HD
ENDBRANCH  20  21
ENDBRANCH  14  20
ENDBRANCH  13  18
ENDBRANCH   1  13
TORSDOF 6
ENDMDL
MODEL 3
REMARK VINA RESULT:    -7.090      2.063      6.204
REMARK INTER + INTRA:          -9.686
REMARK INTER:                  -9.256
REMARK INTRA:                  -0.430
REMARK UNBOUND:                -0.316
REMARK  Name = 
REMARK  6 active torsions:
REMARK  status: ('A' for Active; 'I' for Inactive)
REMARK    1  A    between atoms: N_1  and  C_2
REMARK    2  A    between atoms: C_2  and  C_3
REMARK    3  A    between atoms: C_7  and  C_8
REMARK    4  A    between atoms: C_8  and  O_9
REMARK    5  A    between atoms: O_9  and  C_10
REMARK    6  A    between atoms: C_14  and  C_15
REMARK                            x       y       z     vdW  Elec       q    Type
REMARK                         _______ _______ _______ _____ _____    ______ ____
ROOT
ATOM      1  O   UNL     1      44.200   3.972  10.638  0.00  0.00    +0.000 OA
ENDROOT
BRANCH   1   2
ATOM      2  C   UNL     1      45.090   4.575  11.472  0.00  0.00    +0.000 A 
ATOM      3  C   UNL     1      45.504   5.845  11.084  0.00  0.00    +0.000 A 
ATOM      4  N   UNL     1      46.384   6.608  11.771  0.00  0.00    +0.000 NA
ATOM      5  C   UNL     1      46.881   6.071  12.910  0.00  0.00    +0.000 A 
ATOM      6  C   UNL     1      46.542   4.812  13.389  0.00  0.00    +0.000 A 
ATOM      7  C   UNL     1      45.620   4.056  12.648  0.00  0.00    +0.000 A 
BRANCH   6   8
ATOM      8  C   UNL     1      47.110   4.234  14.630  0.00  0.00    +0.000 C 
ATOM      9  N   UNL     1      47.182   5.005  15.756  0.00  0.00    +0.000 N 
ATOM     10  O   UNL     1      47.519   3.079  14.657  0.00  0.00    +0.000 OA
ATOM     11  H   UNL     1      46.887   5.965  15.845  0.00  0.00    +0.000 HD
ATOM     12  H   UNL     1      47.589   4.569  16.575  0.00  0.00    +0.000 HD
ENDBRANCH   6   8
ENDBRANCH   1   2
BRANCH   1  13
ATOM     13  C   UNL     1      44.264   4.284   9.242  0.00  0.00    +0.000 C 
BRANCH  13  18
ATOM     14  C   UNL     1      46.628   2.602   6.771  0.00  0.00    +0.000 A 
ATOM     15  C   UNL     1      46.646   1.318   7.316  0.00  0.00    +0.000 A 
ATOM     16  C   UNL     1      45.892   1.067   8.451  0.00  0.00    +0.000 A 
ATOM     17  N   UNL     1      45.129   1.994   9.072  0.00  0.00    +0.000 NA
ATOM     18  C   UNL     1      45.101   3.239   8.534  0.00  0.00    +0.000 A 
ATOM     19  C   UNL     1      45.848   3.574   7.402  0.00  0.00    +0.000 A 
BRANCH  14  20
ATOM     20  C   UNL     1      47.432   2.942   5.544  0.00  0.00    +0.000 C 
BRANCH  20  21
ATOM     21  N   UNL     1      48.265   1.823   5.123  0.00  0.00    +0.000 NA
ATOM     22  H   UNL     1      48.695   1.401   5.945  0.00  0.00    +0.000 HD
ATOM     23  H   UNL     1      49.031   2.180   4.553  0.00  0.00    +0.000 HD
ENDBRANCH  20  21
ENDBRANCH  14  20
ENDBRANCH  13  18
ENDBRANCH   1  13
TORSDOF 6
ENDMDL
MODEL 4
REMARK VINA RESULT:    -6.626      1.831      6.484
REMARK INTER + INTRA:          -9.073
REMARK INTER:                  -8.847
REMARK INTRA:                  -0.226
REMARK UNBOUND:                -0.316
REMARK  Name = 
REMARK  6 active torsions:
REMARK  status: ('A' for Active; 'I' for Inactive)
REMARK    1  A    between atoms: N_1  and  C_2
REMARK    2  A    between atoms: C_2  and  C_3
REMARK    3  A    between atoms: C_7  and  C_8
REMARK    4  A    between atoms: C_8  and  O_9
REMARK    5  A    between atoms: O_9  and  C_10
REMARK    6  A    between atoms: C_14  and  C_15
REMARK                            x       y       z     vdW  Elec       q    Type
REMARK                         _______ _______ _______ _____ _____    ______ ____
ROOT
ATOM      1  O   UNL     1      43.958   3.910  10.936  0.00  0.00    +0.000 OA
ENDROOT
BRANCH   1   2
ATOM      2  C   UNL     1      44.883   4.367  11.823  0.00  0.00    +0.000 A 
ATOM      3  C   UNL     1      45.452   3.398  12.644  0.00  0.00    +0.000 A 
ATOM      4  N   UNL     1      46.386   3.647  13.591  0.00  0.00    +0.000 NA
ATOM      5  C   UNL     1      46.772   4.937  13.727  0.00  0.00    +0.000 A 
ATOM      6  C   UNL     1      46.268   5.984  12.965  0.00  0.00    +0.000 A 
ATOM      7  C   UNL     1      45.306   5.681  11.989  0.00  0.00    +0.000 A 
BRANCH   6   8
ATOM      8  C   UNL     1      46.692   7.394  13.141  0.00  0.00    +0.000 C 
ATOM      9  N   UNL     1      47.419   7.742  14.245  0.00  0.00    +0.000 N 
ATOM     10  O   UNL     1      46.395   8.249  12.314  0.00  0.00    +0.000 OA
ATOM     11  H   UNL     1      47.709   7.128  14.989  0.00  0.00    +0.000 HD
ATOM     12  H   UNL     1      47.675   8.719  14.325  0.00  0.00    +0.000 HD
ENDBRANCH   6   8
ENDBRANCH   1   2
BRANCH   1  13
ATOM     13  C   UNL     1      44.219   2.671  10.267  0.00  0.00    +0.000 C 
BRANCH  13  18
ATOM     14  C   UNL     1      46.680   2.099   7.412  0.00  0.00    +0.000 A 
ATOM     15  C   UNL     1      46.831   3.416   6.978  0.00  0.00    +0.000 A 
ATOM     16  C   UNL     1      46.131   4.416   7.634  0.00  0.00    +0.000 A 
ATOM     17  N   UNL     1      45.302   4.198   8.679  0.00  0.00    +0.000 NA
ATOM     18  C   UNL     1      45.166   2.919   9.109  0.00  0.00    +0.000 A 
ATOM     19  C   UNL     1      45.824   1.855   8.490  0.00  0.00    +0.000 A 
BRANCH  14  20
ATOM     20  C   UNL     1      47.406   0.966   6.738  0.00  0.00    +0.000 C 
BRANCH  20  21
ATOM     21  N   UNL     1      48.353   1.453   5.744  0.00  0.00    +0.000 NA
ATOM     22  H   UNL     1      49.245   0.979   5.874  0.00  0.00    +0.000 HD
ATOM     23  H   UNL     1      48.530   2.443   5.915  0.00  0.00    +0.000 HD
ENDBRANCH  20  21
ENDBRANCH  14  20
ENDBRANCH  13  18
ENDBRANCH   1  13
TORSDOF 6
ENDMDL
MODEL 5
REMARK VINA RESULT:    -6.516      2.114      2.317
REMARK INTER + INTRA:          -8.927
REMARK INTER:                  -8.555
REMARK INTRA:                  -0.372
REMARK UNBOUND:                -0.316
REMARK  Name = 
REMARK  6 active torsions:
REMARK  status: ('A' for Active; 'I' for Inactive)
REMARK    1  A    between atoms: N_1  and  C_2
REMARK    2  A    between atoms: C_2  and  C_3
REMARK    3  A    between atoms: C_7  and  C_8
REMARK    4  A    between atoms: C_8  and  O_9
REMARK    5  A    between atoms: O_9  and  C_10
REMARK    6  A    between atoms: C_14  and  C_15
REMARK                            x       y       z     vdW  Elec       q    Type
REMARK                         _______ _______ _______ _____ _____    ______ ____
ROOT
ATOM      1  O   UNL     1      44.524   4.693   9.184  0.00  0.00    +0.000 OA
ENDROOT
BRANCH   1   2
ATOM      2  C   UNL     1      45.154   3.612   8.649  0.00  0.00    +0.000 A 
ATOM      3  C   UNL     1      44.851   2.391   9.241  0.00  0.00    +0.000 A 
ATOM      4  N   UNL     1      45.372   1.203   8.859  0.00  0.00    +0.000 NA
ATOM      5  C   UNL     1      46.249   1.236   7.828  0.00  0.00    +0.000 A 
ATOM      6  C   UNL     1      46.626   2.398   7.167  0.00  0.00    +0.000 A 
ATOM      7  C   UNL     1      46.056   3.609   7.591  0.00  0.00    +0.000 A 
BRANCH   6   8
ATOM      8  C   UNL     1      47.601   2.417   6.050  0.00  0.00    +0.000 C 
ATOM      9  N   UNL     1      48.919   2.668   6.316  0.00  0.00    +0.000 N 
ATOM     10  O   UNL     1      47.241   2.217   4.896  0.00  0.00    +0.000 OA
ATOM     11  H   UNL     1      49.322   2.854   7.220  0.00  0.00    +0.000 HD
ATOM     12  H   UNL     1      49.544   2.681   5.518  0.00  0.00    +0.000 HD
ENDBRANCH   6   8
ENDBRANCH   1   2
BRANCH   1  13
ATOM     13  C   UNL     1      44.009   4.582  10.515  0.00  0.00    +0.000 C 
BRANCH  13  18
ATOM     14  C   UNL     1      46.981   6.315  12.157  0.00  0.00    +0.000 A 
ATOM     15  C   UNL     1      47.021   5.604  13.357  0.00  0.00    +0.000 A 
ATOM     16  C   UNL     1      46.086   4.602  13.567  0.00  0.00    +0.000 A 
ATOM     17  N   UNL     1      45.127   4.264  12.677  0.00  0.00    +0.000 NA
ATOM     18  C   UNL     1      45.097   4.947  11.505  0.00  0.00    +0.000 A 
ATOM     19  C   UNL     1      45.994   5.981  11.227  0.00  0.00    +0.000 A 
BRANCH  14  20
ATOM     20  C   UNL     1      47.962   7.420  11.871  0.00  0.00    +0.000 C 
BRANCH  20  21
ATOM     21  N   UNL     1      49.113   7.358  12.761  0.00  0.00    +0.000 NA
ATOM     22  H   UNL     1      49.646   6.514  12.557  0.00  0.00    +0.000 HD
ATOM     23  H   UNL     1      48.783   7.259  13.721  0.00  0.00    +0.000 HD
ENDBRANCH  20  21
ENDBRANCH  14  20
ENDBRANCH  13  18
ENDBRANCH   1  13
TORSDOF 6
ENDMDL
MODEL 6
REMARK VINA RESULT:    -6.430      3.431      5.146
REMARK INTER + INTRA:          -8.814
REMARK INTER:                  -8.526
REMARK INTRA:                  -0.288
REMARK UNBOUND:                -0.316
REMARK  Name = 
REMARK  6 active torsions:
REMARK  status: ('A' for Active; 'I' for Inactive)
REMARK    1  A    between atoms: N_1  and  C_2
REMARK    2  A    between atoms: C_2  and  C_3
REMARK    3  A    between atoms: C_7  and  C_8
REMARK    4  A    between atoms: C_8  and  O_9
REMARK    5  A    between atoms: O_9  and  C_10
REMARK    6  A    between atoms: C_14  and  C_15
REMARK                            x       y       z     vdW  Elec       q    Type
REMARK                         _______ _______ _______ _____ _____    ______ ____
ROOT
ATOM      1  O   UNL     1      45.684   3.885  13.909  0.00  0.00    +0.000 OA
ENDROOT
BRANCH   1   2
ATOM      2  C   UNL     1      44.985   4.257  12.803  0.00  0.00    +0.000 A 
ATOM      3  C   UNL     1      43.755   4.859  13.049  0.00  0.00    +0.000 A 
ATOM      4  N   UNL     1      42.909   5.297  12.088  0.00  0.00    +0.000 NA
ATOM      5  C   UNL     1      43.314   5.121  10.808  0.00  0.00    +0.000 A 
ATOM      6  C   UNL     1      44.518   4.530  10.448  0.00  0.00    +0.000 A 
ATOM      7  C   UNL     1      45.370   4.095  11.476  0.00  0.00    +0.000 A 
BRANCH   6   8
ATOM      8  C   UNL     1      44.937   4.330   9.039  0.00  0.00    +0.000 C 
ATOM      9  N   UNL     1      44.320   3.369   8.287  0.00  0.00    +0.000 N 
ATOM     10  O   UNL     1      45.828   5.010   8.545  0.00  0.00    +0.000 OA
ATOM     11  H   UNL     1      43.586   2.749   8.592  0.00  0.00    +0.000 HD
ATOM     12  H   UNL     1      44.649   3.264   7.335  0.00  0.00    +0.000 HD
ENDBRANCH   6   8
ENDBRANCH   1   2
BRANCH   1  13
ATOM     13  C   UNL     1      46.588   4.834  14.487  0.00  0.00    +0.000 C 
BRANCH  13  18
ATOM     14  C   UNL     1      48.382   4.105  17.771  0.00  0.00    +0.000 A 
ATOM     15  C   UNL     1      48.885   2.838  17.475  0.00  0.00    +0.000 A 
ATOM     16  C   UNL     1      48.619   2.291  16.230  0.00  0.00    +0.000 A 
ATOM     17  N   UNL     1      47.895   2.910  15.271  0.00  0.00    +0.000 NA
ATOM     18  C   UNL     1      47.417   4.148  15.554  0.00  0.00    +0.000 A 
ATOM     19  C   UNL     1      47.629   4.759  16.792  0.00  0.00    +0.000 A 
BRANCH  14  20
ATOM     20  C   UNL     1      48.628   4.752  19.107  0.00  0.00    +0.000 C 
BRANCH  20  21
ATOM     21  N   UNL     1      48.521   3.790  20.195  0.00  0.00    +0.000 NA
ATOM     22  H   UNL     1      47.540   3.558  20.338  0.00  0.00    +0.000 HD
ATOM     23  H   UNL     1      48.837   4.232  21.058  0.00  0.00    +0.000 HD
ENDBRANCH  20  21
ENDBRANCH  14  20
ENDBRANCH  13  18
ENDBRANCH   1  13
TORSDOF 6
ENDMDL
MODEL 7
REMARK VINA RESULT:    -6.228      3.334      6.890
REMARK INTER + INTRA:          -8.547
REMARK INTER:                  -8.116
REMARK INTRA:                  -0.431
REMARK UNBOUND:                -0.316
REMARK  Name = 
REMARK  6 active torsions:
REMARK  status: ('A' for Active; 'I' for Inactive)
REMARK    1  A    between atoms: N_1  and  C_2
REMARK    2  A    between atoms: C_2  and  C_3
REMARK    3  A    between atoms: C_7  and  C_8
REMARK    4  A    between atoms: C_8  and  O_9
REMARK    5  A    between atoms: O_9  and  C_10
REMARK    6  A    between atoms: C_14  and  C_15
REMARK                            x       y       z     vdW  Elec       q    Type
REMARK                         _______ _______ _______ _____ _____    ______ ____
ROOT
ATOM      1  O   UNL     1      46.698   5.825  13.276  0.00  0.00    +0.000 OA
ENDROOT
BRANCH   1   2
ATOM      2  C   UNL     1      47.374   5.596  14.435  0.00  0.00    +0.000 A 
ATOM      3  C   UNL     1      48.443   6.452  14.680  0.00  0.00    +0.000 A 
ATOM      4  N   UNL     1      49.241   6.389  15.771  0.00  0.00    +0.000 NA
ATOM      5  C   UNL     1      48.957   5.415  16.666  0.00  0.00    +0.000 A 
ATOM      6  C   UNL     1      47.918   4.504  16.520  0.00  0.00    +0.000 A 
ATOM      7  C   UNL     1      47.110   4.608  15.377  0.00  0.00    +0.000 A 
BRANCH   6   8
ATOM      8  C   UNL     1      47.633   3.432  17.504  0.00  0.00    +0.000 C 
ATOM      9  N   UNL     1      48.581   3.108  18.435  0.00  0.00    +0.000 N 
ATOM     10  O   UNL     1      46.565   2.831  17.489  0.00  0.00    +0.000 OA
ATOM     11  H   UNL     1      49.492   3.527  18.532  0.00  0.00    +0.000 HD
ATOM     12  H   UNL     1      48.343   2.361  19.077  0.00  0.00    +0.000 HD
ENDBRANCH   6   8
ENDBRANCH   1   2
BRANCH   1  13
ATOM     13  C   UNL     1      45.267   5.786  13.311  0.00  0.00    +0.000 C 
BRANCH  13  18
ATOM     14  C   UNL     1      44.705   3.743  10.143  0.00  0.00    +0.000 A 
ATOM     15  C   UNL     1      43.889   2.739  10.665  0.00  0.00    +0.000 A 
ATOM     16  C   UNL     1      43.564   2.780  12.011  0.00  0.00    +0.000 A 
ATOM     17  N   UNL     1      43.990   3.739  12.863  0.00  0.00    +0.000 NA
ATOM     18  C   UNL     1      44.772   4.723  12.352  0.00  0.00    +0.000 A 
ATOM     19  C   UNL     1      45.157   4.741  11.010  0.00  0.00    +0.000 A 
BRANCH  14  20
ATOM     20  C   UNL     1      45.101   3.752   8.691  0.00  0.00    +0.000 C 
BRANCH  20  21
ATOM     21  N   UNL     1      45.775   4.992   8.327  0.00  0.00    +0.000 NA
ATOM     22  H   UNL     1      46.284   5.343   9.137  0.00  0.00    +0.000 HD
ATOM     23  H   UNL     1      45.071   5.696   8.107  0.00  0.00    +0.000 HD
ENDBRANCH  20  21
ENDBRANCH  14  20
ENDBRANCH  13  18
ENDBRANCH   1  13
TORSDOF 6
ENDMDL
MODEL 8
REMARK VINA RESULT:    -6.172      4.237      5.849
REMARK INTER + INTRA:          -8.472
REMARK INTER:                  -8.094
REMARK INTRA:                  -0.378
REMARK UNBOUND:                -0.316
REMARK  Name = 
REMARK  6 active torsions:
REMARK  status: ('A' for Active; 'I' for Inactive)
REMARK    1  A    between atoms: N_1  and  C_2
REMARK    2  A    between atoms: C_2  and  C_3
REMARK    3  A    between atoms: C_7  and  C_8
REMARK    4  A    between atoms: C_8  and  O_9
REMARK    5  A    between atoms: O_9  and  C_10
REMARK    6  A    between atoms: C_14  and  C_15
REMARK                            x       y       z     vdW  Elec       q    Type
REMARK                         _______ _______ _______ _____ _____    ______ ____
ROOT
ATOM      1  O   UNL     1      47.491   4.782  13.601  0.00  0.00    +0.000 OA
ENDROOT
BRANCH   1   2
ATOM      2  C   UNL     1      46.571   5.568  12.979  0.00  0.00    +0.000 A 
ATOM      3  C   UNL     1      46.877   6.924  12.936  0.00  0.00    +0.000 A 
ATOM      4  N   UNL     1      46.093   7.869  12.368  0.00  0.00    +0.000 NA
ATOM      5  C   UNL     1      44.937   7.436  11.813  0.00  0.00    +0.000 A 
ATOM      6  C   UNL     1      44.530   6.108  11.803  0.00  0.00    +0.000 A 
ATOM      7  C   UNL     1      45.376   5.157  12.398  0.00  0.00    +0.000 A 
BRANCH   6   8
ATOM      8  C   UNL     1      43.252   5.654  11.205  0.00  0.00    +0.000 C 
ATOM      9  N   UNL     1      42.071   6.078  11.748  0.00  0.00    +0.000 N 
ATOM     10  O   UNL     1      43.240   4.902  10.237  0.00  0.00    +0.000 OA
ATOM     11  H   UNL     1      41.962   6.686  12.545  0.00  0.00    +0.000 HD
ATOM     12  H   UNL     1      41.225   5.732  11.311  0.00  0.00    +0.000 HD
ENDBRANCH   6   8
ENDBRANCH   1   2
BRANCH   1  13
ATOM     13  C   UNL     1      47.032   3.594  14.255  0.00  0.00    +0.000 C 
BRANCH  13  18
ATOM     14  C   UNL     1      48.051   4.193  17.879  0.00  0.00    +0.000 A 
ATOM     15  C   UNL     1      48.966   3.151  18.030  0.00  0.00    +0.000 A 
ATOM     16  C   UNL     1      49.205   2.314  16.951  0.00  0.00    +0.000 A 
ATOM     17  N   UNL     1      48.603   2.442  15.748  0.00  0.00    +0.000 NA
ATOM     18  C   UNL     1      47.723   3.463  15.597  0.00  0.00    +0.000 A 
ATOM     19  C   UNL     1      47.417   4.338  16.643  0.00  0.00    +0.000 A 
BRANCH  14  20
ATOM     20  C   UNL     1      47.741   5.131  19.014  0.00  0.00    +0.000 C 
BRANCH  20  21
ATOM     21  N   UNL     1      46.366   5.609  18.954  0.00  0.00    +0.000 NA
ATOM     22  H   UNL     1      46.105   5.985  19.864  0.00  0.00    +0.000 HD
ATOM     23  H   UNL     1      45.749   4.814  18.788  0.00  0.00    +0.000 HD
ENDBRANCH  20  21
ENDBRANCH  14  20
ENDBRANCH  13  18
ENDBRANCH   1  13
TORSDOF 6
ENDMDL
MODEL 9
REMARK VINA RESULT:    -6.101      2.034      2.595
REMARK INTER + INTRA:          -8.378
REMARK INTER:                  -7.809
REMARK INTRA:                  -0.569
REMARK UNBOUND:                -0.316
REMARK  Name = 
REMARK  6 active torsions:
REMARK  status: ('A' for Active; 'I' for Inactive)
REMARK    1  A    between atoms: N_1  and  C_2
REMARK    2  A    between atoms: C_2  and  C_3
REMARK    3  A    between atoms: C_7  and  C_8
REMARK    4  A    between atoms: C_8  and  O_9
REMARK    5  A    between atoms: O_9  and  C_10
REMARK    6  A    between atoms: C_14  and  C_15
REMARK                            x       y       z     vdW  Elec       q    Type
REMARK                         _______ _______ _______ _____ _____    ______ ____
ROOT
ATOM      1  O   UNL     1      43.693   5.526  11.102  0.00  0.00    +0.000 OA
ENDROOT
BRANCH   1   2
ATOM      2  C   UNL     1      44.111   4.464  10.362  0.00  0.00    +0.000 A 
ATOM      3  C   UNL     1      43.589   3.231  10.741  0.00  0.00    +0.000 A 
ATOM      4  N   UNL     1      43.881   2.056  10.137  0.00  0.00    +0.000 NA
ATOM      5  C   UNL     1      44.745   2.116   9.097  0.00  0.00    +0.000 A 
ATOM      6  C   UNL     1      45.329   3.289   8.637  0.00  0.00    +0.000 A 
ATOM      7  C   UNL     1      44.994   4.488   9.288  0.00  0.00    +0.000 A 
BRANCH   6   8
ATOM      8  C   UNL     1      46.288   3.332   7.507  0.00  0.00    +0.000 C 
ATOM      9  N   UNL     1      47.044   2.228   7.228  0.00  0.00    +0.000 N 
ATOM     10  O   UNL     1      46.413   4.343   6.826  0.00  0.00    +0.000 OA
ATOM     11  H   UNL     1      47.030   1.351   7.726  0.00  0.00    +0.000 HD
ATOM     12  H   UNL     1      47.692   2.310   6.454  0.00  0.00    +0.000 HD
ENDBRANCH   6   8
ENDBRANCH   1   2
BRANCH   1  13
ATOM     13  C   UNL     1      43.822   5.449  12.526  0.00  0.00    +0.000 C 
BRANCH  13  18
ATOM     14  C   UNL     1      47.097   7.363  12.901  0.00  0.00    +0.000 A 
ATOM     15  C   UNL     1      47.792   6.462  13.708  0.00  0.00    +0.000 A 
ATOM     16  C   UNL     1      47.165   5.285  14.084  0.00  0.00    +0.000 A 
ATOM     17  N   UNL     1      45.909   4.948  13.716  0.00  0.00    +0.000 NA
ATOM     18  C   UNL     1      45.237   5.818  12.921  0.00  0.00    +0.000 A 
ATOM     19  C   UNL     1      45.796   7.032  12.514  0.00  0.00    +0.000 A 
BRANCH  14  20
ATOM     20  C   UNL     1      47.719   8.663  12.465  0.00  0.00    +0.000 C 
BRANCH  20  21
ATOM     21  N   UNL     1      47.091   9.803  13.119  0.00  0.00    +0.000 NA
ATOM     22  H   UNL     1      47.307   9.775  14.114  0.00  0.00    +0.000 HD
ATOM     23  H   UNL     1      46.078   9.708  13.046  0.00  0.00    +0.000 HD
ENDBRANCH  20  21
ENDBRANCH  14  20
ENDBRANCH  13  18
ENDBRANCH   1  13
TORSDOF 6
ENDMDL
