MODEL 1
REMARK VINA RESULT:    -8.139      0.000      0.000
REMARK INTER + INTRA:         -12.618
REMARK INTER:                 -11.470
REMARK INTRA:                  -1.148
REMARK UNBOUND:                -1.148
REMARK  Name = 
REMARK  8 active torsions:
REMARK  status: ('A' for Active; 'I' for Inactive)
REMARK    1  A    between atoms: C_1  and  C_2
REMARK    2  A    between atoms: C_2  and  C_3
REMARK    3  A    between atoms: C_2  and  C_14
REMARK    4  A    between atoms: C_3  and  O_4
REMARK    5  A    between atoms: O_4  and  C_5
REMARK    6  A    between atoms: C_8  and  C_9
REMARK    7  A    between atoms: C_18  and  O_19
REMARK    8  A    between atoms: O_19  and  C_20
REMARK                            x       y       z     vdW  Elec       q    Type
REMARK                         _______ _______ _______ _____ _____    ______ ____
ROOT
ATOM      1  C   UNL     1      42.776   5.364  12.296  0.00  0.00    +0.000 C 
ATOM      2  C   UNL     1      43.985   4.475  12.375  0.00  0.00    +0.000 C 
ENDROOT
BRANCH   2   3
ATOM      3  C   UNL     1      45.267   5.152  12.662  0.00  0.00    +0.000 A 
ATOM      4  C   UNL     1      45.739   6.108  11.755  0.00  0.00    +0.000 A 
ATOM      5  C   UNL     1      47.022   6.632  11.881  0.00  0.00    +0.000 A 
ATOM      6  C   UNL     1      47.837   6.237  12.938  0.00  0.00    +0.000 A 
ATOM      7  C   UNL     1      47.352   5.366  13.913  0.00  0.00    +0.000 A 
ATOM      8  C   UNL     1      46.072   4.814  13.765  0.00  0.00    +0.000 A 
BRANCH   7   9
ATOM      9  O   UNL     1      48.074   4.958  15.009  0.00  0.00    +0.000 OA
BRANCH   9  10
ATOM     10  C   UNL     1      47.361   4.136  15.949  0.00  0.00    +0.000 C 
ATOM     11  C   UNL     1      47.356   4.763  17.335  0.00  0.00    +0.000 C 
ATOM     12  C   UNL     1      48.534   4.131  18.049  0.00  0.00    +0.000 C 
ATOM     13  N   UNL     1      48.693   2.789  17.492  0.00  0.00    +0.000 NA
ATOM     14  C   UNL     1      48.096   2.806  16.147  0.00  0.00    +0.000 C 
ATOM     15  H   UNL     1      48.197   2.114  18.074  0.00  0.00    +0.000 HD
ENDBRANCH   9  10
ENDBRANCH   7   9
ENDBRANCH   2   3
BRANCH   2  16
ATOM     16  C   UNL     1      43.976   3.222  11.549  0.00  0.00    +0.000 C 
BRANCH  16  17
ATOM     17  O   UNL     1      43.597   3.514  10.197  0.00  0.00    +0.000 OA
BRANCH  17  18
ATOM     18  C   UNL     1      44.589   3.140   9.315  0.00  0.00    +0.000 A 
ATOM     19  C   UNL     1      45.198   4.134   8.564  0.00  0.00    +0.000 A 
ATOM     20  C   UNL     1      46.213   3.760   7.676  0.00  0.00    +0.000 A 
ATOM     21  C   UNL     1      46.581   2.416   7.564  0.00  0.00    +0.000 A 
ATOM     22  C   UNL     1      45.905   1.504   8.355  0.00  0.00    +0.000 A 
ATOM     23  N   UNL     1      44.924   1.837   9.222  0.00  0.00    +0.000 NA
BRANCH  21  24
ATOM     24  C   UNL     1      47.654   2.015   6.623  0.00  0.00    +0.000 C 
ATOM     25  N   UNL     1      48.784   2.778   6.535  0.00  0.00    +0.000 N 
ATOM     26  O   UNL     1      47.538   1.013   5.922  0.00  0.00    +0.000 OA
ATOM     27  H   UNL     1      48.979   3.625   7.043  0.00  0.00    +0.000 HD
ATOM     28  H   UNL     1      49.486   2.467   5.871  0.00  0.00    +0.000 HD
ENDBRANCH  21  24
ENDBRANCH  17  18
ENDBRANCH  16  17
ENDBRANCH   2  16
TORSDOF 7
ENDMDL
MODEL 2
REMARK VINA RESULT:    -7.384      2.750      4.105
REMARK INTER + INTRA:         -11.554
REMARK INTER:                 -10.653
REMARK INTRA:                  -0.901
REMARK UNBOUND:                -1.148
REMARK  Name = 
REMARK  8 active torsions:
REMARK  status: ('A' for Active; 'I' for Inactive)
REMARK    1  A    between atoms: C_1  and  C_2
REMARK    2  A    between atoms: C_2  and  C_3
REMARK    3  A    between atoms: C_2  and  C_14
REMARK    4  A    between atoms: C_3  and  O_4
REMARK    5  A    between atoms: O_4  and  C_5
REMARK    6  A    between atoms: C_8  and  C_9
REMARK    7  A    between atoms: C_18  and  O_19
REMARK    8  A    between atoms: O_19  and  C_20
REMARK                            x       y       z     vdW  Elec       q    Type
REMARK                         _______ _______ _______ _____ _____    ______ ____
ROOT
ATOM      1  C   UNL     1      42.829   4.748  13.208  0.00  0.00    +0.000 C 
ATOM      2  C   UNL     1      43.946   4.137  12.411  0.00  0.00    +0.000 C 
ENDROOT
BRANCH   2   3
ATOM      3  C   UNL     1      45.275   4.761  12.577  0.00  0.00    +0.000 A 
ATOM      4  C   UNL     1      46.261   4.063  13.285  0.00  0.00    +0.000 A 
ATOM      5  C   UNL     1      47.459   4.681  13.629  0.00  0.00    +0.000 A 
ATOM      6  C   UNL     1      47.705   5.994  13.237  0.00  0.00    +0.000 A 
ATOM      7  C   UNL     1      46.784   6.675  12.442  0.00  0.00    +0.000 A 
ATOM      8  C   UNL     1      45.564   6.062  12.125  0.00  0.00    +0.000 A 
BRANCH   7   9
ATOM      9  O   UNL     1      46.965   7.956  11.978  0.00  0.00    +0.000 OA
BRANCH   9  10
ATOM     10  C   UNL     1      46.503   9.001  12.850  0.00  0.00    +0.000 C 
ATOM     11  C   UNL     1      45.229   9.641  12.317  0.00  0.00    +0.000 C 
ATOM     12  C   UNL     1      45.702  10.844  11.526  0.00  0.00    +0.000 C 
ATOM     13  N   UNL     1      46.936  11.306  12.160  0.00  0.00    +0.000 NA
ATOM     14  C   UNL     1      47.513  10.153  12.871  0.00  0.00    +0.000 C 
ATOM     15  H   UNL     1      46.723  12.044  12.830  0.00  0.00    +0.000 HD
ENDBRANCH   9  10
ENDBRANCH   7   9
ENDBRANCH   2   3
BRANCH   2  16
ATOM     16  C   UNL     1      43.589   3.486  11.106  0.00  0.00    +0.000 C 
BRANCH  16  17
ATOM     17  O   UNL     1      43.941   4.340  10.007  0.00  0.00    +0.000 OA
BRANCH  17  18
ATOM     18  C   UNL     1      44.837   3.716   9.166  0.00  0.00    +0.000 A 
ATOM     19  C   UNL     1      44.977   2.339   9.272  0.00  0.00    +0.000 A 
ATOM     20  C   UNL     1      45.877   1.701   8.412  0.00  0.00    +0.000 A 
ATOM     21  C   UNL     1      46.606   2.451   7.484  0.00  0.00    +0.000 A 
ATOM     22  C   UNL     1      46.394   3.818   7.465  0.00  0.00    +0.000 A 
ATOM     23  N   UNL     1      45.530   4.460   8.281  0.00  0.00    +0.000 NA
BRANCH  21  24
ATOM     24  C   UNL     1      47.563   1.779   6.573  0.00  0.00    +0.000 C 
ATOM     25  N   UNL     1      48.759   2.380   6.299  0.00  0.00    +0.000 N 
ATOM     26  O   UNL     1      47.294   0.695   6.061  0.00  0.00    +0.000 OA
ATOM     27  H   UNL     1      49.076   3.272   6.644  0.00  0.00    +0.000 HD
ATOM     28  H   UNL     1      49.377   1.886   5.665  0.00  0.00    +0.000 HD
ENDBRANCH  21  24
ENDBRANCH  17  18
ENDBRANCH  16  17
ENDBRANCH   2  16
TORSDOF 7
ENDMDL
MODEL 3
REMARK VINA RESULT:    -7.256      3.558      5.713
REMARK INTER + INTRA:         -11.373
REMARK INTER:                 -10.429
REMARK INTRA:                  -0.945
REMARK UNBOUND:                -1.148
REMARK  Name = 
REMARK  8 active torsions:
REMARK  status: ('A' for Active; 'I' for Inactive)
REMARK    1  A    between atoms: C_1  and  C_2
REMARK    2  A    between atoms: C_2  and  C_3
REMARK    3  A    between atoms: C_2  and  C_14
REMARK    4  A    between atoms: C_3  and  O_4
REMARK    5  A    between atoms: O_4  and  C_5
REMARK    6  A    between atoms: C_8  and  C_9
REMARK    7  A    between atoms: C_18  and  O_19
REMARK    8  A    between atoms: O_19  and  C_20
REMARK                            x       y       z     vdW  Elec       q    Type
REMARK                         _______ _______ _______ _____ _____    ______ ____
ROOT
ATOM      1  C   UNL     1      45.703   4.191  12.617  0.00  0.00    +0.000 C 
ATOM      2  C   UNL     1      45.076   5.161  11.656  0.00  0.00    +0.000 C 
ENDROOT
BRANCH   2   3
ATOM      3  C   UNL     1      45.517   6.566  11.775  0.00  0.00    +0.000 A 
ATOM      4  C   UNL     1      46.810   6.825  12.246  0.00  0.00    +0.000 A 
ATOM      5  C   UNL     1      47.205   8.123  12.554  0.00  0.00    +0.000 A 
ATOM      6  C   UNL     1      46.326   9.186  12.360  0.00  0.00    +0.000 A 
ATOM      7  C   UNL     1      45.071   8.966  11.793  0.00  0.00    +0.000 A 
ATOM      8  C   UNL     1      44.663   7.653  11.516  0.00  0.00    +0.000 A 
BRANCH   7   9
ATOM      9  O   UNL     1      44.160   9.960  11.530  0.00  0.00    +0.000 OA
BRANCH   9  10
ATOM     10  C   UNL     1      43.258   9.701  10.441  0.00  0.00    +0.000 C 
ATOM     11  C   UNL     1      43.519  10.639   9.273  0.00  0.00    +0.000 C 
ATOM     12  C   UNL     1      42.555  11.790   9.477  0.00  0.00    +0.000 C 
ATOM     13  N   UNL     1      41.381  11.240  10.153  0.00  0.00    +0.000 NA
ATOM     14  C   UNL     1      41.820  10.026  10.861  0.00  0.00    +0.000 C 
ATOM     15  H   UNL     1      40.672  10.991   9.464  0.00  0.00    +0.000 HD
ENDBRANCH   9  10
ENDBRANCH   7   9
ENDBRANCH   2   3
BRANCH   2  16
ATOM     16  C   UNL     1      43.687   4.857  11.175  0.00  0.00    +0.000 C 
BRANCH  16  17
ATOM     17  O   UNL     1      43.622   4.936   9.744  0.00  0.00    +0.000 OA
BRANCH  17  18
ATOM     18  C   UNL     1      44.487   4.035   9.161  0.00  0.00    +0.000 A 
ATOM     19  C   UNL     1      44.369   2.699   9.516  0.00  0.00    +0.000 A 
ATOM     20  C   UNL     1      45.238   1.780   8.919  0.00  0.00    +0.000 A 
ATOM     21  C   UNL     1      46.192   2.220   7.997  0.00  0.00    +0.000 A 
ATOM     22  C   UNL     1      46.229   3.574   7.718  0.00  0.00    +0.000 A 
ATOM     23  N   UNL     1      45.402   4.484   8.277  0.00  0.00    +0.000 NA
BRANCH  21  24
ATOM     24  C   UNL     1      47.117   1.250   7.364  0.00  0.00    +0.000 C 
ATOM     25  N   UNL     1      48.079   1.706   6.506  0.00  0.00    +0.000 N 
ATOM     26  O   UNL     1      47.028   0.047   7.596  0.00  0.00    +0.000 OA
ATOM     27  H   UNL     1      48.232   2.662   6.228  0.00  0.00    +0.000 HD
ATOM     28  H   UNL     1      48.682   1.003   6.092  0.00  0.00    +0.000 HD
ENDBRANCH  21  24
ENDBRANCH  17  18
ENDBRANCH  16  17
ENDBRANCH   2  16
TORSDOF 7
ENDMDL
MODEL 4
REMARK VINA RESULT:    -7.104      2.485      3.055
REMARK INTER + INTRA:         -11.159
REMARK INTER:                 -10.418
REMARK INTRA:                  -0.741
REMARK UNBOUND:                -1.148
REMARK  Name = 
REMARK  8 active torsions:
REMARK  status: ('A' for Active; 'I' for Inactive)
REMARK    1  A    between atoms: C_1  and  C_2
REMARK    2  A    between atoms: C_2  and  C_3
REMARK    3  A    between atoms: C_2  and  C_14
REMARK    4  A    between atoms: C_3  and  O_4
REMARK    5  A    between atoms: O_4  and  C_5
REMARK    6  A    between atoms: C_8  and  C_9
REMARK    7  A    between atoms: C_18  and  O_19
REMARK    8  A    between atoms: O_19  and  C_20
REMARK                            x       y       z     vdW  Elec       q    Type
REMARK                         _______ _______ _______ _____ _____    ______ ____
ROOT
ATOM      1  C   UNL     1      45.919   3.231  12.855  0.00  0.00    +0.000 C 
ATOM      2  C   UNL     1      45.088   4.029  11.891  0.00  0.00    +0.000 C 
ENDROOT
BRANCH   2   3
ATOM      3  C   UNL     1      45.206   5.498  11.997  0.00  0.00    +0.000 A 
ATOM      4  C   UNL     1      44.147   6.291  11.539  0.00  0.00    +0.000 A 
ATOM      5  C   UNL     1      44.285   7.672  11.443  0.00  0.00    +0.000 A 
ATOM      6  C   UNL     1      45.471   8.285  11.840  0.00  0.00    +0.000 A 
ATOM      7  C   UNL     1      46.501   7.528  12.397  0.00  0.00    +0.000 A 
ATOM      8  C   UNL     1      46.372   6.133  12.461  0.00  0.00    +0.000 A 
BRANCH   7   9
ATOM      9  O   UNL     1      47.686   8.056  12.851  0.00  0.00    +0.000 OA
BRANCH   9  10
ATOM     10  C   UNL     1      48.769   7.120  12.988  0.00  0.00    +0.000 C 
ATOM     11  C   UNL     1      49.353   7.154  14.392  0.00  0.00    +0.000 C 
ATOM     12  C   UNL     1      50.520   8.117  14.302  0.00  0.00    +0.000 C 
ATOM     13  N   UNL     1      51.040   8.022  12.939  0.00  0.00    +0.000 NA
ATOM     14  C   UNL     1      49.939   7.536  12.091  0.00  0.00    +0.000 C 
ATOM     15  H   UNL     1      51.809   7.354  12.910  0.00  0.00    +0.000 HD
ENDBRANCH   9  10
ENDBRANCH   7   9
ENDBRANCH   2   3
BRANCH   2  16
ATOM     16  C   UNL     1      43.798   3.420  11.422  0.00  0.00    +0.000 C 
BRANCH  16  17
ATOM     17  O   UNL     1      43.536   3.788  10.060  0.00  0.00    +0.000 OA
BRANCH  17  18
ATOM     18  C   UNL     1      44.510   3.294   9.219  0.00  0.00    +0.000 A 
ATOM     19  C   UNL     1      45.153   4.188   8.375  0.00  0.00    +0.000 A 
ATOM     20  C   UNL     1      46.150   3.692   7.528  0.00  0.00    +0.000 A 
ATOM     21  C   UNL     1      46.468   2.331   7.547  0.00  0.00    +0.000 A 
ATOM     22  C   UNL     1      45.763   1.526   8.423  0.00  0.00    +0.000 A 
ATOM     23  N   UNL     1      44.798   1.977   9.254  0.00  0.00    +0.000 NA
BRANCH  21  24
ATOM     24  C   UNL     1      47.522   1.801   6.649  0.00  0.00    +0.000 C 
ATOM     25  N   UNL     1      48.651   2.540   6.436  0.00  0.00    +0.000 N 
ATOM     26  O   UNL     1      47.392   0.713   6.095  0.00  0.00    +0.000 OA
ATOM     27  H   UNL     1      48.857   3.449   6.820  0.00  0.00    +0.000 HD
ATOM     28  H   UNL     1      49.340   2.140   5.808  0.00  0.00    +0.000 HD
ENDBRANCH  21  24
ENDBRANCH  17  18
ENDBRANCH  16  17
ENDBRANCH   2  16
TORSDOF 7
ENDMDL
MODEL 5
REMARK VINA RESULT:    -6.881      1.879      8.049
REMARK INTER + INTRA:         -10.844
REMARK INTER:                  -9.942
REMARK INTRA:                  -0.902
REMARK UNBOUND:                -1.148
REMARK  Name = 
REMARK  8 active torsions:
REMARK  status: ('A' for Active; 'I' for Inactive)
REMARK    1  A    between atoms: C_1  and  C_2
REMARK    2  A    between atoms: C_2  and  C_3
REMARK    3  A    between atoms: C_2  and  C_14
REMARK    4  A    between atoms: C_3  and  O_4
REMARK    5  A    between atoms: O_4  and  C_5
REMARK    6  A    between atoms: C_8  and  C_9
REMARK    7  A    between atoms: C_18  and  O_19
REMARK    8  A    between atoms: O_19  and  C_20
REMARK                            x       y       z     vdW  Elec       q    Type
REMARK                         _______ _______ _______ _____ _____    ______ ____
ROOT
ATOM      1  C   UNL     1      44.742   7.313  11.528  0.00  0.00    +0.000 C 
ATOM      2  C   UNL     1      45.750   6.382  10.916  0.00  0.00    +0.000 C 
ENDROOT
BRANCH   2   3
ATOM      3  C   UNL     1      45.208   5.144  10.319  0.00  0.00    +0.000 A 
ATOM      4  C   UNL     1      44.461   4.280  11.128  0.00  0.00    +0.000 A 
ATOM      5  C   UNL     1      44.092   3.019  10.668  0.00  0.00    +0.000 A 
ATOM      6  C   UNL     1      44.431   2.620   9.378  0.00  0.00    +0.000 A 
ATOM      7  C   UNL     1      45.082   3.502   8.517  0.00  0.00    +0.000 A 
ATOM      8  C   UNL     1      45.483   4.758   8.994  0.00  0.00    +0.000 A 
BRANCH   7   9
ATOM      9  O   UNL     1      45.417   3.204   7.218  0.00  0.00    +0.000 OA
BRANCH   9  10
ATOM     10  C   UNL     1      46.826   3.146   6.939  0.00  0.00    +0.000 C 
ATOM     11  C   UNL     1      47.099   3.264   5.447  0.00  0.00    +0.000 C 
ATOM     12  C   UNL     1      47.191   1.833   4.956  0.00  0.00    +0.000 C 
ATOM     13  N   UNL     1      47.709   1.039   6.069  0.00  0.00    +0.000 NA
ATOM     14  C   UNL     1      47.378   1.764   7.307  0.00  0.00    +0.000 C 
ATOM     15  H   UNL     1      48.721   0.953   5.989  0.00  0.00    +0.000 HD
ENDBRANCH   9  10
ENDBRANCH   7   9
ENDBRANCH   2   3
BRANCH   2  16
ATOM     16  C   UNL     1      47.133   6.380  11.500  0.00  0.00    +0.000 C 
BRANCH  16  17
ATOM     17  O   UNL     1      47.161   7.126  12.726  0.00  0.00    +0.000 OA
BRANCH  17  18
ATOM     18  C   UNL     1      47.378   6.295  13.804  0.00  0.00    +0.000 A 
ATOM     19  C   UNL     1      46.746   5.059  13.809  0.00  0.00    +0.000 A 
ATOM     20  C   UNL     1      46.973   4.208  14.895  0.00  0.00    +0.000 A 
ATOM     21  C   UNL     1      47.814   4.614  15.936  0.00  0.00    +0.000 A 
ATOM     22  C   UNL     1      48.389   5.869  15.835  0.00  0.00    +0.000 A 
ATOM     23  N   UNL     1      48.190   6.710  14.797  0.00  0.00    +0.000 NA
BRANCH  21  24
ATOM     24  C   UNL     1      48.055   3.717  17.091  0.00  0.00    +0.000 C 
ATOM     25  N   UNL     1      47.040   2.919  17.539  0.00  0.00    +0.000 N 
ATOM     26  O   UNL     1      49.149   3.684  17.649  0.00  0.00    +0.000 OA
ATOM     27  H   UNL     1      46.102   2.876  17.174  0.00  0.00    +0.000 HD
ATOM     28  H   UNL     1      47.251   2.328  18.337  0.00  0.00    +0.000 HD
ENDBRANCH  21  24
ENDBRANCH  17  18
ENDBRANCH  16  17
ENDBRANCH   2  16
TORSDOF 7
ENDMDL
MODEL 6
REMARK VINA RESULT:    -6.480      3.293      7.651
REMARK INTER + INTRA:         -10.280
REMARK INTER:                  -9.143
REMARK INTRA:                  -1.137
REMARK UNBOUND:                -1.148
REMARK  Name = 
REMARK  8 active torsions:
REMARK  status: ('A' for Active; 'I' for Inactive)
REMARK    1  A    between atoms: C_1  and  C_2
REMARK    2  A    between atoms: C_2  and  C_3
REMARK    3  A    between atoms: C_2  and  C_14
REMARK    4  A    between atoms: C_3  and  O_4
REMARK    5  A    between atoms: O_4  and  C_5
REMARK    6  A    between atoms: C_8  and  C_9
REMARK    7  A    between atoms: C_18  and  O_19
REMARK    8  A    between atoms: O_19  and  C_20
REMARK                            x       y       z     vdW  Elec       q    Type
REMARK                         _______ _______ _______ _____ _____    ______ ____
ROOT
ATOM      1  C   UNL     1      49.894   9.312  11.708  0.00  0.00    +0.000 C 
ATOM      2  C   UNL     1      49.149   8.089  12.162  0.00  0.00    +0.000 C 
ENDROOT
BRANCH   2   3
ATOM      3  C   UNL     1      47.687   8.104  11.944  0.00  0.00    +0.000 A 
ATOM      4  C   UNL     1      46.975   9.269  12.256  0.00  0.00    +0.000 A 
ATOM      5  C   UNL     1      45.584   9.273  12.247  0.00  0.00    +0.000 A 
ATOM      6  C   UNL     1      44.884   8.123  11.890  0.00  0.00    +0.000 A 
ATOM      7  C   UNL     1      45.571   6.983  11.474  0.00  0.00    +0.000 A 
ATOM      8  C   UNL     1      46.972   6.971  11.516  0.00  0.00    +0.000 A 
BRANCH   7   9
ATOM      9  O   UNL     1      44.959   5.821  11.067  0.00  0.00    +0.000 OA
BRANCH   9  10
ATOM     10  C   UNL     1      44.499   4.961  12.122  0.00  0.00    +0.000 C 
ATOM     11  C   UNL     1      45.107   3.571  12.006  0.00  0.00    +0.000 C 
ATOM     12  C   UNL     1      44.083   2.765  11.233  0.00  0.00    +0.000 C 
ATOM     13  N   UNL     1      42.773   3.325  11.559  0.00  0.00    +0.000 NA
ATOM     14  C   UNL     1      42.992   4.718  11.982  0.00  0.00    +0.000 C 
ATOM     15  H   UNL     1      42.355   2.800  12.327  0.00  0.00    +0.000 HD
ENDBRANCH   9  10
ENDBRANCH   7   9
ENDBRANCH   2   3
BRANCH   2  16
ATOM     16  C   UNL     1      49.718   7.322  13.320  0.00  0.00    +0.000 C 
BRANCH  16  17
ATOM     17  O   UNL     1      49.142   7.775  14.553  0.00  0.00    +0.000 OA
BRANCH  17  18
ATOM     18  C   UNL     1      48.764   6.708  15.341  0.00  0.00    +0.000 A 
ATOM     19  C   UNL     1      49.187   6.696  16.663  0.00  0.00    +0.000 A 
ATOM     20  C   UNL     1      48.796   5.621  17.469  0.00  0.00    +0.000 A 
ATOM     21  C   UNL     1      48.005   4.600  16.934  0.00  0.00    +0.000 A 
ATOM     22  C   UNL     1      47.643   4.707  15.603  0.00  0.00    +0.000 A 
ATOM     23  N   UNL     1      48.003   5.734  14.803  0.00  0.00    +0.000 NA
BRANCH  21  24
ATOM     24  C   UNL     1      47.591   3.458  17.784  0.00  0.00    +0.000 C 
ATOM     25  N   UNL     1      48.313   3.165  18.906  0.00  0.00    +0.000 N 
ATOM     26  O   UNL     1      46.613   2.774  17.491  0.00  0.00    +0.000 OA
ATOM     27  H   UNL     1      49.139   3.642  19.232  0.00  0.00    +0.000 HD
ATOM     28  H   UNL     1      47.996   2.370  19.451  0.00  0.00    +0.000 HD
ENDBRANCH  21  24
ENDBRANCH  17  18
ENDBRANCH  16  17
ENDBRANCH   2  16
TORSDOF 7
ENDMDL
MODEL 7
REMARK VINA RESULT:    -6.346      2.857      4.642
REMARK INTER + INTRA:         -10.090
REMARK INTER:                  -8.856
REMARK INTRA:                  -1.235
REMARK UNBOUND:                -1.148
REMARK  Name = 
REMARK  8 active torsions:
REMARK  status: ('A' for Active; 'I' for Inactive)
REMARK    1  A    between atoms: C_1  and  C_2
REMARK    2  A    between atoms: C_2  and  C_3
REMARK    3  A    between atoms: C_2  and  C_14
REMARK    4  A    between atoms: C_3  and  O_4
REMARK    5  A    between atoms: O_4  and  C_5
REMARK    6  A    between atoms: C_8  and  C_9
REMARK    7  A    between atoms: C_18  and  O_19
REMARK    8  A    between atoms: O_19  and  C_20
REMARK                            x       y       z     vdW  Elec       q    Type
REMARK                         _______ _______ _______ _____ _____    ______ ____
ROOT
ATOM      1  C   UNL     1      49.045   7.757  11.638  0.00  0.00    +0.000 C 
ATOM      2  C   UNL     1      48.028   8.330  12.585  0.00  0.00    +0.000 C 
ENDROOT
BRANCH   2   3
ATOM      3  C   UNL     1      48.256   8.059  14.020  0.00  0.00    +0.000 A 
ATOM      4  C   UNL     1      48.308   9.141  14.907  0.00  0.00    +0.000 A 
ATOM      5  C   UNL     1      48.705   8.956  16.228  0.00  0.00    +0.000 A 
ATOM      6  C   UNL     1      49.020   7.681  16.691  0.00  0.00    +0.000 A 
ATOM      7  C   UNL     1      48.875   6.574  15.856  0.00  0.00    +0.000 A 
ATOM      8  C   UNL     1      48.507   6.767  14.517  0.00  0.00    +0.000 A 
BRANCH   7   9
ATOM      9  O   UNL     1      49.123   5.279  16.244  0.00  0.00    +0.000 OA
BRANCH   9  10
ATOM     10  C   UNL     1      48.588   4.903  17.524  0.00  0.00    +0.000 C 
ATOM     11  C   UNL     1      49.141   3.561  17.980  0.00  0.00    +0.000 C 
ATOM     12  C   UNL     1      48.114   2.544  17.524  0.00  0.00    +0.000 C 
ATOM     13  N   UNL     1      46.817   3.219  17.543  0.00  0.00    +0.000 NA
ATOM     14  C   UNL     1      47.079   4.661  17.411  0.00  0.00    +0.000 C 
ATOM     15  H   UNL     1      46.349   3.040  18.432  0.00  0.00    +0.000 HD
ENDBRANCH   9  10
ENDBRANCH   7   9
ENDBRANCH   2   3
BRANCH   2  16
ATOM     16  C   UNL     1      46.627   8.498  12.075  0.00  0.00    +0.000 C 
BRANCH  16  17
ATOM     17  O   UNL     1      45.692   7.856  12.955  0.00  0.00    +0.000 OA
BRANCH  17  18
ATOM     18  C   UNL     1      45.287   6.642  12.444  0.00  0.00    +0.000 A 
ATOM     19  C   UNL     1      45.171   5.574  13.322  0.00  0.00    +0.000 A 
ATOM     20  C   UNL     1      44.749   4.343  12.809  0.00  0.00    +0.000 A 
ATOM     21  C   UNL     1      44.463   4.216  11.446  0.00  0.00    +0.000 A 
ATOM     22  C   UNL     1      44.617   5.342  10.658  0.00  0.00    +0.000 A 
ATOM     23  N   UNL     1      45.020   6.543  11.126  0.00  0.00    +0.000 NA
BRANCH  21  24
ATOM     24  C   UNL     1      44.019   2.912  10.898  0.00  0.00    +0.000 C 
ATOM     25  N   UNL     1      43.400   2.017  11.724  0.00  0.00    +0.000 N 
ATOM     26  O   UNL     1      44.203   2.627   9.717  0.00  0.00    +0.000 OA
ATOM     27  H   UNL     1      43.214   2.134  12.707  0.00  0.00    +0.000 HD
ATOM     28  H   UNL     1      43.121   1.136  11.304  0.00  0.00    +0.000 HD
ENDBRANCH  21  24
ENDBRANCH  17  18
ENDBRANCH  16  17
ENDBRANCH   2  16
TORSDOF 7
ENDMDL
MODEL 8
REMARK VINA RESULT:    -6.294      1.783      7.979
REMARK INTER + INTRA:         -10.017
REMARK INTER:                  -9.737
REMARK INTRA:                  -0.280
REMARK UNBOUND:                -1.148
REMARK  Name = 
REMARK  8 active torsions:
REMARK  status: ('A' for Active; 'I' for Inactive)
REMARK    1  A    between atoms: C_1  and  C_2
REMARK    2  A    between atoms: C_2  and  C_3
REMARK    3  A    between atoms: C_2  and  C_14
REMARK    4  A    between atoms: C_3  and  O_4
REMARK    5  A    between atoms: O_4  and  C_5
REMARK    6  A    between atoms: C_8  and  C_9
REMARK    7  A    between atoms: C_18  and  O_19
REMARK    8  A    between atoms: O_19  and  C_20
REMARK                            x       y       z     vdW  Elec       q    Type
REMARK                         _______ _______ _______ _____ _____    ______ ____
ROOT
ATOM      1  C   UNL     1      45.253   8.722  12.110  0.00  0.00    +0.000 C 
ATOM      2  C   UNL     1      45.863   7.349  12.142  0.00  0.00    +0.000 C 
ENDROOT
BRANCH   2   3
ATOM      3  C   UNL     1      44.989   6.242  11.699  0.00  0.00    +0.000 A 
ATOM      4  C   UNL     1      43.616   6.328  11.958  0.00  0.00    +0.000 A 
ATOM      5  C   UNL     1      42.783   5.237  11.733  0.00  0.00    +0.000 A 
ATOM      6  C   UNL     1      43.304   4.056  11.209  0.00  0.00    +0.000 A 
ATOM      7  C   UNL     1      44.647   3.982  10.844  0.00  0.00    +0.000 A 
ATOM      8  C   UNL     1      45.491   5.071  11.104  0.00  0.00    +0.000 A 
BRANCH   7   9
ATOM      9  O   UNL     1      45.233   2.872  10.284  0.00  0.00    +0.000 OA
BRANCH   9  10
ATOM     10  C   UNL     1      44.806   2.555   8.948  0.00  0.00    +0.000 C 
ATOM     11  C   UNL     1      45.780   1.603   8.269  0.00  0.00    +0.000 C 
ATOM     12  C   UNL     1      46.722   2.502   7.494  0.00  0.00    +0.000 C 
ATOM     13  N   UNL     1      45.953   3.685   7.110  0.00  0.00    +0.000 NA
ATOM     14  C   UNL     1      44.846   3.811   8.072  0.00  0.00    +0.000 C 
ATOM     15  H   UNL     1      45.574   3.559   6.172  0.00  0.00    +0.000 HD
ENDBRANCH   9  10
ENDBRANCH   7   9
ENDBRANCH   2   3
BRANCH   2  16
ATOM     16  C   UNL     1      46.928   7.088  13.168  0.00  0.00    +0.000 C 
BRANCH  16  17
ATOM     17  O   UNL     1      47.162   5.679  13.301  0.00  0.00    +0.000 OA
BRANCH  17  18
ATOM     18  C   UNL     1      47.500   5.356  14.598  0.00  0.00    +0.000 A 
ATOM     19  C   UNL     1      46.859   4.275  15.186  0.00  0.00    +0.000 A 
ATOM     20  C   UNL     1      47.208   3.938  16.498  0.00  0.00    +0.000 A 
ATOM     21  C   UNL     1      48.174   4.686  17.178  0.00  0.00    +0.000 A 
ATOM     22  C   UNL     1      48.747   5.747  16.501  0.00  0.00    +0.000 A 
ATOM     23  N   UNL     1      48.433   6.095  15.234  0.00  0.00    +0.000 NA
BRANCH  21  24
ATOM     24  C   UNL     1      48.544   4.333  18.569  0.00  0.00    +0.000 C 
ATOM     25  N   UNL     1      48.243   3.088  19.045  0.00  0.00    +0.000 N 
ATOM     26  O   UNL     1      49.112   5.144  19.297  0.00  0.00    +0.000 OA
ATOM     27  H   UNL     1      47.765   2.354  18.548  0.00  0.00    +0.000 HD
ATOM     28  H   UNL     1      48.509   2.897  20.005  0.00  0.00    +0.000 HD
ENDBRANCH  21  24
ENDBRANCH  17  18
ENDBRANCH  16  17
ENDBRANCH   2  16
TORSDOF 7
ENDMDL
MODEL 9
REMARK VINA RESULT:    -6.087      4.393      7.393
REMARK INTER + INTRA:          -9.726
REMARK INTER:                  -8.643
REMARK INTRA:                  -1.083
REMARK UNBOUND:                -1.148
REMARK  Name = 
REMARK  8 active torsions:
REMARK  status: ('A' for Active; 'I' for Inactive)
REMARK    1  A    between atoms: C_1  and  C_2
REMARK    2  A    between atoms: C_2  and  C_3
REMARK    3  A    between atoms: C_2  and  C_14
REMARK    4  A    between atoms: C_3  and  O_4
REMARK    5  A    between atoms: O_4  and  C_5
REMARK    6  A    between atoms: C_8  and  C_9
REMARK    7  A    between atoms: C_18  and  O_19
REMARK    8  A    between atoms: O_19  and  C_20
REMARK                            x       y       z     vdW  Elec       q    Type
REMARK                         _______ _______ _______ _____ _____    ______ ____
ROOT
ATOM      1  C   UNL     1      49.491   9.508  13.488  0.00  0.00    +0.000 C 
ATOM      2  C   UNL     1      48.796   9.138  12.208  0.00  0.00    +0.000 C 
ENDROOT
BRANCH   2   3
ATOM      3  C   UNL     1      47.795  10.106  11.713  0.00  0.00    +0.000 A 
ATOM      4  C   UNL     1      48.238  11.215  10.983  0.00  0.00    +0.000 A 
ATOM      5  C   UNL     1      47.362  12.247  10.659  0.00  0.00    +0.000 A 
ATOM      6  C   UNL     1      46.022  12.167  11.028  0.00  0.00    +0.000 A 
ATOM      7  C   UNL     1      45.534  11.026  11.663  0.00  0.00    +0.000 A 
ATOM      8  C   UNL     1      46.425  10.003  12.018  0.00  0.00    +0.000 A 
BRANCH   7   9
ATOM      9  O   UNL     1      44.220  10.847  12.025  0.00  0.00    +0.000 OA
BRANCH   9  10
ATOM     10  C   UNL     1      43.257  11.057  10.979  0.00  0.00    +0.000 C 
ATOM     11  C   UNL     1      42.101  11.923  11.459  0.00  0.00    +0.000 C 
ATOM     12  C   UNL     1      41.039  10.938  11.906  0.00  0.00    +0.000 C 
ATOM     13  N   UNL     1      41.197   9.745  11.076  0.00  0.00    +0.000 NA
ATOM     14  C   UNL     1      42.591   9.729  10.603  0.00  0.00    +0.000 C 
ATOM     15  H   UNL     1      40.569   9.798  10.275  0.00  0.00    +0.000 HD
ENDBRANCH   9  10
ENDBRANCH   7   9
ENDBRANCH   2   3
BRANCH   2  16
ATOM     16  C   UNL     1      48.625   7.677  11.912  0.00  0.00    +0.000 C 
BRANCH  16  17
ATOM     17  O   UNL     1      48.097   6.991  13.056  0.00  0.00    +0.000 OA
BRANCH  17  18
ATOM     18  C   UNL     1      47.093   6.120  12.689  0.00  0.00    +0.000 A 
ATOM     19  C   UNL     1      46.834   5.040  13.522  0.00  0.00    +0.000 A 
ATOM     20  C   UNL     1      45.809   4.160  13.158  0.00  0.00    +0.000 A 
ATOM     21  C   UNL     1      45.084   4.381  11.984  0.00  0.00    +0.000 A 
ATOM     22  C   UNL     1      45.427   5.485  11.223  0.00  0.00    +0.000 A 
ATOM     23  N   UNL     1      46.409   6.352  11.550  0.00  0.00    +0.000 NA
BRANCH  21  24
ATOM     24  C   UNL     1      43.999   3.450  11.594  0.00  0.00    +0.000 C 
ATOM     25  N   UNL     1      43.747   2.355  12.372  0.00  0.00    +0.000 N 
ATOM     26  O   UNL     1      43.328   3.647  10.583  0.00  0.00    +0.000 OA
ATOM     27  H   UNL     1      44.241   2.084  13.207  0.00  0.00    +0.000 HD
ATOM     28  H   UNL     1      43.000   1.743  12.060  0.00  0.00    +0.000 HD
ENDBRANCH  21  24
ENDBRANCH  17  18
ENDBRANCH  16  17
ENDBRANCH   2  16
TORSDOF 7
ENDMDL
