MODEL 1
REMARK VINA RESULT:    -7.248      0.000      0.000
REMARK INTER + INTRA:         -10.950
REMARK INTER:                 -10.214
REMARK INTRA:                  -0.736
REMARK UNBOUND:                -0.736
REMARK  Name = 
REMARK  9 active torsions:
REMARK  status: ('A' for Active; 'I' for Inactive)
REMARK    1  A    between atoms: C_1  and  C_2
REMARK    2  A    between atoms: CA_4  and  C_5
REMARK    3  A    between atoms: C_5  and  OXT_7
REMARK    4  A    between atoms: C_10  and  C_11
REMARK    5  A    between atoms: C_11  and  C_12
REMARK    6  A    between atoms: C_12  and  C_13
REMARK    7  A    between atoms: C_13  and  C_14
REMARK    8  A    between atoms: C_18  and  C_19
REMARK    9  A    between atoms: C_19  and  N_20
REMARK                            x       y       z     vdW  Elec       q    Type
REMARK                         _______ _______ _______ _____ _____    ______ ____
ROOT
ATOM      1  C   UNL     1      45.313   6.232  11.118  0.00  0.00    +0.000 C 
ENDROOT
BRANCH   1   8
ATOM      2  C   UNL     1      44.295   3.684  12.547  0.00  0.00    +0.000 C 
ATOM      3  C   UNL     1      45.452   4.501  13.043  0.00  0.00    +0.000 A 
ATOM      4  N   UNL     1      46.009   4.034  14.195  0.00  0.00    +0.000 NA
ATOM      5  CA  UNL     1      47.064   4.724  14.710  0.00  0.00    +0.000 A 
ATOM      6  C   UNL     1      47.602   5.857  14.132  0.00  0.00    +0.000 A 
ATOM      7  C   UNL     1      47.019   6.319  12.956  0.00  0.00    +0.000 A 
ATOM      8  C   UNL     1      45.926   5.647  12.380  0.00  0.00    +0.000 A 
BRANCH   5   9
ATOM      9  C   UNL     1      47.628   4.179  15.980  0.00  0.00    +0.000 C 
ATOM     10  O   UNL     1      48.802   4.188  16.286  0.00  0.00    +0.000 OA
BRANCH   9  11
ATOM     11  OXT UNL     1      46.634   3.663  16.750  0.00  0.00    +0.000 OA
ATOM     12  HXT UNL     1      45.902   4.324  16.800  0.00  0.00    +0.000 HD
ENDBRANCH   9  11
ENDBRANCH   5   9
ENDBRANCH   1   8
BRANCH   1  13
ATOM     13  C   UNL     1      45.813   5.501   9.863  0.00  0.00    +0.000 C 
BRANCH  13  14
ATOM     14  C   UNL     1      44.745   4.650   9.159  0.00  0.00    +0.000 C 
BRANCH  14  15
ATOM     15  C   UNL     1      45.372   3.454   8.470  0.00  0.00    +0.000 A 
ATOM     16  C   UNL     1      45.344   2.181   9.052  0.00  0.00    +0.000 A 
ATOM     17  C   UNL     1      45.948   1.093   8.413  0.00  0.00    +0.000 A 
ATOM     18  C   UNL     1      46.580   1.263   7.180  0.00  0.00    +0.000 A 
ATOM     19  C   UNL     1      46.615   2.525   6.573  0.00  0.00    +0.000 A 
ATOM     20  C   UNL     1      46.026   3.614   7.238  0.00  0.00    +0.000 A 
BRANCH  19  21
ATOM     21  C   UNL     1      47.275   2.722   5.231  0.00  0.00    +0.000 C 
BRANCH  21  22
ATOM     22  N   UNL     1      48.415   1.824   5.067  0.00  0.00    +0.000 NA
ATOM     23  H   UNL     1      48.776   1.590   5.990  0.00  0.00    +0.000 HD
ATOM     24  H   UNL     1      49.160   2.312   4.577  0.00  0.00    +0.000 HD
ENDBRANCH  21  22
ENDBRANCH  19  21
ENDBRANCH  14  15
ENDBRANCH  13  14
ENDBRANCH   1  13
TORSDOF 8
ENDMDL
MODEL 2
REMARK VINA RESULT:    -6.968      2.280      3.144
REMARK INTER + INTRA:         -10.556
REMARK INTER:                  -9.378
REMARK INTRA:                  -1.178
REMARK UNBOUND:                -0.736
REMARK  Name = 
REMARK  9 active torsions:
REMARK  status: ('A' for Active; 'I' for Inactive)
REMARK    1  A    between atoms: C_1  and  C_2
REMARK    2  A    between atoms: CA_4  and  C_5
REMARK    3  A    between atoms: C_5  and  OXT_7
REMARK    4  A    between atoms: C_10  and  C_11
REMARK    5  A    between atoms: C_11  and  C_12
REMARK    6  A    between atoms: C_12  and  C_13
REMARK    7  A    between atoms: C_13  and  C_14
REMARK    8  A    between atoms: C_18  and  C_19
REMARK    9  A    between atoms: C_19  and  N_20
REMARK                            x       y       z     vdW  Elec       q    Type
REMARK                         _______ _______ _______ _____ _____    ______ ____
ROOT
ATOM      1  C   UNL     1      43.706   3.879  12.665  0.00  0.00    +0.000 C 
ENDROOT
BRANCH   1   8
ATOM      2  C   UNL     1      46.669   3.509  13.471  0.00  0.00    +0.000 C 
ATOM      3  C   UNL     1      46.075   4.837  13.101  0.00  0.00    +0.000 A 
ATOM      4  N   UNL     1      46.952   5.877  13.169  0.00  0.00    +0.000 NA
ATOM      5  CA  UNL     1      46.486   7.116  12.849  0.00  0.00    +0.000 A 
ATOM      6  C   UNL     1      45.187   7.375  12.456  0.00  0.00    +0.000 A 
ATOM      7  C   UNL     1      44.307   6.300  12.394  0.00  0.00    +0.000 A 
ATOM      8  C   UNL     1      44.733   4.999  12.714  0.00  0.00    +0.000 A 
BRANCH   5   9
ATOM      9  C   UNL     1      47.482   8.222  12.954  0.00  0.00    +0.000 C 
ATOM     10  O   UNL     1      48.667   8.123  12.710  0.00  0.00    +0.000 OA
BRANCH   9  11
ATOM     11  OXT UNL     1      46.873   9.364  13.367  0.00  0.00    +0.000 OA
ATOM     12  HXT UNL     1      46.860  10.002  12.615  0.00  0.00    +0.000 HD
ENDBRANCH   9  11
ENDBRANCH   5   9
ENDBRANCH   1   8
BRANCH   1  13
ATOM     13  C   UNL     1      43.274   3.580  11.221  0.00  0.00    +0.000 C 
BRANCH  13  14
ATOM     14  C   UNL     1      43.991   2.381  10.582  0.00  0.00    +0.000 C 
BRANCH  14  15
ATOM     15  C   UNL     1      44.923   2.834   9.476  0.00  0.00    +0.000 A 
ATOM     16  C   UNL     1      45.063   4.188   9.149  0.00  0.00    +0.000 A 
ATOM     17  C   UNL     1      45.910   4.585   8.109  0.00  0.00    +0.000 A 
ATOM     18  C   UNL     1      46.636   3.634   7.389  0.00  0.00    +0.000 A 
ATOM     19  C   UNL     1      46.519   2.274   7.701  0.00  0.00    +0.000 A 
ATOM     20  C   UNL     1      45.645   1.887   8.732  0.00  0.00    +0.000 A 
BRANCH  19  21
ATOM     21  C   UNL     1      47.311   1.234   6.947  0.00  0.00    +0.000 C 
BRANCH  21  22
ATOM     22  N   UNL     1      48.469   1.829   6.287  0.00  0.00    +0.000 NA
ATOM     23  H   UNL     1      48.136   2.455   5.555  0.00  0.00    +0.000 HD
ATOM     24  H   UNL     1      49.005   1.099   5.826  0.00  0.00    +0.000 HD
ENDBRANCH  21  22
ENDBRANCH  19  21
ENDBRANCH  14  15
ENDBRANCH  13  14
ENDBRANCH   1  13
TORSDOF 8
ENDMDL
MODEL 3
REMARK VINA RESULT:    -6.895      3.819      7.257
REMARK INTER + INTRA:         -10.453
REMARK INTER:                  -9.115
REMARK INTRA:                  -1.337
REMARK UNBOUND:                -0.736
REMARK  Name = 
REMARK  9 active torsions:
REMARK  status: ('A' for Active; 'I' for Inactive)
REMARK    1  A    between atoms: C_1  and  C_2
REMARK    2  A    between atoms: CA_4  and  C_5
REMARK    3  A    between atoms: C_5  and  OXT_7
REMARK    4  A    between atoms: C_10  and  C_11
REMARK    5  A    between atoms: C_11  and  C_12
REMARK    6  A    between atoms: C_12  and  C_13
REMARK    7  A    between atoms: C_13  and  C_14
REMARK    8  A    between atoms: C_18  and  C_19
REMARK    9  A    between atoms: C_19  and  N_20
REMARK                            x       y       z     vdW  Elec       q    Type
REMARK                         _______ _______ _______ _____ _____    ______ ____
ROOT
ATOM      1  C   UNL     1      44.020   3.344  10.257  0.00  0.00    +0.000 C 
ENDROOT
BRANCH   1   8
ATOM      2  C   UNL     1      45.870   5.383   8.847  0.00  0.00    +0.000 C 
ATOM      3  C   UNL     1      45.917   3.907   8.581  0.00  0.00    +0.000 A 
ATOM      4  N   UNL     1      46.836   3.539   7.646  0.00  0.00    +0.000 NA
ATOM      5  CA  UNL     1      46.936   2.213   7.348  0.00  0.00    +0.000 A 
ATOM      6  C   UNL     1      46.170   1.229   7.941  0.00  0.00    +0.000 A 
ATOM      7  C   UNL     1      45.237   1.625   8.894  0.00  0.00    +0.000 A 
ATOM      8  C   UNL     1      45.089   2.979   9.239  0.00  0.00    +0.000 A 
BRANCH   5   9
ATOM      9  C   UNL     1      47.947   1.865   6.308  0.00  0.00    +0.000 C 
ATOM     10  O   UNL     1      47.889   0.906   5.567  0.00  0.00    +0.000 OA
BRANCH   9  11
ATOM     11  OXT UNL     1      48.954   2.778   6.309  0.00  0.00    +0.000 OA
ATOM     12  HXT UNL     1      49.111   3.070   7.238  0.00  0.00    +0.000 HD
ENDBRANCH   9  11
ENDBRANCH   5   9
ENDBRANCH   1   8
BRANCH   1  13
ATOM     13  C   UNL     1      44.446   2.954  11.680  0.00  0.00    +0.000 C 
BRANCH  13  14
ATOM     14  C   UNL     1      44.181   4.034  12.738  0.00  0.00    +0.000 C 
BRANCH  14  15
ATOM     15  C   UNL     1      45.057   5.249  12.505  0.00  0.00    +0.000 A 
ATOM     16  C   UNL     1      46.448   5.185  12.661  0.00  0.00    +0.000 A 
ATOM     17  C   UNL     1      47.238   6.322  12.465  0.00  0.00    +0.000 A 
ATOM     18  C   UNL     1      46.650   7.535  12.101  0.00  0.00    +0.000 A 
ATOM     19  C   UNL     1      45.263   7.623  11.931  0.00  0.00    +0.000 A 
ATOM     20  C   UNL     1      44.478   6.478  12.156  0.00  0.00    +0.000 A 
BRANCH  19  21
ATOM     21  C   UNL     1      44.613   8.920  11.517  0.00  0.00    +0.000 C 
BRANCH  21  22
ATOM     22  N   UNL     1      44.649   9.898  12.600  0.00  0.00    +0.000 NA
ATOM     23  H   UNL     1      43.827  10.496  12.522  0.00  0.00    +0.000 HD
ATOM     24  H   UNL     1      45.460  10.499  12.484  0.00  0.00    +0.000 HD
ENDBRANCH  21  22
ENDBRANCH  19  21
ENDBRANCH  14  15
ENDBRANCH  13  14
ENDBRANCH   1  13
TORSDOF 8
ENDMDL
MODEL 4
REMARK VINA RESULT:    -6.744      2.461      3.914
REMARK INTER + INTRA:         -10.239
REMARK INTER:                  -8.882
REMARK INTRA:                  -1.357
REMARK UNBOUND:                -0.736
REMARK  Name = 
REMARK  9 active torsions:
REMARK  status: ('A' for Active; 'I' for Inactive)
REMARK    1  A    between atoms: C_1  and  C_2
REMARK    2  A    between atoms: CA_4  and  C_5
REMARK    3  A    between atoms: C_5  and  OXT_7
REMARK    4  A    between atoms: C_10  and  C_11
REMARK    5  A    between atoms: C_11  and  C_12
REMARK    6  A    between atoms: C_12  and  C_13
REMARK    7  A    between atoms: C_13  and  C_14
REMARK    8  A    between atoms: C_18  and  C_19
REMARK    9  A    between atoms: C_19  and  N_20
REMARK                            x       y       z     vdW  Elec       q    Type
REMARK                         _______ _______ _______ _____ _____    ______ ____
ROOT
ATOM      1  C   UNL     1      47.329   6.633  12.407  0.00  0.00    +0.000 C 
ENDROOT
BRANCH   1   8
ATOM      2  C   UNL     1      48.732   7.467  15.036  0.00  0.00    +0.000 C 
ATOM      3  C   UNL     1      48.091   6.125  14.833  0.00  0.00    +0.000 A 
ATOM      4  N   UNL     1      48.197   5.291  15.905  0.00  0.00    +0.000 NA
ATOM      5  CA  UNL     1      47.641   4.052  15.796  0.00  0.00    +0.000 A 
ATOM      6  C   UNL     1      46.977   3.600  14.674  0.00  0.00    +0.000 A 
ATOM      7  C   UNL     1      46.880   4.466  13.590  0.00  0.00    +0.000 A 
ATOM      8  C   UNL     1      47.436   5.755  13.645  0.00  0.00    +0.000 A 
BRANCH   5   9
ATOM      9  C   UNL     1      47.797   3.174  16.992  0.00  0.00    +0.000 C 
ATOM     10  O   UNL     1      48.849   2.727  17.402  0.00  0.00    +0.000 OA
BRANCH   9  11
ATOM     11  OXT UNL     1      46.586   2.938  17.562  0.00  0.00    +0.000 OA
ATOM     12  HXT UNL     1      45.927   3.555  17.163  0.00  0.00    +0.000 HD
ENDBRANCH   9  11
ENDBRANCH   5   9
ENDBRANCH   1   8
BRANCH   1  13
ATOM     13  C   UNL     1      46.113   7.567  12.488  0.00  0.00    +0.000 C 
BRANCH  13  14
ATOM     14  C   UNL     1      45.052   7.317  11.406  0.00  0.00    +0.000 C 
BRANCH  14  15
ATOM     15  C   UNL     1      44.463   5.926  11.534  0.00  0.00    +0.000 A 
ATOM     16  C   UNL     1      43.719   5.550  12.659  0.00  0.00    +0.000 A 
ATOM     17  C   UNL     1      43.204   4.255  12.770  0.00  0.00    +0.000 A 
ATOM     18  C   UNL     1      43.418   3.321  11.754  0.00  0.00    +0.000 A 
ATOM     19  C   UNL     1      44.152   3.675  10.615  0.00  0.00    +0.000 A 
ATOM     20  C   UNL     1      44.685   4.973  10.528  0.00  0.00    +0.000 A 
BRANCH  19  21
ATOM     21  C   UNL     1      44.375   2.685   9.499  0.00  0.00    +0.000 C 
BRANCH  21  22
ATOM     22  N   UNL     1      44.436   3.356   8.204  0.00  0.00    +0.000 NA
ATOM     23  H   UNL     1      43.972   4.260   8.286  0.00  0.00    +0.000 HD
ATOM     24  H   UNL     1      43.909   2.818   7.521  0.00  0.00    +0.000 HD
ENDBRANCH  21  22
ENDBRANCH  19  21
ENDBRANCH  14  15
ENDBRANCH  13  14
ENDBRANCH   1  13
TORSDOF 8
ENDMDL
MODEL 5
REMARK VINA RESULT:    -6.296      4.252      6.844
REMARK INTER + INTRA:          -9.608
REMARK INTER:                  -8.462
REMARK INTRA:                  -1.146
REMARK UNBOUND:                -0.736
REMARK  Name = 
REMARK  9 active torsions:
REMARK  status: ('A' for Active; 'I' for Inactive)
REMARK    1  A    between atoms: C_1  and  C_2
REMARK    2  A    between atoms: CA_4  and  C_5
REMARK    3  A    between atoms: C_5  and  OXT_7
REMARK    4  A    between atoms: C_10  and  C_11
REMARK    5  A    between atoms: C_11  and  C_12
REMARK    6  A    between atoms: C_12  and  C_13
REMARK    7  A    between atoms: C_13  and  C_14
REMARK    8  A    between atoms: C_18  and  C_19
REMARK    9  A    between atoms: C_19  and  N_20
REMARK                            x       y       z     vdW  Elec       q    Type
REMARK                         _______ _______ _______ _____ _____    ______ ____
ROOT
ATOM      1  C   UNL     1      48.235   6.561  12.733  0.00  0.00    +0.000 C 
ENDROOT
BRANCH   1   8
ATOM      2  C   UNL     1      46.878   4.616  14.720  0.00  0.00    +0.000 C 
ATOM      3  C   UNL     1      46.292   4.973  13.385  0.00  0.00    +0.000 A 
ATOM      4  N   UNL     1      45.112   4.349  13.111  0.00  0.00    +0.000 NA
ATOM      5  CA  UNL     1      44.518   4.621  11.915  0.00  0.00    +0.000 A 
ATOM      6  C   UNL     1      45.036   5.490  10.976  0.00  0.00    +0.000 A 
ATOM      7  C   UNL     1      46.242   6.118  11.274  0.00  0.00    +0.000 A 
ATOM      8  C   UNL     1      46.900   5.873  12.492  0.00  0.00    +0.000 A 
BRANCH   5   9
ATOM      9  C   UNL     1      43.237   3.901  11.659  0.00  0.00    +0.000 C 
ATOM     10  O   UNL     1      43.138   2.726  11.372  0.00  0.00    +0.000 OA
BRANCH   9  11
ATOM     11  OXT UNL     1      42.187   4.753  11.788  0.00  0.00    +0.000 OA
ATOM     12  HXT UNL     1      42.156   5.336  10.993  0.00  0.00    +0.000 HD
ENDBRANCH   9  11
ENDBRANCH   5   9
ENDBRANCH   1   8
BRANCH   1  13
ATOM     13  C   UNL     1      48.225   8.002  12.202  0.00  0.00    +0.000 C 
BRANCH  13  14
ATOM     14  C   UNL     1      47.348   8.968  13.011  0.00  0.00    +0.000 C 
BRANCH  14  15
ATOM     15  C   UNL     1      46.475   9.804  12.096  0.00  0.00    +0.000 A 
ATOM     16  C   UNL     1      46.964  10.964  11.482  0.00  0.00    +0.000 A 
ATOM     17  C   UNL     1      46.136  11.735  10.659  0.00  0.00    +0.000 A 
ATOM     18  C   UNL     1      44.813  11.352  10.433  0.00  0.00    +0.000 A 
ATOM     19  C   UNL     1      44.303  10.192  11.029  0.00  0.00    +0.000 A 
ATOM     20  C   UNL     1      45.138   9.440  11.873  0.00  0.00    +0.000 A 
BRANCH  19  21
ATOM     21  C   UNL     1      42.881   9.753  10.778  0.00  0.00    +0.000 C 
BRANCH  21  22
ATOM     22  N   UNL     1      42.750   8.303  10.889  0.00  0.00    +0.000 NA
ATOM     23  H   UNL     1      42.221   8.091  11.735  0.00  0.00    +0.000 HD
ATOM     24  H   UNL     1      43.671   7.890  11.010  0.00  0.00    +0.000 HD
ENDBRANCH  21  22
ENDBRANCH  19  21
ENDBRANCH  14  15
ENDBRANCH  13  14
ENDBRANCH   1  13
TORSDOF 8
ENDMDL
MODEL 6
REMARK VINA RESULT:    -6.204      4.965      8.035
REMARK INTER + INTRA:          -9.479
REMARK INTER:                  -8.294
REMARK INTRA:                  -1.185
REMARK UNBOUND:                -0.736
REMARK  Name = 
REMARK  9 active torsions:
REMARK  status: ('A' for Active; 'I' for Inactive)
REMARK    1  A    between atoms: C_1  and  C_2
REMARK    2  A    between atoms: CA_4  and  C_5
REMARK    3  A    between atoms: C_5  and  OXT_7
REMARK    4  A    between atoms: C_10  and  C_11
REMARK    5  A    between atoms: C_11  and  C_12
REMARK    6  A    between atoms: C_12  and  C_13
REMARK    7  A    between atoms: C_13  and  C_14
REMARK    8  A    between atoms: C_18  and  C_19
REMARK    9  A    between atoms: C_19  and  N_20
REMARK                            x       y       z     vdW  Elec       q    Type
REMARK                         _______ _______ _______ _____ _____    ______ ____
ROOT
ATOM      1  C   UNL     1      48.468   7.668  13.247  0.00  0.00    +0.000 C 
ENDROOT
BRANCH   1   8
ATOM      2  C   UNL     1      45.671   8.842  12.641  0.00  0.00    +0.000 C 
ATOM      3  C   UNL     1      45.910   7.389  12.927  0.00  0.00    +0.000 A 
ATOM      4  N   UNL     1      44.781   6.627  12.917  0.00  0.00    +0.000 NA
ATOM      5  CA  UNL     1      44.917   5.295  13.172  0.00  0.00    +0.000 A 
ATOM      6  C   UNL     1      46.125   4.678  13.430  0.00  0.00    +0.000 A 
ATOM      7  C   UNL     1      47.267   5.473  13.436  0.00  0.00    +0.000 A 
ATOM      8  C   UNL     1      47.185   6.854  13.182  0.00  0.00    +0.000 A 
BRANCH   5   9
ATOM      9  C   UNL     1      43.649   4.509  13.163  0.00  0.00    +0.000 C 
ATOM     10  O   UNL     1      43.569   3.310  12.994  0.00  0.00    +0.000 OA
BRANCH   9  11
ATOM     11  OXT UNL     1      42.587   5.331  13.367  0.00  0.00    +0.000 OA
ATOM     12  HXT UNL     1      42.339   5.291  14.322  0.00  0.00    +0.000 HD
ENDBRANCH   9  11
ENDBRANCH   5   9
ENDBRANCH   1   8
BRANCH   1  13
ATOM     13  C   UNL     1      49.422   7.124  14.320  0.00  0.00    +0.000 C 
BRANCH  13  14
ATOM     14  C   UNL     1      49.451   7.947  15.616  0.00  0.00    +0.000 C 
BRANCH  14  15
ATOM     15  C   UNL     1      48.809   7.185  16.758  0.00  0.00    +0.000 A 
ATOM     16  C   UNL     1      48.315   7.846  17.889  0.00  0.00    +0.000 A 
ATOM     17  C   UNL     1      47.747   7.123  18.944  0.00  0.00    +0.000 A 
ATOM     18  C   UNL     1      47.656   5.731  18.876  0.00  0.00    +0.000 A 
ATOM     19  C   UNL     1      48.134   5.048  17.751  0.00  0.00    +0.000 A 
ATOM     20  C   UNL     1      48.726   5.784  16.710  0.00  0.00    +0.000 A 
BRANCH  19  21
ATOM     21  C   UNL     1      48.025   3.546  17.652  0.00  0.00    +0.000 C 
BRANCH  21  22
ATOM     22  N   UNL     1      46.634   3.126  17.515  0.00  0.00    +0.000 NA
ATOM     23  H   UNL     1      46.244   2.992  18.448  0.00  0.00    +0.000 HD
ATOM     24  H   UNL     1      46.599   2.222  17.052  0.00  0.00    +0.000 HD
ENDBRANCH  21  22
ENDBRANCH  19  21
ENDBRANCH  14  15
ENDBRANCH  13  14
ENDBRANCH   1  13
TORSDOF 8
ENDMDL
MODEL 7
REMARK VINA RESULT:    -5.925      4.756      8.030
REMARK INTER + INTRA:          -9.086
REMARK INTER:                  -8.200
REMARK INTRA:                  -0.886
REMARK UNBOUND:                -0.736
REMARK  Name = 
REMARK  9 active torsions:
REMARK  status: ('A' for Active; 'I' for Inactive)
REMARK    1  A    between atoms: C_1  and  C_2
REMARK    2  A    between atoms: CA_4  and  C_5
REMARK    3  A    between atoms: C_5  and  OXT_7
REMARK    4  A    between atoms: C_10  and  C_11
REMARK    5  A    between atoms: C_11  and  C_12
REMARK    6  A    between atoms: C_12  and  C_13
REMARK    7  A    between atoms: C_13  and  C_14
REMARK    8  A    between atoms: C_18  and  C_19
REMARK    9  A    between atoms: C_19  and  N_20
REMARK                            x       y       z     vdW  Elec       q    Type
REMARK                         _______ _______ _______ _____ _____    ______ ____
ROOT
ATOM      1  C   UNL     1      48.293   6.505  13.052  0.00  0.00    +0.000 C 
ENDROOT
BRANCH   1   8
ATOM      2  C   UNL     1      46.901   3.957  14.118  0.00  0.00    +0.000 C 
ATOM      3  C   UNL     1      46.222   4.955  13.227  0.00  0.00    +0.000 A 
ATOM      4  N   UNL     1      44.937   4.634  12.909  0.00  0.00    +0.000 NA
ATOM      5  CA  UNL     1      44.254   5.492  12.100  0.00  0.00    +0.000 A 
ATOM      6  C   UNL     1      44.784   6.662  11.595  0.00  0.00    +0.000 A 
ATOM      7  C   UNL     1      46.097   6.973  11.931  0.00  0.00    +0.000 A 
ATOM      8  C   UNL     1      46.850   6.124  12.760  0.00  0.00    +0.000 A 
BRANCH   5   9
ATOM      9  C   UNL     1      42.857   5.085  11.771  0.00  0.00    +0.000 C 
ATOM     10  O   UNL     1      41.883   5.806  11.839  0.00  0.00    +0.000 OA
BRANCH   9  11
ATOM     11  OXT UNL     1      42.826   3.783  11.386  0.00  0.00    +0.000 OA
ATOM     12  HXT UNL     1      42.133   3.317  11.911  0.00  0.00    +0.000 HD
ENDBRANCH   9  11
ENDBRANCH   5   9
ENDBRANCH   1   8
BRANCH   1  13
ATOM     13  C   UNL     1      48.385   7.483  14.232  0.00  0.00    +0.000 C 
BRANCH  13  14
ATOM     14  C   UNL     1      49.475   7.136  15.258  0.00  0.00    +0.000 C 
BRANCH  14  15
ATOM     15  C   UNL     1      48.869   6.530  16.508  0.00  0.00    +0.000 A 
ATOM     16  C   UNL     1      48.491   7.328  17.595  0.00  0.00    +0.000 A 
ATOM     17  C   UNL     1      47.955   6.749  18.750  0.00  0.00    +0.000 A 
ATOM     18  C   UNL     1      47.782   5.366  18.830  0.00  0.00    +0.000 A 
ATOM     19  C   UNL     1      48.144   4.547  17.753  0.00  0.00    +0.000 A 
ATOM     20  C   UNL     1      48.704   5.140  16.608  0.00  0.00    +0.000 A 
BRANCH  19  21
ATOM     21  C   UNL     1      47.944   3.053  17.814  0.00  0.00    +0.000 C 
BRANCH  21  22
ATOM     22  N   UNL     1      46.531   2.704  17.700  0.00  0.00    +0.000 NA
ATOM     23  H   UNL     1      46.416   1.730  17.977  0.00  0.00    +0.000 HD
ATOM     24  H   UNL     1      46.246   2.767  16.727  0.00  0.00    +0.000 HD
ENDBRANCH  21  22
ENDBRANCH  19  21
ENDBRANCH  14  15
ENDBRANCH  13  14
ENDBRANCH   1  13
TORSDOF 8
ENDMDL
MODEL 8
REMARK VINA RESULT:    -5.679      4.109      7.798
REMARK INTER + INTRA:          -8.739
REMARK INTER:                  -7.814
REMARK INTRA:                  -0.925
REMARK UNBOUND:                -0.736
REMARK  Name = 
REMARK  9 active torsions:
REMARK  status: ('A' for Active; 'I' for Inactive)
REMARK    1  A    between atoms: C_1  and  C_2
REMARK    2  A    between atoms: CA_4  and  C_5
REMARK    3  A    between atoms: C_5  and  OXT_7
REMARK    4  A    between atoms: C_10  and  C_11
REMARK    5  A    between atoms: C_11  and  C_12
REMARK    6  A    between atoms: C_12  and  C_13
REMARK    7  A    between atoms: C_13  and  C_14
REMARK    8  A    between atoms: C_18  and  C_19
REMARK    9  A    between atoms: C_19  and  N_20
REMARK                            x       y       z     vdW  Elec       q    Type
REMARK                         _______ _______ _______ _____ _____    ______ ____
ROOT
ATOM      1  C   UNL     1      47.352   7.316  13.666  0.00  0.00    +0.000 C 
ENDROOT
BRANCH   1   8
ATOM      2  C   UNL     1      44.992   7.827  11.732  0.00  0.00    +0.000 C 
ATOM      3  C   UNL     1      45.383   6.460  12.212  0.00  0.00    +0.000 A 
ATOM      4  N   UNL     1      44.594   5.457  11.737  0.00  0.00    +0.000 NA
ATOM      5  CA  UNL     1      44.885   4.185  12.130  0.00  0.00    +0.000 A 
ATOM      6  C   UNL     1      45.931   3.858  12.971  0.00  0.00    +0.000 A 
ATOM      7  C   UNL     1      46.725   4.896  13.446  0.00  0.00    +0.000 A 
ATOM      8  C   UNL     1      46.469   6.228  13.075  0.00  0.00    +0.000 A 
BRANCH   5   9
ATOM      9  C   UNL     1      43.982   3.126  11.593  0.00  0.00    +0.000 C 
ATOM     10  O   UNL     1      43.571   3.068  10.453  0.00  0.00    +0.000 OA
BRANCH   9  11
ATOM     11  OXT UNL     1      43.679   2.230  12.568  0.00  0.00    +0.000 OA
ATOM     12  HXT UNL     1      42.779   1.865  12.390  0.00  0.00    +0.000 HD
ENDBRANCH   9  11
ENDBRANCH   5   9
ENDBRANCH   1   8
BRANCH   1  13
ATOM     13  C   UNL     1      48.619   6.725  14.300  0.00  0.00    +0.000 C 
BRANCH  13  14
ATOM     14  C   UNL     1      48.716   6.921  15.821  0.00  0.00    +0.000 C 
BRANCH  14  15
ATOM     15  C   UNL     1      48.872   5.591  16.531  0.00  0.00    +0.000 A 
ATOM     16  C   UNL     1      47.774   4.751  16.754  0.00  0.00    +0.000 A 
ATOM     17  C   UNL     1      47.934   3.538  17.432  0.00  0.00    +0.000 A 
ATOM     18  C   UNL     1      49.194   3.145  17.887  0.00  0.00    +0.000 A 
ATOM     19  C   UNL     1      50.309   3.964  17.669  0.00  0.00    +0.000 A 
ATOM     20  C   UNL     1      50.130   5.192  17.009  0.00  0.00    +0.000 A 
BRANCH  19  21
ATOM     21  C   UNL     1      51.681   3.546  18.136  0.00  0.00    +0.000 C 
BRANCH  21  22
ATOM     22  N   UNL     1      51.857   2.101  18.030  0.00  0.00    +0.000 NA
ATOM     23  H   UNL     1      52.239   1.757  18.910  0.00  0.00    +0.000 HD
ATOM     24  H   UNL     1      52.549   1.897  17.313  0.00  0.00    +0.000 HD
ENDBRANCH  21  22
ENDBRANCH  19  21
ENDBRANCH  14  15
ENDBRANCH  13  14
ENDBRANCH   1  13
TORSDOF 8
ENDMDL
MODEL 9
REMARK VINA RESULT:    -5.525      3.839      7.851
REMARK INTER + INTRA:          -8.522
REMARK INTER:                  -7.609
REMARK INTRA:                  -0.912
REMARK UNBOUND:                -0.736
REMARK  Name = 
REMARK  9 active torsions:
REMARK  status: ('A' for Active; 'I' for Inactive)
REMARK    1  A    between atoms: C_1  and  C_2
REMARK    2  A    between atoms: CA_4  and  C_5
REMARK    3  A    between atoms: C_5  and  OXT_7
REMARK    4  A    between atoms: C_10  and  C_11
REMARK    5  A    between atoms: C_11  and  C_12
REMARK    6  A    between atoms: C_12  and  C_13
REMARK    7  A    between atoms: C_13  and  C_14
REMARK    8  A    between atoms: C_18  and  C_19
REMARK    9  A    between atoms: C_19  and  N_20
REMARK                            x       y       z     vdW  Elec       q    Type
REMARK                         _______ _______ _______ _____ _____    ______ ____
ROOT
ATOM      1  C   UNL     1      47.275   7.192  12.768  0.00  0.00    +0.000 C 
ENDROOT
BRANCH   1   8
ATOM      2  C   UNL     1      46.637   4.602  14.336  0.00  0.00    +0.000 C 
ATOM      3  C   UNL     1      46.119   4.879  12.954  0.00  0.00    +0.000 A 
ATOM      4  N   UNL     1      45.354   3.878  12.436  0.00  0.00    +0.000 NA
ATOM      5  CA  UNL     1      44.849   4.054  11.183  0.00  0.00    +0.000 A 
ATOM      6  C   UNL     1      45.061   5.183  10.418  0.00  0.00    +0.000 A 
ATOM      7  C   UNL     1      45.845   6.194  10.964  0.00  0.00    +0.000 A 
ATOM      8  C   UNL     1      46.394   6.066  12.252  0.00  0.00    +0.000 A 
BRANCH   5   9
ATOM      9  C   UNL     1      44.031   2.922  10.658  0.00  0.00    +0.000 C 
ATOM     10  O   UNL     1      44.319   2.235   9.700  0.00  0.00    +0.000 OA
BRANCH   9  11
ATOM     11  OXT UNL     1      42.907   2.771  11.406  0.00  0.00    +0.000 OA
ATOM     12  HXT UNL     1      42.821   1.819  11.653  0.00  0.00    +0.000 HD
ENDBRANCH   9  11
ENDBRANCH   5   9
ENDBRANCH   1   8
BRANCH   1  13
ATOM     13  C   UNL     1      48.757   6.926  12.464  0.00  0.00    +0.000 C 
BRANCH  13  14
ATOM     14  C   UNL     1      49.734   7.783  13.283  0.00  0.00    +0.000 C 
BRANCH  14  15
ATOM     15  C   UNL     1      49.307   7.856  14.735  0.00  0.00    +0.000 A 
ATOM     16  C   UNL     1      48.814   9.043  15.291  0.00  0.00    +0.000 A 
ATOM     17  C   UNL     1      48.447   9.098  16.639  0.00  0.00    +0.000 A 
ATOM     18  C   UNL     1      48.557   7.964  17.447  0.00  0.00    +0.000 A 
ATOM     19  C   UNL     1      49.039   6.763  16.913  0.00  0.00    +0.000 A 
ATOM     20  C   UNL     1      49.429   6.728  15.562  0.00  0.00    +0.000 A 
BRANCH  19  21
ATOM     21  C   UNL     1      49.146   5.523  17.766  0.00  0.00    +0.000 C 
BRANCH  21  22
ATOM     22  N   UNL     1      49.802   4.439  17.041  0.00  0.00    +0.000 NA
ATOM     23  H   UNL     1      50.747   4.331  17.408  0.00  0.00    +0.000 HD
ATOM     24  H   UNL     1      49.896   4.696  16.062  0.00  0.00    +0.000 HD
ENDBRANCH  21  22
ENDBRANCH  19  21
ENDBRANCH  14  15
ENDBRANCH  13  14
ENDBRANCH   1  13
TORSDOF 8
ENDMDL
