MODEL 1
REMARK VINA RESULT:    -7.412      0.000      0.000
REMARK INTER + INTRA:         -12.677
REMARK INTER:                 -11.528
REMARK INTRA:                  -1.149
REMARK UNBOUND:                -1.149
REMARK  Name = 
REMARK  11 active torsions:
REMARK  status: ('A' for Active; 'I' for Inactive)
REMARK    1  A    between atoms: C_1  and  C_2
REMARK    2  A    between atoms: C_7  and  C_8
REMARK    3  A    between atoms: C_8  and  N_9
REMARK    4  A    between atoms: N_9  and  C_10
REMARK    5  A    between atoms: C_10  and  C_11
REMARK    6  A    between atoms: C_14  and  C_15
REMARK    7  A    between atoms: C_15  and  N_16
REMARK    8  A    between atoms: N_16  and  C_17
REMARK    9  A    between atoms: C_17  and  C_18
REMARK   10  A    between atoms: C_18  and  O_19
REMARK   11  A    between atoms: C_20  and  C_22
REMARK                            x       y       z     vdW  Elec       q    Type
REMARK                         _______ _______ _______ _____ _____    ______ ____
ROOT
ATOM      1  C   UNL     1      43.744   3.228  11.165  0.00  0.00    +0.000 C 
ENDROOT
BRANCH   1   5
ATOM      2  C   UNL     1      46.157   2.719   7.616  0.00  0.00    +0.000 A 
ATOM      3  C   UNL     1      45.594   1.608   8.259  0.00  0.00    +0.000 A 
ATOM      4  C   UNL     1      44.724   1.778   9.341  0.00  0.00    +0.000 A 
ATOM      5  C   UNL     1      44.398   3.058   9.806  0.00  0.00    +0.000 A 
ATOM      6  C   UNL     1      44.792   4.161   9.037  0.00  0.00    +0.000 A 
ATOM      7  C   UNL     1      45.679   3.993   7.963  0.00  0.00    +0.000 A 
BRANCH   2   8
ATOM      8  C   UNL     1      47.385   2.567   6.733  0.00  0.00    +0.000 C 
BRANCH   8   9
ATOM      9  N   UNL     1      47.468   1.318   5.974  0.00  0.00    +0.000 NA
ATOM     10  H   UNL     1      48.442   1.029   5.906  0.00  0.00    +0.000 HD
BRANCH   9  11
ATOM     11  C   UNL     1      46.951   1.514   4.600  0.00  0.00    +0.000 C 
BRANCH  11  18
ATOM     12  C   UNL     1      45.222   1.432   2.091  0.00  0.00    +0.000 C 
ATOM     13  C   UNL     1      45.826   0.192   2.694  0.00  0.00    +0.000 A 
ATOM     14  C   UNL     1      45.546  -1.042   2.073  0.00  0.00    +0.000 A 
ATOM     15  C   UNL     1      46.022  -2.239   2.602  0.00  0.00    +0.000 A 
ATOM     16  C   UNL     1      46.763  -2.223   3.775  0.00  0.00    +0.000 A 
ATOM     17  C   UNL     1      47.062  -1.010   4.398  0.00  0.00    +0.000 A 
ATOM     18  C   UNL     1      46.630   0.221   3.863  0.00  0.00    +0.000 A 
ENDBRANCH  11  18
ENDBRANCH   9  11
ENDBRANCH   8   9
ENDBRANCH   2   8
ENDBRANCH   1   5
BRANCH   1  19
ATOM     19  N   UNL     1      44.469   4.197  12.018  0.00  0.00    +0.000 N 
ATOM     20  C   UNL     1      45.717   3.799  12.543  0.00  0.00    +0.000 C 
ATOM     21  O   UNL     1      46.221   2.721  12.235  0.00  0.00    +0.000 OA
BRANCH  20  22
ATOM     22  C   UNL     1      46.423   4.666  13.507  0.00  0.00    +0.000 A 
ATOM     23  C   UNL     1      46.620   4.409  14.861  0.00  0.00    +0.000 A 
ATOM     24  N   UNL     1      47.399   5.399  15.397  0.00  0.00    +0.000 N 
ATOM     25  C   UNL     1      47.793   6.250  14.410  0.00  0.00    +0.000 A 
ATOM     26  N   UNL     1      48.637   7.274  14.602  0.00  0.00    +0.000 NA
ATOM     27  C   UNL     1      48.860   7.960  13.467  0.00  0.00    +0.000 A 
ATOM     28  N   UNL     1      48.309   7.753  12.266  0.00  0.00    +0.000 NA
ATOM     29  C   UNL     1      47.469   6.706  12.153  0.00  0.00    +0.000 A 
ATOM     30 CL   UNL     1      46.682   6.519  10.663  0.00  0.00    +0.000 Cl
ATOM     31  C   UNL     1      47.180   5.864  13.223  0.00  0.00    +0.000 A 
ATOM     32  H   UNL     1      47.694   5.479  16.360  0.00  0.00    +0.000 HD
ENDBRANCH  20  22
BRANCH  19  33
ATOM     33  C   UNL     1      43.852   5.485  12.364  0.00  0.00    +0.000 C 
BRANCH  33  34
ATOM     34  C   UNL     1      42.808   6.114  11.446  0.00  0.00    +0.000 C 
BRANCH  34  35
ATOM     35  O   UNL     1      43.247   7.427  11.095  0.00  0.00    +0.000 OA
ATOM     36  H   UNL     1      43.835   7.337  10.326  0.00  0.00    +0.000 HD
ENDBRANCH  34  35
ENDBRANCH  33  34
ENDBRANCH  19  33
ENDBRANCH   1  19
TORSDOF 10
ENDMDL
MODEL 2
REMARK VINA RESULT:    -7.163      5.567     10.183
REMARK INTER + INTRA:         -12.290
REMARK INTER:                 -10.469
REMARK INTRA:                  -1.821
REMARK UNBOUND:                -1.149
REMARK  Name = 
REMARK  11 active torsions:
REMARK  status: ('A' for Active; 'I' for Inactive)
REMARK    1  A    between atoms: C_1  and  C_2
REMARK    2  A    between atoms: C_7  and  C_8
REMARK    3  A    between atoms: C_8  and  N_9
REMARK    4  A    between atoms: N_9  and  C_10
REMARK    5  A    between atoms: C_10  and  C_11
REMARK    6  A    between atoms: C_14  and  C_15
REMARK    7  A    between atoms: C_15  and  N_16
REMARK    8  A    between atoms: N_16  and  C_17
REMARK    9  A    between atoms: C_17  and  C_18
REMARK   10  A    between atoms: C_18  and  O_19
REMARK   11  A    between atoms: C_20  and  C_22
REMARK                            x       y       z     vdW  Elec       q    Type
REMARK                         _______ _______ _______ _____ _____    ______ ____
ROOT
ATOM      1  C   UNL     1      48.047   8.836  12.842  0.00  0.00    +0.000 C 
ENDROOT
BRANCH   1   5
ATOM      2  C   UNL     1      48.802   8.233  17.054  0.00  0.00    +0.000 A 
ATOM      3  C   UNL     1      48.987   7.186  16.142  0.00  0.00    +0.000 A 
ATOM      4  C   UNL     1      48.851   7.408  14.768  0.00  0.00    +0.000 A 
ATOM      5  C   UNL     1      48.525   8.678  14.274  0.00  0.00    +0.000 A 
ATOM      6  C   UNL     1      48.548   9.758  15.166  0.00  0.00    +0.000 A 
ATOM      7  C   UNL     1      48.666   9.534  16.546  0.00  0.00    +0.000 A 
BRANCH   2   8
ATOM      8  C   UNL     1      48.546   7.946  18.525  0.00  0.00    +0.000 C 
BRANCH   8   9
ATOM      9  N   UNL     1      47.369   7.126  18.814  0.00  0.00    +0.000 NA
ATOM     10  H   UNL     1      46.729   7.652  19.407  0.00  0.00    +0.000 HD
BRANCH   9  11
ATOM     11  C   UNL     1      47.762   5.898  19.544  0.00  0.00    +0.000 C 
BRANCH  11  18
ATOM     12  C   UNL     1      50.650   4.931  19.424  0.00  0.00    +0.000 C 
ATOM     13  C   UNL     1      49.557   4.309  18.597  0.00  0.00    +0.000 A 
ATOM     14  C   UNL     1      49.912   3.260  17.725  0.00  0.00    +0.000 A 
ATOM     15  C   UNL     1      48.970   2.670  16.886  0.00  0.00    +0.000 A 
ATOM     16  C   UNL     1      47.663   3.137  16.889  0.00  0.00    +0.000 A 
ATOM     17  C   UNL     1      47.289   4.166  17.755  0.00  0.00    +0.000 A 
ATOM     18  C   UNL     1      48.211   4.754  18.644  0.00  0.00    +0.000 A 
ENDBRANCH  11  18
ENDBRANCH   9  11
ENDBRANCH   8   9
ENDBRANCH   2   8
ENDBRANCH   1   5
BRANCH   1  19
ATOM     19  N   UNL     1      46.709   8.240  12.630  0.00  0.00    +0.000 N 
ATOM     20  C   UNL     1      46.652   6.967  12.022  0.00  0.00    +0.000 C 
ATOM     21  O   UNL     1      47.676   6.342  11.758  0.00  0.00    +0.000 OA
BRANCH  20  22
ATOM     22  C   UNL     1      45.346   6.380  11.661  0.00  0.00    +0.000 A 
ATOM     23  C   UNL     1      44.369   6.965  10.858  0.00  0.00    +0.000 A 
ATOM     24  N   UNL     1      43.345   6.075  10.678  0.00  0.00    +0.000 N 
ATOM     25  C   UNL     1      43.666   4.889  11.266  0.00  0.00    +0.000 A 
ATOM     26  N   UNL     1      42.903   3.789  11.189  0.00  0.00    +0.000 NA
ATOM     27  C   UNL     1      43.443   2.756  11.859  0.00  0.00    +0.000 A 
ATOM     28  N   UNL     1      44.567   2.752  12.585  0.00  0.00    +0.000 NA
ATOM     29  C   UNL     1      45.277   3.896  12.617  0.00  0.00    +0.000 A 
ATOM     30 CL   UNL     1      46.633   3.922  13.633  0.00  0.00    +0.000 Cl
ATOM     31  C   UNL     1      44.880   5.038  11.927  0.00  0.00    +0.000 A 
ATOM     32  H   UNL     1      42.498   6.230  10.150  0.00  0.00    +0.000 HD
ENDBRANCH  20  22
BRANCH  19  33
ATOM     33  C   UNL     1      45.497   9.000  12.963  0.00  0.00    +0.000 C 
BRANCH  33  34
ATOM     34  C   UNL     1      45.065  10.183  12.102  0.00  0.00    +0.000 C 
BRANCH  34  35
ATOM     35  O   UNL     1      43.663  10.386  12.283  0.00  0.00    +0.000 OA
ATOM     36  H   UNL     1      43.541  11.307  12.568  0.00  0.00    +0.000 HD
ENDBRANCH  34  35
ENDBRANCH  33  34
ENDBRANCH  19  33
ENDBRANCH   1  19
TORSDOF 10
ENDMDL
MODEL 3
REMARK VINA RESULT:    -7.094      3.509      9.598
REMARK INTER + INTRA:         -12.183
REMARK INTER:                  -9.612
REMARK INTRA:                  -2.570
REMARK UNBOUND:                -1.149
REMARK  Name = 
REMARK  11 active torsions:
REMARK  status: ('A' for Active; 'I' for Inactive)
REMARK    1  A    between atoms: C_1  and  C_2
REMARK    2  A    between atoms: C_7  and  C_8
REMARK    3  A    between atoms: C_8  and  N_9
REMARK    4  A    between atoms: N_9  and  C_10
REMARK    5  A    between atoms: C_10  and  C_11
REMARK    6  A    between atoms: C_14  and  C_15
REMARK    7  A    between atoms: C_15  and  N_16
REMARK    8  A    between atoms: N_16  and  C_17
REMARK    9  A    between atoms: C_17  and  C_18
REMARK   10  A    between atoms: C_18  and  O_19
REMARK   11  A    between atoms: C_20  and  C_22
REMARK                            x       y       z     vdW  Elec       q    Type
REMARK                         _______ _______ _______ _____ _____    ______ ____
ROOT
ATOM      1  C   UNL     1      46.198   7.641  13.213  0.00  0.00    +0.000 C 
ENDROOT
BRANCH   1   5
ATOM      2  C   UNL     1      49.528   9.713  11.398  0.00  0.00    +0.000 A 
ATOM      3  C   UNL     1      49.467   8.314  11.380  0.00  0.00    +0.000 A 
ATOM      4  C   UNL     1      48.339   7.645  11.868  0.00  0.00    +0.000 A 
ATOM      5  C   UNL     1      47.250   8.358  12.386  0.00  0.00    +0.000 A 
ATOM      6  C   UNL     1      47.226   9.747  12.210  0.00  0.00    +0.000 A 
ATOM      7  C   UNL     1      48.364  10.420  11.739  0.00  0.00    +0.000 A 
BRANCH   2   8
ATOM      8  C   UNL     1      50.859  10.435  11.262  0.00  0.00    +0.000 C 
BRANCH   8   9
ATOM      9  N   UNL     1      51.920   9.980  12.163  0.00  0.00    +0.000 NA
ATOM     10  H   UNL     1      51.943   8.962  12.171  0.00  0.00    +0.000 HD
BRANCH   9  11
ATOM     11  C   UNL     1      51.657  10.442  13.545  0.00  0.00    +0.000 C 
BRANCH  11  18
ATOM     12  C   UNL     1      49.257  11.443  15.137  0.00  0.00    +0.000 C 
ATOM     13  C   UNL     1      49.643   9.989  15.089  0.00  0.00    +0.000 A 
ATOM     14  C   UNL     1      48.866   9.080  15.837  0.00  0.00    +0.000 A 
ATOM     15  C   UNL     1      49.192   7.727  15.889  0.00  0.00    +0.000 A 
ATOM     16  C   UNL     1      50.313   7.266  15.215  0.00  0.00    +0.000 A 
ATOM     17  C   UNL     1      51.088   8.148  14.459  0.00  0.00    +0.000 A 
ATOM     18  C   UNL     1      50.759   9.514  14.353  0.00  0.00    +0.000 A 
ENDBRANCH  11  18
ENDBRANCH   9  11
ENDBRANCH   8   9
ENDBRANCH   2   8
ENDBRANCH   1   5
BRANCH   1  19
ATOM     19  N   UNL     1      45.990   6.245  12.767  0.00  0.00    +0.000 N 
ATOM     20  C   UNL     1      44.805   5.958  12.056  0.00  0.00    +0.000 C 
ATOM     21  O   UNL     1      44.017   6.849  11.747  0.00  0.00    +0.000 OA
BRANCH  20  22
ATOM     22  C   UNL     1      44.476   4.562  11.703  0.00  0.00    +0.000 A 
ATOM     23  C   UNL     1      43.739   3.666  12.473  0.00  0.00    +0.000 A 
ATOM     24  N   UNL     1      43.567   2.505  11.767  0.00  0.00    +0.000 N 
ATOM     25  C   UNL     1      44.095   2.650  10.520  0.00  0.00    +0.000 A 
ATOM     26  N   UNL     1      44.007   1.716   9.561  0.00  0.00    +0.000 NA
ATOM     27  C   UNL     1      44.613   2.106   8.426  0.00  0.00    +0.000 A 
ATOM     28  N   UNL     1      45.291   3.239   8.209  0.00  0.00    +0.000 NA
ATOM     29  C   UNL     1      45.337   4.125   9.222  0.00  0.00    +0.000 A 
ATOM     30 CL   UNL     1      46.296   5.503   8.984  0.00  0.00    +0.000 Cl
ATOM     31  C   UNL     1      44.710   3.895  10.442  0.00  0.00    +0.000 A 
ATOM     32  H   UNL     1      43.083   1.676  12.080  0.00  0.00    +0.000 HD
ENDBRANCH  20  22
BRANCH  19  33
ATOM     33  C   UNL     1      46.950   5.198  13.138  0.00  0.00    +0.000 C 
BRANCH  33  34
ATOM     34  C   UNL     1      46.878   4.534  14.510  0.00  0.00    +0.000 C 
BRANCH  34  35
ATOM     35  O   UNL     1      47.338   3.187  14.387  0.00  0.00    +0.000 OA
ATOM     36  H   UNL     1      47.814   3.123  13.542  0.00  0.00    +0.000 HD
ENDBRANCH  34  35
ENDBRANCH  33  34
ENDBRANCH  19  33
ENDBRANCH   1  19
TORSDOF 10
ENDMDL
MODEL 4
REMARK VINA RESULT:    -7.018      5.075      8.243
REMARK INTER + INTRA:         -12.064
REMARK INTER:                 -10.716
REMARK INTRA:                  -1.349
REMARK UNBOUND:                -1.149
REMARK  Name = 
REMARK  11 active torsions:
REMARK  status: ('A' for Active; 'I' for Inactive)
REMARK    1  A    between atoms: C_1  and  C_2
REMARK    2  A    between atoms: C_7  and  C_8
REMARK    3  A    between atoms: C_8  and  N_9
REMARK    4  A    between atoms: N_9  and  C_10
REMARK    5  A    between atoms: C_10  and  C_11
REMARK    6  A    between atoms: C_14  and  C_15
REMARK    7  A    between atoms: C_15  and  N_16
REMARK    8  A    between atoms: N_16  and  C_17
REMARK    9  A    between atoms: C_17  and  C_18
REMARK   10  A    between atoms: C_18  and  O_19
REMARK   11  A    between atoms: C_20  and  C_22
REMARK                            x       y       z     vdW  Elec       q    Type
REMARK                         _______ _______ _______ _____ _____    ______ ____
ROOT
ATOM      1  C   UNL     1      47.488   3.279  17.023  0.00  0.00    +0.000 C 
ENDROOT
BRANCH   1   5
ATOM      2  C   UNL     1      47.149   5.947  13.641  0.00  0.00    +0.000 A 
ATOM      3  C   UNL     1      47.950   6.289  14.738  0.00  0.00    +0.000 A 
ATOM      4  C   UNL     1      48.150   5.380  15.783  0.00  0.00    +0.000 A 
ATOM      5  C   UNL     1      47.552   4.114  15.757  0.00  0.00    +0.000 A 
ATOM      6  C   UNL     1      46.929   3.702  14.572  0.00  0.00    +0.000 A 
ATOM      7  C   UNL     1      46.712   4.618  13.532  0.00  0.00    +0.000 A 
BRANCH   2   8
ATOM      8  C   UNL     1      46.596   7.022  12.718  0.00  0.00    +0.000 C 
BRANCH   8   9
ATOM      9  N   UNL     1      45.144   7.208  12.763  0.00  0.00    +0.000 NA
ATOM     10  H   UNL     1      44.734   6.516  13.388  0.00  0.00    +0.000 HD
BRANCH   9  11
ATOM     11  C   UNL     1      44.558   7.012  11.417  0.00  0.00    +0.000 C 
BRANCH  11  18
ATOM     12  C   UNL     1      42.845   5.032  12.977  0.00  0.00    +0.000 C 
ATOM     13  C   UNL     1      43.604   4.639  11.739  0.00  0.00    +0.000 A 
ATOM     14  C   UNL     1      43.524   3.295  11.320  0.00  0.00    +0.000 A 
ATOM     15  C   UNL     1      44.242   2.840  10.217  0.00  0.00    +0.000 A 
ATOM     16  C   UNL     1      45.070   3.717   9.530  0.00  0.00    +0.000 A 
ATOM     17  C   UNL     1      45.152   5.054   9.921  0.00  0.00    +0.000 A 
ATOM     18  C   UNL     1      44.406   5.553  11.008  0.00  0.00    +0.000 A 
ENDBRANCH  11  18
ENDBRANCH   9  11
ENDBRANCH   8   9
ENDBRANCH   2   8
ENDBRANCH   1   5
BRANCH   1  19
ATOM     19  N   UNL     1      48.820   3.098  17.643  0.00  0.00    +0.000 N 
ATOM     20  C   UNL     1      49.768   2.327  16.936  0.00  0.00    +0.000 C 
ATOM     21  O   UNL     1      49.525   1.895  15.811  0.00  0.00    +0.000 OA
BRANCH  20  22
ATOM     22  C   UNL     1      51.065   1.998  17.560  0.00  0.00    +0.000 A 
ATOM     23  C   UNL     1      51.485   0.737  17.979  0.00  0.00    +0.000 A 
ATOM     24  N   UNL     1      52.779   0.819  18.418  0.00  0.00    +0.000 N 
ATOM     25  C   UNL     1      53.248   2.081  18.213  0.00  0.00    +0.000 A 
ATOM     26  N   UNL     1      54.512   2.455  18.460  0.00  0.00    +0.000 NA
ATOM     27  C   UNL     1      54.715   3.753  18.177  0.00  0.00    +0.000 A 
ATOM     28  N   UNL     1      53.815   4.648  17.754  0.00  0.00    +0.000 NA
ATOM     29  C   UNL     1      52.565   4.197  17.532  0.00  0.00    +0.000 A 
ATOM     30 CL   UNL     1      51.401   5.355  17.111  0.00  0.00    +0.000 Cl
ATOM     31  C   UNL     1      52.210   2.865  17.722  0.00  0.00    +0.000 A 
ATOM     32  H   UNL     1      53.338   0.064  18.789  0.00  0.00    +0.000 HD
ENDBRANCH  20  22
BRANCH  19  33
ATOM     33  C   UNL     1      49.093   3.632  18.983  0.00  0.00    +0.000 C 
BRANCH  33  34
ATOM     34  C   UNL     1      48.747   5.079  19.324  0.00  0.00    +0.000 C 
BRANCH  34  35
ATOM     35  O   UNL     1      47.643   5.078  20.232  0.00  0.00    +0.000 OA
ATOM     36  H   UNL     1      47.805   5.784  20.880  0.00  0.00    +0.000 HD
ENDBRANCH  34  35
ENDBRANCH  33  34
ENDBRANCH  19  33
ENDBRANCH   1  19
TORSDOF 10
ENDMDL
MODEL 5
REMARK VINA RESULT:    -6.932      2.802      5.075
REMARK INTER + INTRA:         -11.931
REMARK INTER:                 -10.620
REMARK INTRA:                  -1.311
REMARK UNBOUND:                -1.149
REMARK  Name = 
REMARK  11 active torsions:
REMARK  status: ('A' for Active; 'I' for Inactive)
REMARK    1  A    between atoms: C_1  and  C_2
REMARK    2  A    between atoms: C_7  and  C_8
REMARK    3  A    between atoms: C_8  and  N_9
REMARK    4  A    between atoms: N_9  and  C_10
REMARK    5  A    between atoms: C_10  and  C_11
REMARK    6  A    between atoms: C_14  and  C_15
REMARK    7  A    between atoms: C_15  and  N_16
REMARK    8  A    between atoms: N_16  and  C_17
REMARK    9  A    between atoms: C_17  and  C_18
REMARK   10  A    between atoms: C_18  and  O_19
REMARK   11  A    between atoms: C_20  and  C_22
REMARK                            x       y       z     vdW  Elec       q    Type
REMARK                         _______ _______ _______ _____ _____    ______ ____
ROOT
ATOM      1  C   UNL     1      45.805   7.714  12.906  0.00  0.00    +0.000 C 
ENDROOT
BRANCH   1   5
ATOM      2  C   UNL     1      44.112   4.268  10.921  0.00  0.00    +0.000 A 
ATOM      3  C   UNL     1      43.533   4.769  12.094  0.00  0.00    +0.000 A 
ATOM      4  C   UNL     1      44.011   5.947  12.677  0.00  0.00    +0.000 A 
ATOM      5  C   UNL     1      45.078   6.650  12.103  0.00  0.00    +0.000 A 
ATOM      6  C   UNL     1      45.512   6.265  10.828  0.00  0.00    +0.000 A 
ATOM      7  C   UNL     1      45.047   5.074  10.252  0.00  0.00    +0.000 A 
BRANCH   2   8
ATOM      8  C   UNL     1      43.897   2.822  10.503  0.00  0.00    +0.000 C 
BRANCH   8   9
ATOM      9  N   UNL     1      44.250   2.505   9.118  0.00  0.00    +0.000 NA
ATOM     10  H   UNL     1      43.609   1.799   8.760  0.00  0.00    +0.000 HD
BRANCH   9  11
ATOM     11  C   UNL     1      45.622   1.952   9.050  0.00  0.00    +0.000 C 
BRANCH  11  18
ATOM     12  C   UNL     1      46.882  -0.422   7.613  0.00  0.00    +0.000 C 
ATOM     13  C   UNL     1      46.858   0.960   7.017  0.00  0.00    +0.000 A 
ATOM     14  C   UNL     1      47.469   1.142   5.760  0.00  0.00    +0.000 A 
ATOM     15  C   UNL     1      47.538   2.401   5.168  0.00  0.00    +0.000 A 
ATOM     16  C   UNL     1      47.018   3.501   5.835  0.00  0.00    +0.000 A 
ATOM     17  C   UNL     1      46.398   3.339   7.075  0.00  0.00    +0.000 A 
ATOM     18  C   UNL     1      46.276   2.071   7.680  0.00  0.00    +0.000 A 
ENDBRANCH  11  18
ENDBRANCH   9  11
ENDBRANCH   8   9
ENDBRANCH   2   8
ENDBRANCH   1   5
BRANCH   1  19
ATOM     19  N   UNL     1      47.264   7.470  12.965  0.00  0.00    +0.000 N 
ATOM     20  C   UNL     1      48.117   8.510  12.538  0.00  0.00    +0.000 C 
ATOM     21  O   UNL     1      47.668   9.606  12.211  0.00  0.00    +0.000 OA
BRANCH  20  22
ATOM     22  C   UNL     1      49.572   8.280  12.446  0.00  0.00    +0.000 A 
ATOM     23  C   UNL     1      50.283   7.922  11.303  0.00  0.00    +0.000 A 
ATOM     24  N   UNL     1      51.620   7.896  11.596  0.00  0.00    +0.000 N 
ATOM     25  C   UNL     1      51.812   8.316  12.877  0.00  0.00    +0.000 A 
ATOM     26  N   UNL     1      53.021   8.484  13.433  0.00  0.00    +0.000 NA
ATOM     27  C   UNL     1      52.933   8.901  14.708  0.00  0.00    +0.000 A 
ATOM     28  N   UNL     1      51.823   9.096  15.429  0.00  0.00    +0.000 NA
ATOM     29  C   UNL     1      50.646   8.904  14.801  0.00  0.00    +0.000 A 
ATOM     30 CL   UNL     1      49.247   9.035  15.750  0.00  0.00    +0.000 Cl
ATOM     31  C   UNL     1      50.569   8.527  13.464  0.00  0.00    +0.000 A 
ATOM     32  H   UNL     1      52.371   7.659  10.963  0.00  0.00    +0.000 HD
ENDBRANCH  20  22
BRANCH  19  33
ATOM     33  C   UNL     1      47.779   6.156  13.371  0.00  0.00    +0.000 C 
BRANCH  33  34
ATOM     34  C   UNL     1      47.763   5.739  14.838  0.00  0.00    +0.000 C 
BRANCH  34  35
ATOM     35  O   UNL     1      46.675   4.836  15.041  0.00  0.00    +0.000 OA
ATOM     36  H   UNL     1      46.720   4.169  14.335  0.00  0.00    +0.000 HD
ENDBRANCH  34  35
ENDBRANCH  33  34
ENDBRANCH  19  33
ENDBRANCH   1  19
TORSDOF 10
ENDMDL
MODEL 6
REMARK VINA RESULT:    -6.737      3.780      6.500
REMARK INTER + INTRA:         -11.629
REMARK INTER:                 -10.308
REMARK INTRA:                  -1.320
REMARK UNBOUND:                -1.149
REMARK  Name = 
REMARK  11 active torsions:
REMARK  status: ('A' for Active; 'I' for Inactive)
REMARK    1  A    between atoms: C_1  and  C_2
REMARK    2  A    between atoms: C_7  and  C_8
REMARK    3  A    between atoms: C_8  and  N_9
REMARK    4  A    between atoms: N_9  and  C_10
REMARK    5  A    between atoms: C_10  and  C_11
REMARK    6  A    between atoms: C_14  and  C_15
REMARK    7  A    between atoms: C_15  and  N_16
REMARK    8  A    between atoms: N_16  and  C_17
REMARK    9  A    between atoms: C_17  and  C_18
REMARK   10  A    between atoms: C_18  and  O_19
REMARK   11  A    between atoms: C_20  and  C_22
REMARK                            x       y       z     vdW  Elec       q    Type
REMARK                         _______ _______ _______ _____ _____    ______ ____
ROOT
ATOM      1  C   UNL     1      49.655   7.159  14.151  0.00  0.00    +0.000 C 
ENDROOT
BRANCH   1   5
ATOM      2  C   UNL     1      46.162   5.868  11.959  0.00  0.00    +0.000 A 
ATOM      3  C   UNL     1      46.522   5.238  13.157  0.00  0.00    +0.000 A 
ATOM      4  C   UNL     1      47.586   5.724  13.925  0.00  0.00    +0.000 A 
ATOM      5  C   UNL     1      48.314   6.847  13.512  0.00  0.00    +0.000 A 
ATOM      6  C   UNL     1      47.823   7.593  12.433  0.00  0.00    +0.000 A 
ATOM      7  C   UNL     1      46.769   7.096  11.652  0.00  0.00    +0.000 A 
BRANCH   2   8
ATOM      8  C   UNL     1      45.308   5.147  10.929  0.00  0.00    +0.000 C 
BRANCH   8   9
ATOM      9  N   UNL     1      45.603   5.464   9.530  0.00  0.00    +0.000 NA
ATOM     10  H   UNL     1      45.278   6.406   9.321  0.00  0.00    +0.000 HD
BRANCH   9  11
ATOM     11  C   UNL     1      44.894   4.526   8.629  0.00  0.00    +0.000 C 
BRANCH  11  18
ATOM     12  C   UNL     1      44.489   1.605   9.400  0.00  0.00    +0.000 C 
ATOM     13  C   UNL     1      45.569   2.044   8.448  0.00  0.00    +0.000 A 
ATOM     14  C   UNL     1      46.427   1.054   7.929  0.00  0.00    +0.000 A 
ATOM     15  C   UNL     1      47.485   1.387   7.086  0.00  0.00    +0.000 A 
ATOM     16  C   UNL     1      47.716   2.718   6.771  0.00  0.00    +0.000 A 
ATOM     17  C   UNL     1      46.870   3.712   7.265  0.00  0.00    +0.000 A 
ATOM     18  C   UNL     1      45.766   3.401   8.086  0.00  0.00    +0.000 A 
ENDBRANCH  11  18
ENDBRANCH   9  11
ENDBRANCH   8   9
ENDBRANCH   2   8
ENDBRANCH   1   5
BRANCH   1  19
ATOM     19  N   UNL     1      49.515   7.619  15.551  0.00  0.00    +0.000 N 
ATOM     20  C   UNL     1      50.143   6.852  16.556  0.00  0.00    +0.000 C 
ATOM     21  O   UNL     1      50.849   5.888  16.271  0.00  0.00    +0.000 OA
BRANCH  20  22
ATOM     22  C   UNL     1      49.927   7.181  17.979  0.00  0.00    +0.000 A 
ATOM     23  C   UNL     1      50.627   8.128  18.724  0.00  0.00    +0.000 A 
ATOM     24  N   UNL     1      50.075   8.211  19.974  0.00  0.00    +0.000 N 
ATOM     25  C   UNL     1      48.976   7.409  20.039  0.00  0.00    +0.000 A 
ATOM     26  N   UNL     1      48.167   7.339  21.107  0.00  0.00    +0.000 NA
ATOM     27  C   UNL     1      47.159   6.471  20.915  0.00  0.00    +0.000 A 
ATOM     28  N   UNL     1      46.943   5.691  19.850  0.00  0.00    +0.000 NA
ATOM     29  C   UNL     1      47.802   5.816  18.819  0.00  0.00    +0.000 A 
ATOM     30 CL   UNL     1      47.596   4.743  17.523  0.00  0.00    +0.000 Cl
ATOM     31  C   UNL     1      48.864   6.714  18.840  0.00  0.00    +0.000 A 
ATOM     32  H   UNL     1      50.383   8.805  20.731  0.00  0.00    +0.000 HD
ENDBRANCH  20  22
BRANCH  19  33
ATOM     33  C   UNL     1      48.674   8.781  15.868  0.00  0.00    +0.000 C 
BRANCH  33  34
ATOM     34  C   UNL     1      48.797  10.068  15.058  0.00  0.00    +0.000 C 
BRANCH  34  35
ATOM     35  O   UNL     1      48.663  11.178  15.947  0.00  0.00    +0.000 OA
ATOM     36  H   UNL     1      47.739  11.476  15.898  0.00  0.00    +0.000 HD
ENDBRANCH  34  35
ENDBRANCH  33  34
ENDBRANCH  19  33
ENDBRANCH   1  19
TORSDOF 10
ENDMDL
MODEL 7
REMARK VINA RESULT:    -6.732      3.487      9.654
REMARK INTER + INTRA:         -11.620
REMARK INTER:                 -10.018
REMARK INTRA:                  -1.603
REMARK UNBOUND:                -1.149
REMARK  Name = 
REMARK  11 active torsions:
REMARK  status: ('A' for Active; 'I' for Inactive)
REMARK    1  A    between atoms: C_1  and  C_2
REMARK    2  A    between atoms: C_7  and  C_8
REMARK    3  A    between atoms: C_8  and  N_9
REMARK    4  A    between atoms: N_9  and  C_10
REMARK    5  A    between atoms: C_10  and  C_11
REMARK    6  A    between atoms: C_14  and  C_15
REMARK    7  A    between atoms: C_15  and  N_16
REMARK    8  A    between atoms: N_16  and  C_17
REMARK    9  A    between atoms: C_17  and  C_18
REMARK   10  A    between atoms: C_18  and  O_19
REMARK   11  A    between atoms: C_20  and  C_22
REMARK                            x       y       z     vdW  Elec       q    Type
REMARK                         _______ _______ _______ _____ _____    ______ ____
ROOT
ATOM      1  C   UNL     1      46.038   7.595  13.258  0.00  0.00    +0.000 C 
ENDROOT
BRANCH   1   5
ATOM      2  C   UNL     1      50.039   8.935  12.325  0.00  0.00    +0.000 A 
ATOM      3  C   UNL     1      49.420   7.949  11.546  0.00  0.00    +0.000 A 
ATOM      4  C   UNL     1      48.087   7.592  11.777  0.00  0.00    +0.000 A 
ATOM      5  C   UNL     1      47.344   8.211  12.791  0.00  0.00    +0.000 A 
ATOM      6  C   UNL     1      47.896   9.333  13.423  0.00  0.00    +0.000 A 
ATOM      7  C   UNL     1      49.238   9.679  13.205  0.00  0.00    +0.000 A 
BRANCH   2   8
ATOM      8  C   UNL     1      51.554   9.052  12.371  0.00  0.00    +0.000 C 
BRANCH   8   9
ATOM      9  N   UNL     1      52.248   7.994  13.109  0.00  0.00    +0.000 NA
ATOM     10  H   UNL     1      51.705   7.134  13.055  0.00  0.00    +0.000 HD
BRANCH   9  11
ATOM     11  C   UNL     1      52.378   8.363  14.537  0.00  0.00    +0.000 C 
BRANCH  11  18
ATOM     12  C   UNL     1      54.005   6.450  16.266  0.00  0.00    +0.000 C 
ATOM     13  C   UNL     1      52.501   6.487  16.302  0.00  0.00    +0.000 A 
ATOM     14  C   UNL     1      51.843   5.578  17.155  0.00  0.00    +0.000 A 
ATOM     15  C   UNL     1      50.452   5.513  17.204  0.00  0.00    +0.000 A 
ATOM     16  C   UNL     1      49.699   6.339  16.382  0.00  0.00    +0.000 A 
ATOM     17  C   UNL     1      50.331   7.254  15.540  0.00  0.00    +0.000 A 
ATOM     18  C   UNL     1      51.736   7.372  15.499  0.00  0.00    +0.000 A 
ENDBRANCH  11  18
ENDBRANCH   9  11
ENDBRANCH   8   9
ENDBRANCH   2   8
ENDBRANCH   1   5
BRANCH   1  19
ATOM     19  N   UNL     1      45.872   6.204  12.780  0.00  0.00    +0.000 N 
ATOM     20  C   UNL     1      44.686   5.892  12.081  0.00  0.00    +0.000 C 
ATOM     21  O   UNL     1      43.862   6.762  11.807  0.00  0.00    +0.000 OA
BRANCH  20  22
ATOM     22  C   UNL     1      44.401   4.495  11.697  0.00  0.00    +0.000 A 
ATOM     23  C   UNL     1      43.673   3.566  12.437  0.00  0.00    +0.000 A 
ATOM     24  N   UNL     1      43.546   2.414  11.708  0.00  0.00    +0.000 N 
ATOM     25  C   UNL     1      44.093   2.595  10.474  0.00  0.00    +0.000 A 
ATOM     26  N   UNL     1      44.048   1.677   9.498  0.00  0.00    +0.000 NA
ATOM     27  C   UNL     1      44.664   2.102   8.382  0.00  0.00    +0.000 A 
ATOM     28  N   UNL     1      45.316   3.256   8.197  0.00  0.00    +0.000 NA
ATOM     29  C   UNL     1      45.320   4.125   9.226  0.00  0.00    +0.000 A 
ATOM     30 CL   UNL     1      46.246   5.532   9.031  0.00  0.00    +0.000 Cl
ATOM     31  C   UNL     1      44.676   3.857  10.430  0.00  0.00    +0.000 A 
ATOM     32  H   UNL     1      43.077   1.567  11.997  0.00  0.00    +0.000 HD
ENDBRANCH  20  22
BRANCH  19  33
ATOM     33  C   UNL     1      46.875   5.183  13.109  0.00  0.00    +0.000 C 
BRANCH  33  34
ATOM     34  C   UNL     1      46.926   4.572  14.506  0.00  0.00    +0.000 C 
BRANCH  34  35
ATOM     35  O   UNL     1      47.284   3.194  14.384  0.00  0.00    +0.000 OA
ATOM     36  H   UNL     1      46.774   2.705  15.052  0.00  0.00    +0.000 HD
ENDBRANCH  34  35
ENDBRANCH  33  34
ENDBRANCH  19  33
ENDBRANCH   1  19
TORSDOF 10
ENDMDL
MODEL 8
REMARK VINA RESULT:    -6.625      5.134      8.353
REMARK INTER + INTRA:         -11.453
REMARK INTER:                 -10.068
REMARK INTRA:                  -1.385
REMARK UNBOUND:                -1.149
REMARK  Name = 
REMARK  11 active torsions:
REMARK  status: ('A' for Active; 'I' for Inactive)
REMARK    1  A    between atoms: C_1  and  C_2
REMARK    2  A    between atoms: C_7  and  C_8
REMARK    3  A    between atoms: C_8  and  N_9
REMARK    4  A    between atoms: N_9  and  C_10
REMARK    5  A    between atoms: C_10  and  C_11
REMARK    6  A    between atoms: C_14  and  C_15
REMARK    7  A    between atoms: C_15  and  N_16
REMARK    8  A    between atoms: N_16  and  C_17
REMARK    9  A    between atoms: C_17  and  C_18
REMARK   10  A    between atoms: C_18  and  O_19
REMARK   11  A    between atoms: C_20  and  C_22
REMARK                            x       y       z     vdW  Elec       q    Type
REMARK                         _______ _______ _______ _____ _____    ______ ____
ROOT
ATOM      1  C   UNL     1      49.386   6.399  17.296  0.00  0.00    +0.000 C 
ENDROOT
BRANCH   1   5
ATOM      2  C   UNL     1      46.794   5.427  13.978  0.00  0.00    +0.000 A 
ATOM      3  C   UNL     1      47.694   6.497  13.887  0.00  0.00    +0.000 A 
ATOM      4  C   UNL     1      48.610   6.745  14.915  0.00  0.00    +0.000 A 
ATOM      5  C   UNL     1      48.647   5.933  16.055  0.00  0.00    +0.000 A 
ATOM      6  C   UNL     1      47.896   4.750  16.048  0.00  0.00    +0.000 A 
ATOM      7  C   UNL     1      46.964   4.510  15.027  0.00  0.00    +0.000 A 
BRANCH   2   8
ATOM      8  C   UNL     1      45.554   5.377  13.101  0.00  0.00    +0.000 C 
BRANCH   8   9
ATOM      9  N   UNL     1      45.690   5.989  11.777  0.00  0.00    +0.000 NA
ATOM     10  H   UNL     1      45.695   7.003  11.873  0.00  0.00    +0.000 HD
BRANCH   9  11
ATOM     11  C   UNL     1      44.543   5.617  10.917  0.00  0.00    +0.000 C 
BRANCH  11  18
ATOM     12  C   UNL     1      43.593   2.752  11.339  0.00  0.00    +0.000 C 
ATOM     13  C   UNL     1      44.391   3.167  10.132  0.00  0.00    +0.000 A 
ATOM     14  C   UNL     1      44.721   2.171   9.190  0.00  0.00    +0.000 A 
ATOM     15  C   UNL     1      45.503   2.464   8.076  0.00  0.00    +0.000 A 
ATOM     16  C   UNL     1      45.989   3.751   7.900  0.00  0.00    +0.000 A 
ATOM     17  C   UNL     1      45.664   4.754   8.815  0.00  0.00    +0.000 A 
ATOM     18  C   UNL     1      44.839   4.497   9.929  0.00  0.00    +0.000 A 
ENDBRANCH  11  18
ENDBRANCH   9  11
ENDBRANCH   8   9
ENDBRANCH   2   8
ENDBRANCH   1   5
BRANCH   1  19
ATOM     19  N   UNL     1      50.676   5.696  17.476  0.00  0.00    +0.000 N 
ATOM     20  C   UNL     1      50.770   4.766  18.534  0.00  0.00    +0.000 C 
ATOM     21  O   UNL     1      49.792   4.490  19.226  0.00  0.00    +0.000 OA
BRANCH  20  22
ATOM     22  C   UNL     1      52.066   4.134  18.849  0.00  0.00    +0.000 A 
ATOM     23  C   UNL     1      53.061   4.652  19.674  0.00  0.00    +0.000 A 
ATOM     24  N   UNL     1      54.069   3.733  19.793  0.00  0.00    +0.000 N 
ATOM     25  C   UNL     1      53.719   2.590  19.141  0.00  0.00    +0.000 A 
ATOM     26  N   UNL     1      54.461   1.472  19.148  0.00  0.00    +0.000 NA
ATOM     27  C   UNL     1      53.893   0.491  18.425  0.00  0.00    +0.000 A 
ATOM     28  N   UNL     1      52.764   0.550  17.710  0.00  0.00    +0.000 NA
ATOM     29  C   UNL     1      52.077   1.708  17.751  0.00  0.00    +0.000 A 
ATOM     30 CL   UNL     1      50.713   1.819  16.751  0.00  0.00    +0.000 Cl
ATOM     31  C   UNL     1      52.503   2.800  18.501  0.00  0.00    +0.000 A 
ATOM     32  H   UNL     1      54.924   3.841  20.320  0.00  0.00    +0.000 HD
ENDBRANCH  20  22
BRANCH  19  33
ATOM     33  C   UNL     1      51.829   6.033  16.631  0.00  0.00    +0.000 C 
BRANCH  33  34
ATOM     34  C   UNL     1      52.040   7.465  16.147  0.00  0.00    +0.000 C 
BRANCH  34  35
ATOM     35  O   UNL     1      52.161   7.448  14.723  0.00  0.00    +0.000 OA
ATOM     36  H   UNL     1      53.034   7.075  14.514  0.00  0.00    +0.000 HD
ENDBRANCH  34  35
ENDBRANCH  33  34
ENDBRANCH  19  33
ENDBRANCH   1  19
TORSDOF 10
ENDMDL
MODEL 9
REMARK VINA RESULT:    -6.598      5.153      8.199
REMARK INTER + INTRA:         -11.412
REMARK INTER:                  -9.461
REMARK INTRA:                  -1.952
REMARK UNBOUND:                -1.149
REMARK  Name = 
REMARK  11 active torsions:
REMARK  status: ('A' for Active; 'I' for Inactive)
REMARK    1  A    between atoms: C_1  and  C_2
REMARK    2  A    between atoms: C_7  and  C_8
REMARK    3  A    between atoms: C_8  and  N_9
REMARK    4  A    between atoms: N_9  and  C_10
REMARK    5  A    between atoms: C_10  and  C_11
REMARK    6  A    between atoms: C_14  and  C_15
REMARK    7  A    between atoms: C_15  and  N_16
REMARK    8  A    between atoms: N_16  and  C_17
REMARK    9  A    between atoms: C_17  and  C_18
REMARK   10  A    between atoms: C_18  and  O_19
REMARK   11  A    between atoms: C_20  and  C_22
REMARK                            x       y       z     vdW  Elec       q    Type
REMARK                         _______ _______ _______ _____ _____    ______ ____
ROOT
ATOM      1  C   UNL     1      47.224   4.074  17.014  0.00  0.00    +0.000 C 
ENDROOT
BRANCH   1   5
ATOM      2  C   UNL     1      47.513   6.029  13.170  0.00  0.00    +0.000 A 
ATOM      3  C   UNL     1      48.139   6.579  14.296  0.00  0.00    +0.000 A 
ATOM      4  C   UNL     1      48.140   5.893  15.516  0.00  0.00    +0.000 A 
ATOM      5  C   UNL     1      47.516   4.645  15.638  0.00  0.00    +0.000 A 
ATOM      6  C   UNL     1      47.078   4.008  14.469  0.00  0.00    +0.000 A 
ATOM      7  C   UNL     1      47.059   4.702  13.250  0.00  0.00    +0.000 A 
BRANCH   2   8
ATOM      8  C   UNL     1      47.148   6.901  11.980  0.00  0.00    +0.000 C 
BRANCH   8   9
ATOM      9  N   UNL     1      45.879   7.622  12.089  0.00  0.00    +0.000 NA
ATOM     10  H   UNL     1      45.507   7.510  13.031  0.00  0.00    +0.000 HD
BRANCH   9  11
ATOM     11  C   UNL     1      44.888   7.067  11.138  0.00  0.00    +0.000 C 
BRANCH  11  18
ATOM     12  C   UNL     1      45.245   4.713   9.235  0.00  0.00    +0.000 C 
ATOM     13  C   UNL     1      44.593   4.567  10.583  0.00  0.00    +0.000 A 
ATOM     14  C   UNL     1      44.115   3.291  10.945  0.00  0.00    +0.000 A 
ATOM     15  C   UNL     1      43.450   3.086  12.152  0.00  0.00    +0.000 A 
ATOM     16  C   UNL     1      43.231   4.159  13.004  0.00  0.00    +0.000 A 
ATOM     17  C   UNL     1      43.707   5.428  12.669  0.00  0.00    +0.000 A 
ATOM     18  C   UNL     1      44.420   5.657  11.474  0.00  0.00    +0.000 A 
ENDBRANCH  11  18
ENDBRANCH   9  11
ENDBRANCH   8   9
ENDBRANCH   2   8
ENDBRANCH   1   5
BRANCH   1  19
ATOM     19  N   UNL     1      48.345   4.285  17.957  0.00  0.00    +0.000 N 
ATOM     20  C   UNL     1      48.130   5.166  19.038  0.00  0.00    +0.000 C 
ATOM     21  O   UNL     1      47.028   5.672  19.236  0.00  0.00    +0.000 OA
BRANCH  20  22
ATOM     22  C   UNL     1      49.249   5.522  19.934  0.00  0.00    +0.000 A 
ATOM     23  C   UNL     1      49.710   4.778  21.018  0.00  0.00    +0.000 A 
ATOM     24  N   UNL     1      50.819   5.387  21.539  0.00  0.00    +0.000 N 
ATOM     25  C   UNL     1      51.151   6.461  20.771  0.00  0.00    +0.000 A 
ATOM     26  N   UNL     1      52.243   7.213  20.973  0.00  0.00    +0.000 NA
ATOM     27  C   UNL     1      52.337   8.211  20.078  0.00  0.00    +0.000 A 
ATOM     28  N   UNL     1      51.467   8.526  19.111  0.00  0.00    +0.000 NA
ATOM     29  C   UNL     1      50.393   7.725  18.973  0.00  0.00    +0.000 A 
ATOM     30 CL   UNL     1      49.236   8.196  17.826  0.00  0.00    +0.000 Cl
ATOM     31  C   UNL     1      50.183   6.615  19.784  0.00  0.00    +0.000 A 
ATOM     32  H   UNL     1      51.357   5.078  22.337  0.00  0.00    +0.000 HD
ENDBRANCH  20  22
BRANCH  19  33
ATOM     33  C   UNL     1      49.651   3.661  17.707  0.00  0.00    +0.000 C 
BRANCH  33  34
ATOM     34  C   UNL     1      49.752   2.163  17.434  0.00  0.00    +0.000 C 
BRANCH  34  35
ATOM     35  O   UNL     1      49.798   1.963  16.020  0.00  0.00    +0.000 OA
ATOM     36  H   UNL     1      50.551   1.377  15.837  0.00  0.00    +0.000 HD
ENDBRANCH  34  35
ENDBRANCH  33  34
ENDBRANCH  19  33
ENDBRANCH   1  19
TORSDOF 10
ENDMDL
