MODEL 1
REMARK VINA RESULT:    -8.003      0.000      0.000
REMARK INTER + INTRA:         -12.155
REMARK INTER:                 -11.278
REMARK INTRA:                  -0.876
REMARK UNBOUND:                -0.876
REMARK  Name = 
REMARK  7 active torsions:
REMARK  status: ('A' for Active; 'I' for Inactive)
REMARK    1  A    between atoms: C_2  and  C_3
REMARK    2  A    between atoms: C_6  and  C_7
REMARK    3  A    between atoms: C_11  and  C_12
REMARK    4  A    between atoms: C_12  and  C_13
REMARK    5  A    between atoms: C_13  and  O_14
REMARK    6  A    between atoms: O_14  and  C_15
REMARK    7  A    between atoms: C_18  and  C_19
REMARK                            x       y       z     vdW  Elec       q    Type
REMARK                         _______ _______ _______ _____ _____    ______ ____
ROOT
ATOM      1  C   UNL     1      46.961   5.279  14.109  0.00  0.00    +0.000 A 
ATOM      2  C   UNL     1      47.510   6.097  13.123  0.00  0.00    +0.000 A 
ATOM      3  C   UNL     1      46.821   6.277  11.939  0.00  0.00    +0.000 A 
ATOM      4  C   UNL     1      45.606   5.635  11.764  0.00  0.00    +0.000 A 
ATOM      5  C   UNL     1      45.101   4.816  12.772  0.00  0.00    +0.000 A 
ATOM      6  N   UNL     1      45.776   4.632  13.935  0.00  0.00    +0.000 NA
ENDROOT
BRANCH   1  10
ATOM      7  C   UNL     1      48.847   4.866  17.874  0.00  0.00    +0.000 A 
ATOM      8  C   UNL     1      48.017   3.840  17.449  0.00  0.00    +0.000 A 
ATOM      9  C   UNL     1      47.401   3.959  16.202  0.00  0.00    +0.000 A 
ATOM     10  C   UNL     1      47.619   5.093  15.410  0.00  0.00    +0.000 A 
ATOM     11  C   UNL     1      48.488   6.052  15.938  0.00  0.00    +0.000 A 
ATOM     12  N   UNL     1      49.109   5.968  17.140  0.00  0.00    +0.000 NA
BRANCH   7  14
ATOM     13  N   UNL     1      49.949   4.769  20.218  0.00  0.00    +0.000 NA
ATOM     14  C   UNL     1      49.475   4.806  19.163  0.00  0.00    +0.000 C 
ENDBRANCH   7  14
ENDBRANCH   1  10
BRANCH   5  15
ATOM     15  C   UNL     1      43.773   4.090  12.639  0.00  0.00    +0.000 C 
BRANCH  15  16
ATOM     16  C   UNL     1      43.816   2.931  11.644  0.00  0.00    +0.000 C 
BRANCH  16  17
ATOM     17  O   UNL     1      43.439   3.327  10.327  0.00  0.00    +0.000 OA
BRANCH  17  18
ATOM     18  C   UNL     1      44.435   3.188   9.388  0.00  0.00    +0.000 A 
ATOM     19  C   UNL     1      44.980   4.222   8.617  0.00  0.00    +0.000 A 
ATOM     20  C   UNL     1      46.001   3.959   7.699  0.00  0.00    +0.000 A 
ATOM     21  C   UNL     1      46.501   2.661   7.552  0.00  0.00    +0.000 A 
ATOM     22  C   UNL     1      45.963   1.626   8.323  0.00  0.00    +0.000 A 
ATOM     23  C   UNL     1      44.924   1.891   9.225  0.00  0.00    +0.000 A 
BRANCH  21  24
ATOM     24  C   UNL     1      47.558   2.434   6.534  0.00  0.00    +0.000 C 
ATOM     25  N   UNL     1      47.399   3.019   5.311  0.00  0.00    +0.000 N 
ATOM     26  O   UNL     1      48.534   1.734   6.774  0.00  0.00    +0.000 OA
ATOM     27  H   UNL     1      46.579   3.533   5.026  0.00  0.00    +0.000 HD
ATOM     28  H   UNL     1      48.117   2.837   4.621  0.00  0.00    +0.000 HD
ENDBRANCH  21  24
ENDBRANCH  17  18
ENDBRANCH  16  17
ENDBRANCH  15  16
ENDBRANCH   5  15
TORSDOF 7
ENDMDL
MODEL 2
REMARK VINA RESULT:    -7.878      3.020      4.994
REMARK INTER + INTRA:         -11.978
REMARK INTER:                 -11.038
REMARK INTRA:                  -0.941
REMARK UNBOUND:                -0.876
REMARK  Name = 
REMARK  7 active torsions:
REMARK  status: ('A' for Active; 'I' for Inactive)
REMARK    1  A    between atoms: C_2  and  C_3
REMARK    2  A    between atoms: C_6  and  C_7
REMARK    3  A    between atoms: C_11  and  C_12
REMARK    4  A    between atoms: C_12  and  C_13
REMARK    5  A    between atoms: C_13  and  O_14
REMARK    6  A    between atoms: O_14  and  C_15
REMARK    7  A    between atoms: C_18  and  C_19
REMARK                            x       y       z     vdW  Elec       q    Type
REMARK                         _______ _______ _______ _____ _____    ______ ____
ROOT
ATOM      1  C   UNL     1      45.926   6.395  12.719  0.00  0.00    +0.000 A 
ATOM      2  C   UNL     1      47.101   5.854  13.238  0.00  0.00    +0.000 A 
ATOM      3  C   UNL     1      47.135   4.513  13.568  0.00  0.00    +0.000 A 
ATOM      4  C   UNL     1      45.998   3.745  13.379  0.00  0.00    +0.000 A 
ATOM      5  C   UNL     1      44.841   4.331  12.869  0.00  0.00    +0.000 A 
ATOM      6  N   UNL     1      44.800   5.649  12.548  0.00  0.00    +0.000 NA
ENDROOT
BRANCH   1  10
ATOM      7  C   UNL     1      45.574  10.440  11.531  0.00  0.00    +0.000 A 
ATOM      8  C   UNL     1      46.732  10.057  12.190  0.00  0.00    +0.000 A 
ATOM      9  C   UNL     1      46.866   8.721  12.574  0.00  0.00    +0.000 A 
ATOM     10  C   UNL     1      45.847   7.801  12.299  0.00  0.00    +0.000 A 
ATOM     11  C   UNL     1      44.735   8.302  11.615  0.00  0.00    +0.000 A 
ATOM     12  N   UNL     1      44.574   9.589  11.221  0.00  0.00    +0.000 NA
BRANCH   7  14
ATOM     13  N   UNL     1      45.179  12.904  10.829  0.00  0.00    +0.000 NA
ATOM     14  C   UNL     1      45.375  11.809  11.147  0.00  0.00    +0.000 C 
ENDBRANCH   7  14
ENDBRANCH   1  10
BRANCH   5  15
ATOM     15  C   UNL     1      43.564   3.540  12.637  0.00  0.00    +0.000 C 
BRANCH  15  16
ATOM     16  C   UNL     1      43.541   2.812  11.293  0.00  0.00    +0.000 C 
BRANCH  16  17
ATOM     17  O   UNL     1      43.654   3.704  10.187  0.00  0.00    +0.000 OA
BRANCH  17  18
ATOM     18  C   UNL     1      44.615   3.347   9.269  0.00  0.00    +0.000 A 
ATOM     19  C   UNL     1      45.306   4.226   8.426  0.00  0.00    +0.000 A 
ATOM     20  C   UNL     1      46.272   3.744   7.538  0.00  0.00    +0.000 A 
ATOM     21  C   UNL     1      46.572   2.378   7.494  0.00  0.00    +0.000 A 
ATOM     22  C   UNL     1      45.888   1.498   8.338  0.00  0.00    +0.000 A 
ATOM     23  C   UNL     1      44.904   1.983   9.209  0.00  0.00    +0.000 A 
BRANCH  21  24
ATOM     24  C   UNL     1      47.580   1.920   6.505  0.00  0.00    +0.000 C 
ATOM     25  N   UNL     1      48.735   2.639   6.394  0.00  0.00    +0.000 N 
ATOM     26  O   UNL     1      47.379   0.939   5.799  0.00  0.00    +0.000 OA
ATOM     27  H   UNL     1      48.920   3.501   6.883  0.00  0.00    +0.000 HD
ATOM     28  H   UNL     1      49.402   2.326   5.699  0.00  0.00    +0.000 HD
ENDBRANCH  21  24
ENDBRANCH  17  18
ENDBRANCH  16  17
ENDBRANCH  15  16
ENDBRANCH   5  15
TORSDOF 7
ENDMDL
MODEL 3
REMARK VINA RESULT:    -7.720      2.646      8.267
REMARK INTER + INTRA:         -11.755
REMARK INTER:                 -10.659
REMARK INTRA:                  -1.096
REMARK UNBOUND:                -0.876
REMARK  Name = 
REMARK  7 active torsions:
REMARK  status: ('A' for Active; 'I' for Inactive)
REMARK    1  A    between atoms: C_2  and  C_3
REMARK    2  A    between atoms: C_6  and  C_7
REMARK    3  A    between atoms: C_11  and  C_12
REMARK    4  A    between atoms: C_12  and  C_13
REMARK    5  A    between atoms: C_13  and  O_14
REMARK    6  A    between atoms: O_14  and  C_15
REMARK    7  A    between atoms: C_18  and  C_19
REMARK                            x       y       z     vdW  Elec       q    Type
REMARK                         _______ _______ _______ _____ _____    ______ ____
ROOT
ATOM      1  C   UNL     1      44.662   4.281  10.183  0.00  0.00    +0.000 A 
ATOM      2  C   UNL     1      43.608   3.692  10.878  0.00  0.00    +0.000 A 
ATOM      3  C   UNL     1      42.958   4.419  11.858  0.00  0.00    +0.000 A 
ATOM      4  C   UNL     1      43.378   5.712  12.124  0.00  0.00    +0.000 A 
ATOM      5  C   UNL     1      44.446   6.257  11.413  0.00  0.00    +0.000 A 
ATOM      6  N   UNL     1      45.090   5.545  10.453  0.00  0.00    +0.000 NA
ENDROOT
BRANCH   1  10
ATOM      7  C   UNL     1      46.737   2.351   7.042  0.00  0.00    +0.000 A 
ATOM      8  C   UNL     1      46.188   1.559   8.039  0.00  0.00    +0.000 A 
ATOM      9  C   UNL     1      45.489   2.184   9.073  0.00  0.00    +0.000 A 
ATOM     10  C   UNL     1      45.355   3.578   9.095  0.00  0.00    +0.000 A 
ATOM     11  C   UNL     1      45.937   4.267   8.027  0.00  0.00    +0.000 A 
ATOM     12  N   UNL     1      46.616   3.695   7.004  0.00  0.00    +0.000 NA
BRANCH   7  14
ATOM     13  N   UNL     1      48.135   1.300   5.129  0.00  0.00    +0.000 NA
ATOM     14  C   UNL     1      47.495   1.758   5.977  0.00  0.00    +0.000 C 
ENDBRANCH   7  14
ENDBRANCH   1  10
BRANCH   5  15
ATOM     15  C   UNL     1      44.948   7.670  11.658  0.00  0.00    +0.000 C 
BRANCH  15  16
ATOM     16  C   UNL     1      45.898   7.775  12.851  0.00  0.00    +0.000 C 
BRANCH  16  17
ATOM     17  O   UNL     1      47.083   7.003  12.674  0.00  0.00    +0.000 OA
BRANCH  17  18
ATOM     18  C   UNL     1      47.339   6.117  13.696  0.00  0.00    +0.000 A 
ATOM     19  C   UNL     1      48.076   6.396  14.853  0.00  0.00    +0.000 A 
ATOM     20  C   UNL     1      48.260   5.414  15.830  0.00  0.00    +0.000 A 
ATOM     21  C   UNL     1      47.694   4.145  15.671  0.00  0.00    +0.000 A 
ATOM     22  C   UNL     1      46.952   3.863  14.520  0.00  0.00    +0.000 A 
ATOM     23  C   UNL     1      46.791   4.844  13.532  0.00  0.00    +0.000 A 
BRANCH  21  24
ATOM     24  C   UNL     1      47.954   3.130  16.724  0.00  0.00    +0.000 C 
ATOM     25  N   UNL     1      46.960   2.880  17.625  0.00  0.00    +0.000 N 
ATOM     26  O   UNL     1      49.029   2.547  16.794  0.00  0.00    +0.000 OA
ATOM     27  H   UNL     1      46.090   3.387  17.671  0.00  0.00    +0.000 HD
ATOM     28  H   UNL     1      47.161   2.201  18.349  0.00  0.00    +0.000 HD
ENDBRANCH  21  24
ENDBRANCH  17  18
ENDBRANCH  16  17
ENDBRANCH  15  16
ENDBRANCH   5  15
TORSDOF 7
ENDMDL
MODEL 4
REMARK VINA RESULT:    -7.647      3.084      4.687
REMARK INTER + INTRA:         -11.652
REMARK INTER:                 -10.621
REMARK INTRA:                  -1.032
REMARK UNBOUND:                -0.876
REMARK  Name = 
REMARK  7 active torsions:
REMARK  status: ('A' for Active; 'I' for Inactive)
REMARK    1  A    between atoms: C_2  and  C_3
REMARK    2  A    between atoms: C_6  and  C_7
REMARK    3  A    between atoms: C_11  and  C_12
REMARK    4  A    between atoms: C_12  and  C_13
REMARK    5  A    between atoms: C_13  and  O_14
REMARK    6  A    between atoms: O_14  and  C_15
REMARK    7  A    between atoms: C_18  and  C_19
REMARK                            x       y       z     vdW  Elec       q    Type
REMARK                         _______ _______ _______ _____ _____    ______ ____
ROOT
ATOM      1  C   UNL     1      46.762   6.592  12.733  0.00  0.00    +0.000 A 
ATOM      2  C   UNL     1      47.413   5.545  13.384  0.00  0.00    +0.000 A 
ATOM      3  C   UNL     1      46.697   4.412  13.719  0.00  0.00    +0.000 A 
ATOM      4  C   UNL     1      45.350   4.350  13.403  0.00  0.00    +0.000 A 
ATOM      5  C   UNL     1      44.736   5.426  12.764  0.00  0.00    +0.000 A 
ATOM      6  N   UNL     1      45.434   6.544  12.437  0.00  0.00    +0.000 NA
ENDROOT
BRANCH   1  10
ATOM      7  C   UNL     1      48.769  10.131  11.578  0.00  0.00    +0.000 A 
ATOM      8  C   UNL     1      49.489   8.947  11.571  0.00  0.00    +0.000 A 
ATOM      9  C   UNL     1      48.833   7.770  11.936  0.00  0.00    +0.000 A 
ATOM     10  C   UNL     1      47.482   7.798  12.303  0.00  0.00    +0.000 A 
ATOM     11  C   UNL     1      46.859   9.049  12.256  0.00  0.00    +0.000 A 
ATOM     12  N   UNL     1      47.461  10.209  11.900  0.00  0.00    +0.000 NA
BRANCH   7  14
ATOM     13  N   UNL     1      49.922  12.364  10.938  0.00  0.00    +0.000 NA
ATOM     14  C   UNL     1      49.409  11.372  11.243  0.00  0.00    +0.000 C 
ENDBRANCH   7  14
ENDBRANCH   1  10
BRANCH   5  15
ATOM     15  C   UNL     1      43.263   5.415  12.389  0.00  0.00    +0.000 C 
BRANCH  15  16
ATOM     16  C   UNL     1      42.937   4.452  11.248  0.00  0.00    +0.000 C 
BRANCH  16  17
ATOM     17  O   UNL     1      43.511   4.860  10.008  0.00  0.00    +0.000 OA
BRANCH  17  18
ATOM     18  C   UNL     1      44.337   3.922   9.432  0.00  0.00    +0.000 A 
ATOM     19  C   UNL     1      44.303   2.544   9.677  0.00  0.00    +0.000 A 
ATOM     20  C   UNL     1      45.190   1.686   9.021  0.00  0.00    +0.000 A 
ATOM     21  C   UNL     1      46.110   2.193   8.097  0.00  0.00    +0.000 A 
ATOM     22  C   UNL     1      46.144   3.568   7.846  0.00  0.00    +0.000 A 
ATOM     23  C   UNL     1      45.269   4.427   8.524  0.00  0.00    +0.000 A 
BRANCH  21  24
ATOM     24  C   UNL     1      47.052   1.239   7.459  0.00  0.00    +0.000 C 
ATOM     25  N   UNL     1      48.048   1.754   6.681  0.00  0.00    +0.000 N 
ATOM     26  O   UNL     1      46.934   0.029   7.610  0.00  0.00    +0.000 OA
ATOM     27  H   UNL     1      48.145   2.731   6.449  0.00  0.00    +0.000 HD
ATOM     28  H   UNL     1      48.669   1.089   6.235  0.00  0.00    +0.000 HD
ENDBRANCH  21  24
ENDBRANCH  17  18
ENDBRANCH  16  17
ENDBRANCH  15  16
ENDBRANCH   5  15
TORSDOF 7
ENDMDL
MODEL 5
REMARK VINA RESULT:    -7.049      2.855      4.223
REMARK INTER + INTRA:         -10.810
REMARK INTER:                 -10.109
REMARK INTRA:                  -0.701
REMARK UNBOUND:                -0.876
REMARK  Name = 
REMARK  7 active torsions:
REMARK  status: ('A' for Active; 'I' for Inactive)
REMARK    1  A    between atoms: C_2  and  C_3
REMARK    2  A    between atoms: C_6  and  C_7
REMARK    3  A    between atoms: C_11  and  C_12
REMARK    4  A    between atoms: C_12  and  C_13
REMARK    5  A    between atoms: C_13  and  O_14
REMARK    6  A    between atoms: O_14  and  C_15
REMARK    7  A    between atoms: C_18  and  C_19
REMARK                            x       y       z     vdW  Elec       q    Type
REMARK                         _______ _______ _______ _____ _____    ______ ____
ROOT
ATOM      1  C   UNL     1      45.473   4.903  12.074  0.00  0.00    +0.000 A 
ATOM      2  C   UNL     1      44.473   4.529  12.970  0.00  0.00    +0.000 A 
ATOM      3  C   UNL     1      43.463   3.690  12.538  0.00  0.00    +0.000 A 
ATOM      4  C   UNL     1      43.472   3.248  11.225  0.00  0.00    +0.000 A 
ATOM      5  C   UNL     1      44.485   3.659  10.360  0.00  0.00    +0.000 A 
ATOM      6  N   UNL     1      45.476   4.487  10.778  0.00  0.00    +0.000 NA
ENDROOT
BRANCH   1  10
ATOM      7  C   UNL     1      48.777   7.234  13.317  0.00  0.00    +0.000 A 
ATOM      8  C   UNL     1      48.147   7.583  12.132  0.00  0.00    +0.000 A 
ATOM      9  C   UNL     1      47.047   6.830  11.720  0.00  0.00    +0.000 A 
ATOM     10  C   UNL     1      46.601   5.748  12.490  0.00  0.00    +0.000 A 
ATOM     11  C   UNL     1      47.306   5.504  13.672  0.00  0.00    +0.000 A 
ATOM     12  N   UNL     1      48.373   6.217  14.107  0.00  0.00    +0.000 NA
BRANCH   7  14
ATOM     13  N   UNL     1      50.872   8.550  14.092  0.00  0.00    +0.000 NA
ATOM     14  C   UNL     1      49.934   7.956  13.765  0.00  0.00    +0.000 C 
ENDBRANCH   7  14
ENDBRANCH   1  10
BRANCH   5  15
ATOM     15  C   UNL     1      44.549   3.205   8.911  0.00  0.00    +0.000 C 
BRANCH  15  16
ATOM     16  C   UNL     1      45.495   4.048   8.056  0.00  0.00    +0.000 C 
BRANCH  16  17
ATOM     17  O   UNL     1      46.768   3.431   7.880  0.00  0.00    +0.000 OA
BRANCH  17  18
ATOM     18  C   UNL     1      46.839   2.579   6.802  0.00  0.00    +0.000 A 
ATOM     19  C   UNL     1      46.730   2.953   5.457  0.00  0.00    +0.000 A 
ATOM     20  C   UNL     1      46.830   1.995   4.445  0.00  0.00    +0.000 A 
ATOM     21  C   UNL     1      47.057   0.652   4.763  0.00  0.00    +0.000 A 
ATOM     22  C   UNL     1      47.171   0.274   6.104  0.00  0.00    +0.000 A 
ATOM     23  C   UNL     1      47.047   1.235   7.117  0.00  0.00    +0.000 A 
BRANCH  21  24
ATOM     24  C   UNL     1      47.116  -0.327   3.648  0.00  0.00    +0.000 C 
ATOM     25  N   UNL     1      46.603  -1.572   3.868  0.00  0.00    +0.000 N 
ATOM     26  O   UNL     1      47.621  -0.036   2.571  0.00  0.00    +0.000 OA
ATOM     27  H   UNL     1      46.255  -1.898   4.757  0.00  0.00    +0.000 HD
ATOM     28  H   UNL     1      46.671  -2.235   3.105  0.00  0.00    +0.000 HD
ENDBRANCH  21  24
ENDBRANCH  17  18
ENDBRANCH  16  17
ENDBRANCH  15  16
ENDBRANCH   5  15
TORSDOF 7
ENDMDL
MODEL 6
REMARK VINA RESULT:    -6.908      2.934      9.415
REMARK INTER + INTRA:         -10.611
REMARK INTER:                  -9.931
REMARK INTRA:                  -0.680
REMARK UNBOUND:                -0.876
REMARK  Name = 
REMARK  7 active torsions:
REMARK  status: ('A' for Active; 'I' for Inactive)
REMARK    1  A    between atoms: C_2  and  C_3
REMARK    2  A    between atoms: C_6  and  C_7
REMARK    3  A    between atoms: C_11  and  C_12
REMARK    4  A    between atoms: C_12  and  C_13
REMARK    5  A    between atoms: C_13  and  O_14
REMARK    6  A    between atoms: O_14  and  C_15
REMARK    7  A    between atoms: C_18  and  C_19
REMARK                            x       y       z     vdW  Elec       q    Type
REMARK                         _______ _______ _______ _____ _____    ______ ____
ROOT
ATOM      1  C   UNL     1      44.694   4.303  10.363  0.00  0.00    +0.000 A 
ATOM      2  C   UNL     1      43.330   4.587  10.336  0.00  0.00    +0.000 A 
ATOM      3  C   UNL     1      42.762   5.259  11.402  0.00  0.00    +0.000 A 
ATOM      4  C   UNL     1      43.565   5.626  12.470  0.00  0.00    +0.000 A 
ATOM      5  C   UNL     1      44.922   5.309  12.460  0.00  0.00    +0.000 A 
ATOM      6  N   UNL     1      45.484   4.645  11.418  0.00  0.00    +0.000 NA
ENDROOT
BRANCH   1  10
ATOM      7  C   UNL     1      46.705   2.490   7.113  0.00  0.00    +0.000 A 
ATOM      8  C   UNL     1      46.164   1.661   8.084  0.00  0.00    +0.000 A 
ATOM      9  C   UNL     1      45.485   2.248   9.153  0.00  0.00    +0.000 A 
ATOM     10  C   UNL     1      45.364   3.641   9.236  0.00  0.00    +0.000 A 
ATOM     11  C   UNL     1      45.937   4.369   8.189  0.00  0.00    +0.000 A 
ATOM     12  N   UNL     1      46.597   3.835   7.133  0.00  0.00    +0.000 NA
BRANCH   7  14
ATOM     13  N   UNL     1      48.042   1.459   5.145  0.00  0.00    +0.000 NA
ATOM     14  C   UNL     1      47.443   1.936   6.013  0.00  0.00    +0.000 C 
ENDBRANCH   7  14
ENDBRANCH   1  10
BRANCH   5  15
ATOM     15  C   UNL     1      45.853   5.688  13.600  0.00  0.00    +0.000 C 
BRANCH  15  16
ATOM     16  C   UNL     1      46.930   4.639  13.875  0.00  0.00    +0.000 C 
BRANCH  16  17
ATOM     17  O   UNL     1      48.098   5.199  14.470  0.00  0.00    +0.000 OA
BRANCH  17  18
ATOM     18  C   UNL     1      48.127   5.121  15.843  0.00  0.00    +0.000 A 
ATOM     19  C   UNL     1      47.661   4.045  16.609  0.00  0.00    +0.000 A 
ATOM     20  C   UNL     1      47.754   4.076  18.003  0.00  0.00    +0.000 A 
ATOM     21  C   UNL     1      48.328   5.176  18.649  0.00  0.00    +0.000 A 
ATOM     22  C   UNL     1      48.799   6.250  17.888  0.00  0.00    +0.000 A 
ATOM     23  C   UNL     1      48.682   6.225  16.491  0.00  0.00    +0.000 A 
BRANCH  21  24
ATOM     24  C   UNL     1      48.365   5.170  20.133  0.00  0.00    +0.000 C 
ATOM     25  N   UNL     1      48.571   3.975  20.759  0.00  0.00    +0.000 N 
ATOM     26  O   UNL     1      48.199   6.198  20.779  0.00  0.00    +0.000 OA
ATOM     27  H   UNL     1      48.627   3.085  20.288  0.00  0.00    +0.000 HD
ATOM     28  H   UNL     1      48.571   3.984  21.772  0.00  0.00    +0.000 HD
ENDBRANCH  21  24
ENDBRANCH  17  18
ENDBRANCH  16  17
ENDBRANCH  15  16
ENDBRANCH   5  15
TORSDOF 7
ENDMDL
MODEL 7
REMARK VINA RESULT:    -6.671      3.859      8.138
REMARK INTER + INTRA:         -10.277
REMARK INTER:                  -9.084
REMARK INTRA:                  -1.193
REMARK UNBOUND:                -0.876
REMARK  Name = 
REMARK  7 active torsions:
REMARK  status: ('A' for Active; 'I' for Inactive)
REMARK    1  A    between atoms: C_2  and  C_3
REMARK    2  A    between atoms: C_6  and  C_7
REMARK    3  A    between atoms: C_11  and  C_12
REMARK    4  A    between atoms: C_12  and  C_13
REMARK    5  A    between atoms: C_13  and  O_14
REMARK    6  A    between atoms: O_14  and  C_15
REMARK    7  A    between atoms: C_18  and  C_19
REMARK                            x       y       z     vdW  Elec       q    Type
REMARK                         _______ _______ _______ _____ _____    ______ ____
ROOT
ATOM      1  C   UNL     1      47.977   6.954  13.274  0.00  0.00    +0.000 A 
ATOM      2  C   UNL     1      49.145   7.145  12.537  0.00  0.00    +0.000 A 
ATOM      3  C   UNL     1      50.102   8.022  13.010  0.00  0.00    +0.000 A 
ATOM      4  C   UNL     1      49.871   8.691  14.201  0.00  0.00    +0.000 A 
ATOM      5  C   UNL     1      48.683   8.479  14.898  0.00  0.00    +0.000 A 
ATOM      6  N   UNL     1      47.737   7.622  14.435  0.00  0.00    +0.000 NA
ENDROOT
BRANCH   1  10
ATOM      7  C   UNL     1      44.980   4.179  12.174  0.00  0.00    +0.000 A 
ATOM      8  C   UNL     1      45.254   5.217  11.297  0.00  0.00    +0.000 A 
ATOM      9  C   UNL     1      46.252   6.130  11.643  0.00  0.00    +0.000 A 
ATOM     10  C   UNL     1      46.948   5.994  12.850  0.00  0.00    +0.000 A 
ATOM     11  C   UNL     1      46.594   4.899  13.643  0.00  0.00    +0.000 A 
ATOM     12  N   UNL     1      45.637   3.989  13.337  0.00  0.00    +0.000 NA
BRANCH   7  14
ATOM     13  N   UNL     1      43.085   2.498  11.620  0.00  0.00    +0.000 NA
ATOM     14  C   UNL     1      43.940   3.234  11.879  0.00  0.00    +0.000 C 
ENDBRANCH   7  14
ENDBRANCH   1  10
BRANCH   5  15
ATOM     15  C   UNL     1      48.375   9.181  16.210  0.00  0.00    +0.000 C 
BRANCH  15  16
ATOM     16  C   UNL     1      48.952   8.463  17.430  0.00  0.00    +0.000 C 
BRANCH  16  17
ATOM     17  O   UNL     1      48.066   7.476  17.952  0.00  0.00    +0.000 OA
BRANCH  17  18
ATOM     18  C   UNL     1      48.481   6.179  17.749  0.00  0.00    +0.000 A 
ATOM     19  C   UNL     1      47.667   5.042  17.815  0.00  0.00    +0.000 A 
ATOM     20  C   UNL     1      48.203   3.773  17.578  0.00  0.00    +0.000 A 
ATOM     21  C   UNL     1      49.556   3.627  17.254  0.00  0.00    +0.000 A 
ATOM     22  C   UNL     1      50.371   4.760  17.183  0.00  0.00    +0.000 A 
ATOM     23  C   UNL     1      49.835   6.028  17.445  0.00  0.00    +0.000 A 
BRANCH  21  24
ATOM     24  C   UNL     1      50.077   2.252  17.050  0.00  0.00    +0.000 C 
ATOM     25  N   UNL     1      50.914   1.742  18.001  0.00  0.00    +0.000 N 
ATOM     26  O   UNL     1      49.782   1.599  16.057  0.00  0.00    +0.000 OA
ATOM     27  H   UNL     1      51.261   2.259  18.793  0.00  0.00    +0.000 HD
ATOM     28  H   UNL     1      51.278   0.811  17.836  0.00  0.00    +0.000 HD
ENDBRANCH  21  24
ENDBRANCH  17  18
ENDBRANCH  16  17
ENDBRANCH  15  16
ENDBRANCH   5  15
TORSDOF 7
ENDMDL
MODEL 8
REMARK VINA RESULT:    -6.453      3.737      6.252
REMARK INTER + INTRA:          -9.970
REMARK INTER:                  -9.024
REMARK INTRA:                  -0.947
REMARK UNBOUND:                -0.876
REMARK  Name = 
REMARK  7 active torsions:
REMARK  status: ('A' for Active; 'I' for Inactive)
REMARK    1  A    between atoms: C_2  and  C_3
REMARK    2  A    between atoms: C_6  and  C_7
REMARK    3  A    between atoms: C_11  and  C_12
REMARK    4  A    between atoms: C_12  and  C_13
REMARK    5  A    between atoms: C_13  and  O_14
REMARK    6  A    between atoms: O_14  and  C_15
REMARK    7  A    between atoms: C_18  and  C_19
REMARK                            x       y       z     vdW  Elec       q    Type
REMARK                         _______ _______ _______ _____ _____    ______ ____
ROOT
ATOM      1  C   UNL     1      50.230   4.373  17.566  0.00  0.00    +0.000 A 
ATOM      2  C   UNL     1      49.061   4.486  18.315  0.00  0.00    +0.000 A 
ATOM      3  C   UNL     1      48.213   5.552  18.082  0.00  0.00    +0.000 A 
ATOM      4  C   UNL     1      48.552   6.481  17.111  0.00  0.00    +0.000 A 
ATOM      5  C   UNL     1      49.738   6.335  16.395  0.00  0.00    +0.000 A 
ATOM      6  N   UNL     1      50.577   5.293  16.624  0.00  0.00    +0.000 NA
ENDROOT
BRANCH   1  10
ATOM      7  C   UNL     1      52.816   1.045  17.931  0.00  0.00    +0.000 A 
ATOM      8  C   UNL     1      53.265   2.269  18.402  0.00  0.00    +0.000 A 
ATOM      9  C   UNL     1      52.414   3.372  18.301  0.00  0.00    +0.000 A 
ATOM     10  C   UNL     1      51.142   3.233  17.730  0.00  0.00    +0.000 A 
ATOM     11  C   UNL     1      50.797   1.947  17.306  0.00  0.00    +0.000 A 
ATOM     12  N   UNL     1      51.593   0.854  17.395  0.00  0.00    +0.000 NA
BRANCH   7  14
ATOM     13  N   UNL     1      54.373  -1.027  17.995  0.00  0.00    +0.000 NA
ATOM     14  C   UNL     1      53.667  -0.110  17.982  0.00  0.00    +0.000 C 
ENDBRANCH   7  14
ENDBRANCH   1  10
BRANCH   5  15
ATOM     15  C   UNL     1      50.162   7.319  15.317  0.00  0.00    +0.000 C 
BRANCH  15  16
ATOM     16  C   UNL     1      49.095   7.537  14.245  0.00  0.00    +0.000 C 
BRANCH  16  17
ATOM     17  O   UNL     1      48.981   6.429  13.355  0.00  0.00    +0.000 OA
BRANCH  17  18
ATOM     18  C   UNL     1      47.685   6.087  13.041  0.00  0.00    +0.000 A 
ATOM     19  C   UNL     1      46.971   6.534  11.923  0.00  0.00    +0.000 A 
ATOM     20  C   UNL     1      45.658   6.107  11.704  0.00  0.00    +0.000 A 
ATOM     21  C   UNL     1      45.048   5.214  12.592  0.00  0.00    +0.000 A 
ATOM     22  C   UNL     1      45.760   4.762  13.707  0.00  0.00    +0.000 A 
ATOM     23  C   UNL     1      47.067   5.211  13.935  0.00  0.00    +0.000 A 
BRANCH  21  24
ATOM     24  C   UNL     1      43.639   4.826  12.329  0.00  0.00    +0.000 C 
ATOM     25  N   UNL     1      42.665   5.434  13.067  0.00  0.00    +0.000 N 
ATOM     26  O   UNL     1      43.358   3.977  11.492  0.00  0.00    +0.000 OA
ATOM     27  H   UNL     1      42.838   6.073  13.827  0.00  0.00    +0.000 HD
ATOM     28  H   UNL     1      41.711   5.141  12.891  0.00  0.00    +0.000 HD
ENDBRANCH  21  24
ENDBRANCH  17  18
ENDBRANCH  16  17
ENDBRANCH  15  16
ENDBRANCH   5  15
TORSDOF 7
ENDMDL
MODEL 9
REMARK VINA RESULT:    -6.421      4.520      8.204
REMARK INTER + INTRA:          -9.924
REMARK INTER:                  -9.162
REMARK INTRA:                  -0.762
REMARK UNBOUND:                -0.876
REMARK  Name = 
REMARK  7 active torsions:
REMARK  status: ('A' for Active; 'I' for Inactive)
REMARK    1  A    between atoms: C_2  and  C_3
REMARK    2  A    between atoms: C_6  and  C_7
REMARK    3  A    between atoms: C_11  and  C_12
REMARK    4  A    between atoms: C_12  and  C_13
REMARK    5  A    between atoms: C_13  and  O_14
REMARK    6  A    between atoms: O_14  and  C_15
REMARK    7  A    between atoms: C_18  and  C_19
REMARK                            x       y       z     vdW  Elec       q    Type
REMARK                         _______ _______ _______ _____ _____    ______ ____
ROOT
ATOM      1  C   UNL     1      44.735   3.842  10.626  0.00  0.00    +0.000 A 
ATOM      2  C   UNL     1      43.821   3.028  11.294  0.00  0.00    +0.000 A 
ATOM      3  C   UNL     1      43.230   3.491  12.454  0.00  0.00    +0.000 A 
ATOM      4  C   UNL     1      43.567   4.751  12.923  0.00  0.00    +0.000 A 
ATOM      5  C   UNL     1      44.495   5.525  12.230  0.00  0.00    +0.000 A 
ATOM      6  N   UNL     1      45.083   5.072  11.092  0.00  0.00    +0.000 NA
ENDROOT
BRANCH   1  10
ATOM      7  C   UNL     1      46.590   2.747   6.985  0.00  0.00    +0.000 A 
ATOM      8  C   UNL     1      46.204   1.732   7.847  0.00  0.00    +0.000 A 
ATOM      9  C   UNL     1      45.577   2.080   9.044  0.00  0.00    +0.000 A 
ATOM     10  C   UNL     1      45.354   3.426   9.360  0.00  0.00    +0.000 A 
ATOM     11  C   UNL     1      45.772   4.358   8.405  0.00  0.00    +0.000 A 
ATOM     12  N   UNL     1      46.376   4.056   7.230  0.00  0.00    +0.000 NA
BRANCH   7  14
ATOM     13  N   UNL     1      47.822   2.159   4.781  0.00  0.00    +0.000 NA
ATOM     14  C   UNL     1      47.269   2.441   5.758  0.00  0.00    +0.000 C 
ENDBRANCH   7  14
ENDBRANCH   1  10
BRANCH   5  15
ATOM     15  C   UNL     1      44.902   6.914  12.693  0.00  0.00    +0.000 C 
BRANCH  15  16
ATOM     16  C   UNL     1      45.738   7.674  11.664  0.00  0.00    +0.000 C 
BRANCH  16  17
ATOM     17  O   UNL     1      46.471   8.750  12.244  0.00  0.00    +0.000 OA
BRANCH  17  18
ATOM     18  C   UNL     1      47.821   8.721  11.978  0.00  0.00    +0.000 A 
ATOM     19  C   UNL     1      48.601   7.568  11.837  0.00  0.00    +0.000 A 
ATOM     20  C   UNL     1      49.967   7.666  11.556  0.00  0.00    +0.000 A 
ATOM     21  C   UNL     1      50.567   8.919  11.396  0.00  0.00    +0.000 A 
ATOM     22  C   UNL     1      49.791  10.074  11.532  0.00  0.00    +0.000 A 
ATOM     23  C   UNL     1      48.427   9.971  11.837  0.00  0.00    +0.000 A 
BRANCH  21  24
ATOM     24  C   UNL     1      52.028   8.962  11.137  0.00  0.00    +0.000 C 
ATOM     25  N   UNL     1      52.440   9.165   9.851  0.00  0.00    +0.000 N 
ATOM     26  O   UNL     1      52.840   8.806  12.040  0.00  0.00    +0.000 OA
ATOM     27  H   UNL     1      51.823   9.214   9.055  0.00  0.00    +0.000 HD
ATOM     28  H   UNL     1      53.439   9.170   9.688  0.00  0.00    +0.000 HD
ENDBRANCH  21  24
ENDBRANCH  17  18
ENDBRANCH  16  17
ENDBRANCH  15  16
ENDBRANCH   5  15
TORSDOF 7
ENDMDL
