MODEL 1
REMARK VINA RESULT:    -8.422      0.000      0.000
REMARK INTER + INTRA:         -11.698
REMARK INTER:                 -10.884
REMARK INTRA:                  -0.814
REMARK UNBOUND:                -0.814
REMARK  Name = 
REMARK  5 active torsions:
REMARK  status: ('A' for Active; 'I' for Inactive)
REMARK    1  A    between atoms: C_2  and  C_4
REMARK    2  A    between atoms: C_8  and  C_9
REMARK    3  A    between atoms: C_9  and  C_10
REMARK    4  A    between atoms: C_10  and  C_11
REMARK    5  A    between atoms: C_15  and  C_16
REMARK                            x       y       z     vdW  Elec       q    Type
REMARK                         _______ _______ _______ _____ _____    ______ ____
ROOT
ATOM      1  C   UNL     1      45.356   7.108  11.092  0.00  0.00    +0.000 C 
ENDROOT
BRANCH   1   6
ATOM      2  C   UNL     1      47.354   5.658  13.983  0.00  0.00    +0.000 A 
ATOM      3  C   UNL     1      48.476   6.493  14.002  0.00  0.00    +0.000 A 
ATOM      4  C   UNL     1      48.577   7.542  13.088  0.00  0.00    +0.000 A 
ATOM      5  C   UNL     1      47.564   7.752  12.149  0.00  0.00    +0.000 A 
ATOM      6  C   UNL     1      46.437   6.919  12.123  0.00  0.00    +0.000 A 
ATOM      7  C   UNL     1      46.336   5.876  13.050  0.00  0.00    +0.000 A 
BRANCH   2   9
ATOM      8  N   UNL     1      47.374   3.302  14.451  0.00  0.00    +0.000 NA
ATOM      9  C   UNL     1      47.247   4.502  14.916  0.00  0.00    +0.000 C 
ATOM     10  N   UNL     1      47.008   4.705  16.243  0.00  0.00    +0.000 N 
ATOM     11  H   UNL     1      47.325   2.626  15.213  0.00  0.00    +0.000 HD
ATOM     12  H   UNL     1      46.627   3.909  16.741  0.00  0.00    +0.000 HD
ATOM     13  H   UNL     1      46.510   5.559  16.469  0.00  0.00    +0.000 HD
ENDBRANCH   2   9
ENDBRANCH   1   6
BRANCH   1  14
ATOM     14  C   UNL     1      44.081   6.318  11.435  0.00  0.00    +0.000 C 
BRANCH  14  15
ATOM     15  C   UNL     1      44.074   4.893  10.938  0.00  0.00    +0.000 A 
ATOM     16  C   UNL     1      43.312   3.922  11.574  0.00  0.00    +0.000 A 
ATOM     17  N   UNL     1      43.282   2.621  11.211  0.00  0.00    +0.000 NA
ATOM     18  C   UNL     1      44.063   2.263  10.163  0.00  0.00    +0.000 A 
ATOM     19  C   UNL     1      44.883   3.128   9.440  0.00  0.00    +0.000 A 
ATOM     20  C   UNL     1      44.869   4.463   9.870  0.00  0.00    +0.000 A 
BRANCH  19  21
ATOM     21  C   UNL     1      45.707   2.698   8.293  0.00  0.00    +0.000 A 
ATOM     22  C   UNL     1      46.019   3.577   7.240  0.00  0.00    +0.000 A 
ATOM     23  C   UNL     1      46.832   3.174   6.175  0.00  0.00    +0.000 A 
ATOM     24  C   UNL     1      47.362   1.890   6.143  0.00  0.00    +0.000 A 
ATOM     25  C   UNL     1      47.066   0.999   7.167  0.00  0.00    +0.000 A 
ATOM     26  C   UNL     1      46.243   1.397   8.224  0.00  0.00    +0.000 A 
ENDBRANCH  19  21
ENDBRANCH  14  15
ENDBRANCH   1  14
TORSDOF 5
ENDMDL
MODEL 2
REMARK VINA RESULT:    -7.937      1.218      1.775
REMARK INTER + INTRA:         -11.070
REMARK INTER:                 -10.241
REMARK INTRA:                  -0.829
REMARK UNBOUND:                -0.814
REMARK  Name = 
REMARK  5 active torsions:
REMARK  status: ('A' for Active; 'I' for Inactive)
REMARK    1  A    between atoms: C_2  and  C_4
REMARK    2  A    between atoms: C_8  and  C_9
REMARK    3  A    between atoms: C_9  and  C_10
REMARK    4  A    between atoms: C_10  and  C_11
REMARK    5  A    between atoms: C_15  and  C_16
REMARK                            x       y       z     vdW  Elec       q    Type
REMARK                         _______ _______ _______ _____ _____    ______ ____
ROOT
ATOM      1  C   UNL     1      46.592   5.995  12.693  0.00  0.00    +0.000 C 
ENDROOT
BRANCH   1   6
ATOM      2  C   UNL     1      47.849   4.593  15.995  0.00  0.00    +0.000 A 
ATOM      3  C   UNL     1      48.744   5.587  16.405  0.00  0.00    +0.000 A 
ATOM      4  C   UNL     1      48.926   6.725  15.619  0.00  0.00    +0.000 A 
ATOM      5  C   UNL     1      48.224   6.866  14.420  0.00  0.00    +0.000 A 
ATOM      6  C   UNL     1      47.326   5.875  14.002  0.00  0.00    +0.000 A 
ATOM      7  C   UNL     1      47.139   4.742  14.801  0.00  0.00    +0.000 A 
BRANCH   2   9
ATOM      8  N   UNL     1      46.578   3.172  17.457  0.00  0.00    +0.000 NA
ATOM      9  C   UNL     1      47.675   3.347  16.793  0.00  0.00    +0.000 C 
ATOM     10  N   UNL     1      48.662   2.408  16.833  0.00  0.00    +0.000 N 
ATOM     11  H   UNL     1      46.589   2.259  17.910  0.00  0.00    +0.000 HD
ATOM     12  H   UNL     1      48.626   1.776  17.623  0.00  0.00    +0.000 HD
ATOM     13  H   UNL     1      49.601   2.758  16.678  0.00  0.00    +0.000 HD
ENDBRANCH   2   9
ENDBRANCH   1   6
BRANCH   1  14
ATOM     14  C   UNL     1      45.107   5.607  12.822  0.00  0.00    +0.000 C 
BRANCH  14  15
ATOM     15  C   UNL     1      44.671   4.486  11.910  0.00  0.00    +0.000 A 
ATOM     16  C   UNL     1      43.600   3.671  12.248  0.00  0.00    +0.000 A 
ATOM     17  N   UNL     1      43.173   2.628  11.503  0.00  0.00    +0.000 NA
ATOM     18  C   UNL     1      43.859   2.374  10.362  0.00  0.00    +0.000 A 
ATOM     19  C   UNL     1      44.957   3.103   9.906  0.00  0.00    +0.000 A 
ATOM     20  C   UNL     1      45.348   4.170  10.727  0.00  0.00    +0.000 A 
BRANCH  19  21
ATOM     21  C   UNL     1      45.666   2.801   8.646  0.00  0.00    +0.000 A 
ATOM     22  C   UNL     1      45.916   3.798   7.685  0.00  0.00    +0.000 A 
ATOM     23  C   UNL     1      46.622   3.513   6.511  0.00  0.00    +0.000 A 
ATOM     24  C   UNL     1      47.104   2.232   6.275  0.00  0.00    +0.000 A 
ATOM     25  C   UNL     1      46.866   1.226   7.204  0.00  0.00    +0.000 A 
ATOM     26  C   UNL     1      46.149   1.507   8.371  0.00  0.00    +0.000 A 
ENDBRANCH  19  21
ENDBRANCH  14  15
ENDBRANCH   1  14
TORSDOF 5
ENDMDL
MODEL 3
REMARK VINA RESULT:    -7.830      2.292      6.693
REMARK INTER + INTRA:         -10.933
REMARK INTER:                 -10.235
REMARK INTRA:                  -0.697
REMARK UNBOUND:                -0.814
REMARK  Name = 
REMARK  5 active torsions:
REMARK  status: ('A' for Active; 'I' for Inactive)
REMARK    1  A    between atoms: C_2  and  C_4
REMARK    2  A    between atoms: C_8  and  C_9
REMARK    3  A    between atoms: C_9  and  C_10
REMARK    4  A    between atoms: C_10  and  C_11
REMARK    5  A    between atoms: C_15  and  C_16
REMARK                            x       y       z     vdW  Elec       q    Type
REMARK                         _______ _______ _______ _____ _____    ______ ____
ROOT
ATOM      1  C   UNL     1      43.964   2.851  10.496  0.00  0.00    +0.000 C 
ENDROOT
BRANCH   1   6
ATOM      2  C   UNL     1      46.432   2.020   7.728  0.00  0.00    +0.000 A 
ATOM      3  C   UNL     1      46.680   3.283   7.178  0.00  0.00    +0.000 A 
ATOM      4  C   UNL     1      46.060   4.410   7.718  0.00  0.00    +0.000 A 
ATOM      5  C   UNL     1      45.186   4.276   8.800  0.00  0.00    +0.000 A 
ATOM      6  C   UNL     1      44.933   3.016   9.356  0.00  0.00    +0.000 A 
ATOM      7  C   UNL     1      45.567   1.891   8.817  0.00  0.00    +0.000 A 
BRANCH   2   9
ATOM      8  N   UNL     1      46.861  -0.343   7.719  0.00  0.00    +0.000 NA
ATOM      9  C   UNL     1      47.044   0.798   7.137  0.00  0.00    +0.000 C 
ATOM     10  N   UNL     1      47.796   0.880   6.003  0.00  0.00    +0.000 N 
ATOM     11  H   UNL     1      47.298  -1.085   7.174  0.00  0.00    +0.000 HD
ATOM     12  H   UNL     1      48.433   0.108   5.849  0.00  0.00    +0.000 HD
ATOM     13  H   UNL     1      48.249   1.774   5.845  0.00  0.00    +0.000 HD
ENDBRANCH   2   9
ENDBRANCH   1   6
BRANCH   1  14
ATOM     14  C   UNL     1      43.706   4.177  11.236  0.00  0.00    +0.000 C 
BRANCH  14  15
ATOM     15  C   UNL     1      44.867   4.667  12.066  0.00  0.00    +0.000 A 
ATOM     16  C   UNL     1      45.269   3.978  13.202  0.00  0.00    +0.000 A 
ATOM     17  N   UNL     1      46.274   4.373  14.015  0.00  0.00    +0.000 NA
ATOM     18  C   UNL     1      46.907   5.525  13.685  0.00  0.00    +0.000 A 
ATOM     19  C   UNL     1      46.603   6.321  12.581  0.00  0.00    +0.000 A 
ATOM     20  C   UNL     1      45.549   5.855  11.781  0.00  0.00    +0.000 A 
BRANCH  19  21
ATOM     21  C   UNL     1      47.330   7.562  12.249  0.00  0.00    +0.000 A 
ATOM     22  C   UNL     1      46.723   8.826  12.368  0.00  0.00    +0.000 A 
ATOM     23  C   UNL     1      47.430  10.000  12.088  0.00  0.00    +0.000 A 
ATOM     24  C   UNL     1      48.761   9.941  11.695  0.00  0.00    +0.000 A 
ATOM     25  C   UNL     1      49.385   8.706  11.563  0.00  0.00    +0.000 A 
ATOM     26  C   UNL     1      48.675   7.532  11.829  0.00  0.00    +0.000 A 
ENDBRANCH  19  21
ENDBRANCH  14  15
ENDBRANCH   1  14
TORSDOF 5
ENDMDL
MODEL 4
REMARK VINA RESULT:    -7.830      1.762      2.263
REMARK INTER + INTRA:         -10.932
REMARK INTER:                 -10.128
REMARK INTRA:                  -0.804
REMARK UNBOUND:                -0.814
REMARK  Name = 
REMARK  5 active torsions:
REMARK  status: ('A' for Active; 'I' for Inactive)
REMARK    1  A    between atoms: C_2  and  C_4
REMARK    2  A    between atoms: C_8  and  C_9
REMARK    3  A    between atoms: C_9  and  C_10
REMARK    4  A    between atoms: C_10  and  C_11
REMARK    5  A    between atoms: C_15  and  C_16
REMARK                            x       y       z     vdW  Elec       q    Type
REMARK                         _______ _______ _______ _____ _____    ______ ____
ROOT
ATOM      1  C   UNL     1      44.749   6.565  12.754  0.00  0.00    +0.000 C 
ENDROOT
BRANCH   1   6
ATOM      2  C   UNL     1      48.258   8.025  12.788  0.00  0.00    +0.000 A 
ATOM      3  C   UNL     1      48.022   9.345  12.391  0.00  0.00    +0.000 A 
ATOM      4  C   UNL     1      46.719   9.770  12.131  0.00  0.00    +0.000 A 
ATOM      5  C   UNL     1      45.653   8.875  12.256  0.00  0.00    +0.000 A 
ATOM      6  C   UNL     1      45.882   7.551  12.652  0.00  0.00    +0.000 A 
ATOM      7  C   UNL     1      47.190   7.135  12.924  0.00  0.00    +0.000 A 
BRANCH   2   9
ATOM      8  N   UNL     1      49.936   6.989  14.159  0.00  0.00    +0.000 NA
ATOM      9  C   UNL     1      49.645   7.536  13.024  0.00  0.00    +0.000 C 
ATOM     10  N   UNL     1      50.599   7.672  12.060  0.00  0.00    +0.000 N 
ATOM     11  H   UNL     1      50.903   6.665  14.151  0.00  0.00    +0.000 HD
ATOM     12  H   UNL     1      51.556   7.632  12.389  0.00  0.00    +0.000 HD
ATOM     13  H   UNL     1      50.460   8.443  11.416  0.00  0.00    +0.000 HD
ENDBRANCH   2   9
ENDBRANCH   1   6
BRANCH   1  14
ATOM     14  C   UNL     1      44.041   6.351  11.403  0.00  0.00    +0.000 C 
BRANCH  14  15
ATOM     15  C   UNL     1      44.054   4.925  10.908  0.00  0.00    +0.000 A 
ATOM     16  C   UNL     1      43.303   3.946  11.543  0.00  0.00    +0.000 A 
ATOM     17  N   UNL     1      43.291   2.643  11.182  0.00  0.00    +0.000 NA
ATOM     18  C   UNL     1      44.080   2.294  10.137  0.00  0.00    +0.000 A 
ATOM     19  C   UNL     1      44.890   3.169   9.415  0.00  0.00    +0.000 A 
ATOM     20  C   UNL     1      44.858   4.504   9.843  0.00  0.00    +0.000 A 
BRANCH  19  21
ATOM     21  C   UNL     1      45.723   2.748   8.270  0.00  0.00    +0.000 A 
ATOM     22  C   UNL     1      46.047   3.637   7.229  0.00  0.00    +0.000 A 
ATOM     23  C   UNL     1      46.868   3.242   6.167  0.00  0.00    +0.000 A 
ATOM     24  C   UNL     1      47.394   1.957   6.127  0.00  0.00    +0.000 A 
ATOM     25  C   UNL     1      47.086   1.055   7.139  0.00  0.00    +0.000 A 
ATOM     26  C   UNL     1      46.254   1.445   8.192  0.00  0.00    +0.000 A 
ENDBRANCH  19  21
ENDBRANCH  14  15
ENDBRANCH   1  14
TORSDOF 5
ENDMDL
MODEL 5
REMARK VINA RESULT:    -7.609      2.739      3.324
REMARK INTER + INTRA:         -10.647
REMARK INTER:                  -9.817
REMARK INTRA:                  -0.829
REMARK UNBOUND:                -0.814
REMARK  Name = 
REMARK  5 active torsions:
REMARK  status: ('A' for Active; 'I' for Inactive)
REMARK    1  A    between atoms: C_2  and  C_4
REMARK    2  A    between atoms: C_8  and  C_9
REMARK    3  A    between atoms: C_9  and  C_10
REMARK    4  A    between atoms: C_10  and  C_11
REMARK    5  A    between atoms: C_15  and  C_16
REMARK                            x       y       z     vdW  Elec       q    Type
REMARK                         _______ _______ _______ _____ _____    ______ ____
ROOT
ATOM      1  C   UNL     1      45.486   6.717  12.693  0.00  0.00    +0.000 C 
ENDROOT
BRANCH   1   6
ATOM      2  C   UNL     1      47.743   9.654  11.837  0.00  0.00    +0.000 A 
ATOM      3  C   UNL     1      48.991   9.032  11.725  0.00  0.00    +0.000 A 
ATOM      4  C   UNL     1      49.099   7.653  11.909  0.00  0.00    +0.000 A 
ATOM      5  C   UNL     1      47.964   6.897  12.213  0.00  0.00    +0.000 A 
ATOM      6  C   UNL     1      46.711   7.512  12.327  0.00  0.00    +0.000 A 
ATOM      7  C   UNL     1      46.608   8.893  12.130  0.00  0.00    +0.000 A 
BRANCH   2   9
ATOM      8  N   UNL     1      48.285  11.737  10.772  0.00  0.00    +0.000 NA
ATOM      9  C   UNL     1      47.611  11.130  11.694  0.00  0.00    +0.000 C 
ATOM     10  N   UNL     1      46.799  11.836  12.531  0.00  0.00    +0.000 N 
ATOM     11  H   UNL     1      48.055  12.730  10.769  0.00  0.00    +0.000 HD
ATOM     12  H   UNL     1      47.003  12.825  12.600  0.00  0.00    +0.000 HD
ATOM     13  H   UNL     1      46.651  11.422  13.445  0.00  0.00    +0.000 HD
ENDBRANCH   2   9
ENDBRANCH   1   6
BRANCH   1  14
ATOM     14  C   UNL     1      44.505   6.585  11.513  0.00  0.00    +0.000 C 
BRANCH  14  15
ATOM     15  C   UNL     1      44.340   5.179  10.990  0.00  0.00    +0.000 A 
ATOM     16  C   UNL     1      43.463   4.292  11.599  0.00  0.00    +0.000 A 
ATOM     17  N   UNL     1      43.288   3.009  11.212  0.00  0.00    +0.000 NA
ATOM     18  C   UNL     1      44.036   2.581  10.166  0.00  0.00    +0.000 A 
ATOM     19  C   UNL     1      44.960   3.359   9.468  0.00  0.00    +0.000 A 
ATOM     20  C   UNL     1      45.094   4.679   9.922  0.00  0.00    +0.000 A 
BRANCH  19  21
ATOM     21  C   UNL     1      45.743   2.856   8.322  0.00  0.00    +0.000 A 
ATOM     22  C   UNL     1      46.080   3.688   7.238  0.00  0.00    +0.000 A 
ATOM     23  C   UNL     1      46.855   3.216   6.174  0.00  0.00    +0.000 A 
ATOM     24  C   UNL     1      47.322   1.907   6.172  0.00  0.00    +0.000 A 
ATOM     25  C   UNL     1      47.001   1.061   7.227  0.00  0.00    +0.000 A 
ATOM     26  C   UNL     1      46.214   1.529   8.283  0.00  0.00    +0.000 A 
ENDBRANCH  19  21
ENDBRANCH  14  15
ENDBRANCH   1  14
TORSDOF 5
ENDMDL
MODEL 6
REMARK VINA RESULT:    -7.391      2.794      7.222
REMARK INTER + INTRA:         -10.365
REMARK INTER:                  -9.495
REMARK INTRA:                  -0.871
REMARK UNBOUND:                -0.814
REMARK  Name = 
REMARK  5 active torsions:
REMARK  status: ('A' for Active; 'I' for Inactive)
REMARK    1  A    between atoms: C_2  and  C_4
REMARK    2  A    between atoms: C_8  and  C_9
REMARK    3  A    between atoms: C_9  and  C_10
REMARK    4  A    between atoms: C_10  and  C_11
REMARK    5  A    between atoms: C_15  and  C_16
REMARK                            x       y       z     vdW  Elec       q    Type
REMARK                         _______ _______ _______ _____ _____    ______ ____
ROOT
ATOM      1  C   UNL     1      45.125   5.433   9.616  0.00  0.00    +0.000 C 
ENDROOT
BRANCH   1   6
ATOM      2  C   UNL     1      46.494   2.703   7.353  0.00  0.00    +0.000 A 
ATOM      3  C   UNL     1      45.964   1.550   7.943  0.00  0.00    +0.000 A 
ATOM      4  C   UNL     1      45.144   1.660   9.067  0.00  0.00    +0.000 A 
ATOM      5  C   UNL     1      44.861   2.916   9.607  0.00  0.00    +0.000 A 
ATOM      6  C   UNL     1      45.389   4.075   9.022  0.00  0.00    +0.000 A 
ATOM      7  C   UNL     1      46.201   3.959   7.889  0.00  0.00    +0.000 A 
BRANCH   2   9
ATOM      8  N   UNL     1      46.911   2.558   4.992  0.00  0.00    +0.000 NA
ATOM      9  C   UNL     1      47.412   2.607   6.184  0.00  0.00    +0.000 C 
ATOM     10  N   UNL     1      48.762   2.563   6.366  0.00  0.00    +0.000 N 
ATOM     11  H   UNL     1      47.660   2.543   4.301  0.00  0.00    +0.000 HD
ATOM     12  H   UNL     1      49.290   2.175   5.594  0.00  0.00    +0.000 HD
ATOM     13  H   UNL     1      49.068   2.182   7.255  0.00  0.00    +0.000 HD
ENDBRANCH   2   9
ENDBRANCH   1   6
BRANCH   1  14
ATOM     14  C   UNL     1      44.987   5.381  11.148  0.00  0.00    +0.000 C 
BRANCH  14  15
ATOM     15  C   UNL     1      46.233   5.770  11.903  0.00  0.00    +0.000 A 
ATOM     16  C   UNL     1      46.589   5.115  13.075  0.00  0.00    +0.000 A 
ATOM     17  N   UNL     1      47.668   5.429  13.825  0.00  0.00    +0.000 NA
ATOM     18  C   UNL     1      48.431   6.463  13.391  0.00  0.00    +0.000 A 
ATOM     19  C   UNL     1      48.188   7.212  12.241  0.00  0.00    +0.000 A 
ATOM     20  C   UNL     1      47.052   6.835  11.510  0.00  0.00    +0.000 A 
BRANCH  19  21
ATOM     21  C   UNL     1      49.056   8.321  11.795  0.00  0.00    +0.000 A 
ATOM     22  C   UNL     1      50.419   8.121  11.513  0.00  0.00    +0.000 A 
ATOM     23  C   UNL     1      51.227   9.168  11.054  0.00  0.00    +0.000 A 
ATOM     24  C   UNL     1      50.689  10.433  10.855  0.00  0.00    +0.000 A 
ATOM     25  C   UNL     1      49.346  10.661  11.131  0.00  0.00    +0.000 A 
ATOM     26  C   UNL     1      48.543   9.619  11.603  0.00  0.00    +0.000 A 
ENDBRANCH  19  21
ENDBRANCH  14  15
ENDBRANCH   1  14
TORSDOF 5
ENDMDL
MODEL 7
REMARK VINA RESULT:    -7.068      2.782      3.553
REMARK INTER + INTRA:          -9.948
REMARK INTER:                  -9.047
REMARK INTRA:                  -0.901
REMARK UNBOUND:                -0.814
REMARK  Name = 
REMARK  5 active torsions:
REMARK  status: ('A' for Active; 'I' for Inactive)
REMARK    1  A    between atoms: C_2  and  C_4
REMARK    2  A    between atoms: C_8  and  C_9
REMARK    3  A    between atoms: C_9  and  C_10
REMARK    4  A    between atoms: C_10  and  C_11
REMARK    5  A    between atoms: C_15  and  C_16
REMARK                            x       y       z     vdW  Elec       q    Type
REMARK                         _______ _______ _______ _____ _____    ______ ____
ROOT
ATOM      1  C   UNL     1      47.092   6.826  12.881  0.00  0.00    +0.000 C 
ENDROOT
BRANCH   1   6
ATOM      2  C   UNL     1      50.098   8.645  11.429  0.00  0.00    +0.000 A 
ATOM      3  C   UNL     1      49.606   9.948  11.295  0.00  0.00    +0.000 A 
ATOM      4  C   UNL     1      48.302  10.242  11.695  0.00  0.00    +0.000 A 
ATOM      5  C   UNL     1      47.487   9.236  12.218  0.00  0.00    +0.000 A 
ATOM      6  C   UNL     1      47.972   7.929  12.355  0.00  0.00    +0.000 A 
ATOM      7  C   UNL     1      49.284   7.643  11.964  0.00  0.00    +0.000 A 
BRANCH   2   9
ATOM      8  N   UNL     1      52.329   9.243  10.769  0.00  0.00    +0.000 NA
ATOM      9  C   UNL     1      51.469   8.296  10.964  0.00  0.00    +0.000 C 
ATOM     10  N   UNL     1      51.812   6.996  10.736  0.00  0.00    +0.000 N 
ATOM     11  H   UNL     1      53.228   8.845  10.500  0.00  0.00    +0.000 HD
ATOM     12  H   UNL     1      52.609   6.859  10.127  0.00  0.00    +0.000 HD
ATOM     13  H   UNL     1      51.044   6.381  10.489  0.00  0.00    +0.000 HD
ENDBRANCH   2   9
ENDBRANCH   1   6
BRANCH   1  14
ATOM     14  C   UNL     1      45.597   7.125  12.672  0.00  0.00    +0.000 C 
BRANCH  14  15
ATOM     15  C   UNL     1      44.851   6.074  11.887  0.00  0.00    +0.000 A 
ATOM     16  C   UNL     1      43.534   5.761  12.191  0.00  0.00    +0.000 A 
ATOM     17  N   UNL     1      42.813   4.809  11.558  0.00  0.00    +0.000 NA
ATOM     18  C   UNL     1      43.443   4.121  10.574  0.00  0.00    +0.000 A 
ATOM     19  C   UNL     1      44.762   4.324  10.172  0.00  0.00    +0.000 A 
ATOM     20  C   UNL     1      45.454   5.324  10.870  0.00  0.00    +0.000 A 
BRANCH  19  21
ATOM     21  C   UNL     1      45.405   3.561   9.082  0.00  0.00    +0.000 A 
ATOM     22  C   UNL     1      45.994   4.207   7.980  0.00  0.00    +0.000 A 
ATOM     23  C   UNL     1      46.636   3.480   6.971  0.00  0.00    +0.000 A 
ATOM     24  C   UNL     1      46.714   2.095   7.045  0.00  0.00    +0.000 A 
ATOM     25  C   UNL     1      46.136   1.430   8.120  0.00  0.00    +0.000 A 
ATOM     26  C   UNL     1      45.483   2.155   9.121  0.00  0.00    +0.000 A 
ENDBRANCH  19  21
ENDBRANCH  14  15
ENDBRANCH   1  14
TORSDOF 5
ENDMDL
MODEL 8
REMARK VINA RESULT:    -7.007      2.453      7.117
REMARK INTER + INTRA:          -9.869
REMARK INTER:                  -9.624
REMARK INTRA:                  -0.245
REMARK UNBOUND:                -0.814
REMARK  Name = 
REMARK  5 active torsions:
REMARK  status: ('A' for Active; 'I' for Inactive)
REMARK    1  A    between atoms: C_2  and  C_4
REMARK    2  A    between atoms: C_8  and  C_9
REMARK    3  A    between atoms: C_9  and  C_10
REMARK    4  A    between atoms: C_10  and  C_11
REMARK    5  A    between atoms: C_15  and  C_16
REMARK                            x       y       z     vdW  Elec       q    Type
REMARK                         _______ _______ _______ _____ _____    ______ ____
ROOT
ATOM      1  C   UNL     1      44.176   2.995  10.590  0.00  0.00    +0.000 C 
ENDROOT
BRANCH   1   6
ATOM      2  C   UNL     1      46.470   2.008   7.724  0.00  0.00    +0.000 A 
ATOM      3  C   UNL     1      46.727   3.246   7.125  0.00  0.00    +0.000 A 
ATOM      4  C   UNL     1      46.172   4.407   7.664  0.00  0.00    +0.000 A 
ATOM      5  C   UNL     1      45.352   4.332   8.792  0.00  0.00    +0.000 A 
ATOM      6  C   UNL     1      45.088   3.096   9.397  0.00  0.00    +0.000 A 
ATOM      7  C   UNL     1      45.659   1.937   8.860  0.00  0.00    +0.000 A 
BRANCH   2   9
ATOM      8  N   UNL     1      46.885  -0.357   7.796  0.00  0.00    +0.000 NA
ATOM      9  C   UNL     1      47.012   0.750   7.139  0.00  0.00    +0.000 C 
ATOM     10  N   UNL     1      47.643   0.766   5.931  0.00  0.00    +0.000 N 
ATOM     11  H   UNL     1      47.260  -1.131   7.249  0.00  0.00    +0.000 HD
ATOM     12  H   UNL     1      48.257  -0.019   5.754  0.00  0.00    +0.000 HD
ATOM     13  H   UNL     1      48.081   1.646   5.681  0.00  0.00    +0.000 HD
ENDBRANCH   2   9
ENDBRANCH   1   6
BRANCH   1  14
ATOM     14  C   UNL     1      43.794   4.378  11.149  0.00  0.00    +0.000 C 
BRANCH  14  15
ATOM     15  C   UNL     1      44.929   5.124  11.805  0.00  0.00    +0.000 A 
ATOM     16  C   UNL     1      45.438   6.285  11.239  0.00  0.00    +0.000 A 
ATOM     17  N   UNL     1      46.475   6.988  11.746  0.00  0.00    +0.000 NA
ATOM     18  C   UNL     1      47.046   6.501  12.875  0.00  0.00    +0.000 A 
ATOM     19  C   UNL     1      46.645   5.344  13.543  0.00  0.00    +0.000 A 
ATOM     20  C   UNL     1      45.565   4.662  12.963  0.00  0.00    +0.000 A 
BRANCH  19  21
ATOM     21  C   UNL     1      47.286   4.858  14.781  0.00  0.00    +0.000 A 
ATOM     22  C   UNL     1      47.280   3.495  15.127  0.00  0.00    +0.000 A 
ATOM     23  C   UNL     1      47.922   3.036  16.282  0.00  0.00    +0.000 A 
ATOM     24  C   UNL     1      48.595   3.925  17.112  0.00  0.00    +0.000 A 
ATOM     25  C   UNL     1      48.612   5.279  16.798  0.00  0.00    +0.000 A 
ATOM     26  C   UNL     1      47.959   5.739  15.651  0.00  0.00    +0.000 A 
ENDBRANCH  19  21
ENDBRANCH  14  15
ENDBRANCH   1  14
TORSDOF 5
ENDMDL
MODEL 9
REMARK VINA RESULT:    -6.940      2.440      7.513
REMARK INTER + INTRA:          -9.783
REMARK INTER:                  -8.783
REMARK INTRA:                  -1.000
REMARK UNBOUND:                -0.814
REMARK  Name = 
REMARK  5 active torsions:
REMARK  status: ('A' for Active; 'I' for Inactive)
REMARK    1  A    between atoms: C_2  and  C_4
REMARK    2  A    between atoms: C_8  and  C_9
REMARK    3  A    between atoms: C_9  and  C_10
REMARK    4  A    between atoms: C_10  and  C_11
REMARK    5  A    between atoms: C_15  and  C_16
REMARK                            x       y       z     vdW  Elec       q    Type
REMARK                         _______ _______ _______ _____ _____    ______ ____
ROOT
ATOM      1  C   UNL     1      45.447   7.059  11.904  0.00  0.00    +0.000 C 
ENDROOT
BRANCH   1   6
ATOM      2  C   UNL     1      44.286   3.711  10.528  0.00  0.00    +0.000 A 
ATOM      3  C   UNL     1      43.603   3.173  11.623  0.00  0.00    +0.000 A 
ATOM      4  C   UNL     1      43.501   3.906  12.806  0.00  0.00    +0.000 A 
ATOM      5  C   UNL     1      44.089   5.170  12.899  0.00  0.00    +0.000 A 
ATOM      6  C   UNL     1      44.775   5.715  11.807  0.00  0.00    +0.000 A 
ATOM      7  C   UNL     1      44.863   4.981  10.619  0.00  0.00    +0.000 A 
BRANCH   2   9
ATOM      8  N   UNL     1      44.334   3.531   8.133  0.00  0.00    +0.000 NA
ATOM      9  C   UNL     1      44.449   2.928   9.271  0.00  0.00    +0.000 C 
ATOM     10  N   UNL     1      44.707   1.590   9.320  0.00  0.00    +0.000 N 
ATOM     11  H   UNL     1      44.518   2.877   7.373  0.00  0.00    +0.000 HD
ATOM     12  H   UNL     1      44.481   1.075   8.477  0.00  0.00    +0.000 HD
ATOM     13  H   UNL     1      44.371   1.113  10.149  0.00  0.00    +0.000 HD
ENDBRANCH   2   9
ENDBRANCH   1   6
BRANCH   1  14
ATOM     14  C   UNL     1      46.978   6.954  11.780  0.00  0.00    +0.000 C 
BRANCH  14  15
ATOM     15  C   UNL     1      47.723   7.087  13.086  0.00  0.00    +0.000 A 
ATOM     16  C   UNL     1      48.546   8.179  13.326  0.00  0.00    +0.000 A 
ATOM     17  N   UNL     1      49.272   8.351  14.452  0.00  0.00    +0.000 NA
ATOM     18  C   UNL     1      49.183   7.375  15.389  0.00  0.00    +0.000 A 
ATOM     19  C   UNL     1      48.405   6.224  15.277  0.00  0.00    +0.000 A 
ATOM     20  C   UNL     1      47.678   6.107  14.083  0.00  0.00    +0.000 A 
BRANCH  19  21
ATOM     21  C   UNL     1      48.323   5.192  16.331  0.00  0.00    +0.000 A 
ATOM     22  C   UNL     1      47.305   4.222  16.335  0.00  0.00    +0.000 A 
ATOM     23  C   UNL     1      47.256   3.224  17.314  0.00  0.00    +0.000 A 
ATOM     24  C   UNL     1      48.229   3.165  18.305  0.00  0.00    +0.000 A 
ATOM     25  C   UNL     1      49.244   4.115  18.329  0.00  0.00    +0.000 A 
ATOM     26  C   UNL     1      49.285   5.119  17.359  0.00  0.00    +0.000 A 
ENDBRANCH  19  21
ENDBRANCH  14  15
ENDBRANCH   1  14
TORSDOF 5
ENDMDL
