MODEL 1
REMARK VINA RESULT:    -6.968      0.000      0.000
REMARK INTER + INTRA:         -11.673
REMARK INTER:                 -10.226
REMARK INTRA:                  -1.447
REMARK UNBOUND:                -1.447
REMARK  Name = 
REMARK  10 active torsions:
REMARK  status: ('A' for Active; 'I' for Inactive)
REMARK    1  A    between atoms: C_1  and  C_2
REMARK    2  A    between atoms: C_2  and  C_3
REMARK    3  A    between atoms: C_2  and  C_4
REMARK    4  A    between atoms: C_4  and  N_5
REMARK    5  A    between atoms: N_5  and  C_6
REMARK    6  A    between atoms: C_6  and  C_7
REMARK    7  A    between atoms: C_7  and  C_8
REMARK    8  A    between atoms: C_12  and  O_13
REMARK    9  A    between atoms: O_13  and  C_14
REMARK   10  A    between atoms: C_23  and  C_24
REMARK                            x       y       z     vdW  Elec       q    Type
REMARK                         _______ _______ _______ _____ _____    ______ ____
ROOT
ATOM      1  N   UNL     1      47.312   5.135  14.248  0.00  0.00    +0.000 N 
ATOM      2  C   UNL     1      47.768   5.029  15.591  0.00  0.00    +0.000 A 
ATOM      3  C   UNL     1      46.985   4.370  16.542  0.00  0.00    +0.000 A 
ATOM      4  C   UNL     1      47.438   4.205  17.850  0.00  0.00    +0.000 A 
ATOM      5  C   UNL     1      48.679   4.711  18.218  0.00  0.00    +0.000 A 
ATOM      6  C   UNL     1      49.393   5.373  17.233  0.00  0.00    +0.000 A 
ATOM      7  N   UNL     1      48.964   5.545  15.954  0.00  0.00    +0.000 NA
ENDROOT
BRANCH   5   8
ATOM      8  C   UNL     1      49.135   4.511  19.616  0.00  0.00    +0.000 C 
ATOM      9  N   UNL     1      48.542   3.539  20.375  0.00  0.00    +0.000 N 
ATOM     10  O   UNL     1      50.025   5.195  20.095  0.00  0.00    +0.000 OA
ATOM     11  H   UNL     1      47.803   2.922  20.082  0.00  0.00    +0.000 HD
ATOM     12  H   UNL     1      48.891   3.441  21.320  0.00  0.00    +0.000 HD
ENDBRANCH   5   8
BRANCH   1  13
ATOM     13  C   UNL     1      47.894   6.310  13.557  0.00  0.00    +0.000 C 
BRANCH  13  15
ATOM     14  C   UNL     1      46.002   7.866  12.693  0.00  0.00    +0.000 C 
ATOM     15  C   UNL     1      47.141   6.910  12.349  0.00  0.00    +0.000 C 
ATOM     16  C   UNL     1      48.135   7.688  11.465  0.00  0.00    +0.000 C 
ENDBRANCH  13  15
ENDBRANCH   1  13
BRANCH   1  17
ATOM     17  C   UNL     1      47.209   3.805  13.592  0.00  0.00    +0.000 C 
BRANCH  17  18
ATOM     18  C   UNL     1      45.719   3.451  13.425  0.00  0.00    +0.000 C 
BRANCH  18  19
ATOM     19  C   UNL     1      44.927   3.789  12.188  0.00  0.00    +0.000 A 
ATOM     20  C   UNL     1      44.074   4.904  12.300  0.00  0.00    +0.000 A 
ATOM     21  C   UNL     1      43.430   5.435  11.190  0.00  0.00    +0.000 A 
ATOM     22  C   UNL     1      43.618   4.850   9.942  0.00  0.00    +0.000 A 
ATOM     23  C   UNL     1      44.420   3.716   9.811  0.00  0.00    +0.000 A 
ATOM     24  C   UNL     1      45.070   3.182  10.938  0.00  0.00    +0.000 A 
BRANCH  23  25
ATOM     25  O   UNL     1      44.692   3.083   8.625  0.00  0.00    +0.000 OA
BRANCH  25  26
ATOM     26  C   UNL     1      46.061   2.876   8.270  0.00  0.00    +0.000 C 
ATOM     27  C   UNL     1      46.391   3.503   6.916  0.00  0.00    +0.000 C 
ATOM     28  C   UNL     1      47.355   2.558   6.216  0.00  0.00    +0.000 C 
ATOM     29  C   UNL     1      47.402   1.276   7.035  0.00  0.00    +0.000 C 
ATOM     30  C   UNL     1      46.285   1.380   8.061  0.00  0.00    +0.000 C 
ENDBRANCH  25  26
ENDBRANCH  23  25
ENDBRANCH  18  19
ENDBRANCH  17  18
ENDBRANCH   1  17
TORSDOF 8
ENDMDL
MODEL 2
REMARK VINA RESULT:    -6.787      2.932      4.596
REMARK INTER + INTRA:         -11.408
REMARK INTER:                  -9.795
REMARK INTRA:                  -1.613
REMARK UNBOUND:                -1.447
REMARK  Name = 
REMARK  10 active torsions:
REMARK  status: ('A' for Active; 'I' for Inactive)
REMARK    1  A    between atoms: C_1  and  C_2
REMARK    2  A    between atoms: C_2  and  C_3
REMARK    3  A    between atoms: C_2  and  C_4
REMARK    4  A    between atoms: C_4  and  N_5
REMARK    5  A    between atoms: N_5  and  C_6
REMARK    6  A    between atoms: C_6  and  C_7
REMARK    7  A    between atoms: C_7  and  C_8
REMARK    8  A    between atoms: C_12  and  O_13
REMARK    9  A    between atoms: O_13  and  C_14
REMARK   10  A    between atoms: C_23  and  C_24
REMARK                            x       y       z     vdW  Elec       q    Type
REMARK                         _______ _______ _______ _____ _____    ______ ____
ROOT
ATOM      1  N   UNL     1      46.688   6.553  12.991  0.00  0.00    +0.000 N 
ATOM      2  C   UNL     1      48.010   7.074  12.926  0.00  0.00    +0.000 A 
ATOM      3  C   UNL     1      48.482   7.627  11.732  0.00  0.00    +0.000 A 
ATOM      4  C   UNL     1      49.753   8.194  11.661  0.00  0.00    +0.000 A 
ATOM      5  C   UNL     1      50.568   8.200  12.786  0.00  0.00    +0.000 A 
ATOM      6  C   UNL     1      50.049   7.614  13.928  0.00  0.00    +0.000 A 
ATOM      7  N   UNL     1      48.812   7.055  14.014  0.00  0.00    +0.000 NA
ENDROOT
BRANCH   5   8
ATOM      8  C   UNL     1      51.914   8.818  12.679  0.00  0.00    +0.000 C 
ATOM      9  N   UNL     1      53.013   8.072  13.004  0.00  0.00    +0.000 N 
ATOM     10  O   UNL     1      52.051   9.972  12.308  0.00  0.00    +0.000 OA
ATOM     11  H   UNL     1      53.014   7.117  13.321  0.00  0.00    +0.000 HD
ATOM     12  H   UNL     1      53.907   8.538  12.912  0.00  0.00    +0.000 HD
ENDBRANCH   5   8
BRANCH   1  13
ATOM     13  C   UNL     1      46.555   5.512  14.038  0.00  0.00    +0.000 C 
BRANCH  13  15
ATOM     14  C   UNL     1      47.495   3.276  14.970  0.00  0.00    +0.000 C 
ATOM     15  C   UNL     1      47.091   4.092  13.746  0.00  0.00    +0.000 C 
ATOM     16  C   UNL     1      46.012   3.285  12.998  0.00  0.00    +0.000 C 
ENDBRANCH  13  15
ENDBRANCH   1  13
BRANCH   1  17
ATOM     17  C   UNL     1      45.665   7.615  12.801  0.00  0.00    +0.000 C 
BRANCH  17  18
ATOM     18  C   UNL     1      45.029   7.444  11.408  0.00  0.00    +0.000 C 
BRANCH  18  19
ATOM     19  C   UNL     1      44.964   6.119  10.693  0.00  0.00    +0.000 A 
ATOM     20  C   UNL     1      43.864   5.304  11.024  0.00  0.00    +0.000 A 
ATOM     21  C   UNL     1      43.583   4.146  10.309  0.00  0.00    +0.000 A 
ATOM     22  C   UNL     1      44.408   3.772   9.255  0.00  0.00    +0.000 A 
ATOM     23  C   UNL     1      45.532   4.535   8.937  0.00  0.00    +0.000 A 
ATOM     24  C   UNL     1      45.813   5.706   9.662  0.00  0.00    +0.000 A 
BRANCH  23  25
ATOM     25  O   UNL     1      46.391   4.269   7.901  0.00  0.00    +0.000 OA
BRANCH  25  26
ATOM     26  C   UNL     1      46.139   3.113   7.098  0.00  0.00    +0.000 C 
ATOM     27  C   UNL     1      46.899   1.893   7.616  0.00  0.00    +0.000 C 
ATOM     28  C   UNL     1      47.364   1.112   6.397  0.00  0.00    +0.000 C 
ATOM     29  C   UNL     1      47.098   1.984   5.177  0.00  0.00    +0.000 C 
ATOM     30  C   UNL     1      46.717   3.357   5.705  0.00  0.00    +0.000 C 
ENDBRANCH  25  26
ENDBRANCH  23  25
ENDBRANCH  18  19
ENDBRANCH  17  18
ENDBRANCH   1  17
TORSDOF 8
ENDMDL
MODEL 3
REMARK VINA RESULT:    -6.722      4.557      6.857
REMARK INTER + INTRA:         -11.313
REMARK INTER:                  -9.876
REMARK INTRA:                  -1.436
REMARK UNBOUND:                -1.447
REMARK  Name = 
REMARK  10 active torsions:
REMARK  status: ('A' for Active; 'I' for Inactive)
REMARK    1  A    between atoms: C_1  and  C_2
REMARK    2  A    between atoms: C_2  and  C_3
REMARK    3  A    between atoms: C_2  and  C_4
REMARK    4  A    between atoms: C_4  and  N_5
REMARK    5  A    between atoms: N_5  and  C_6
REMARK    6  A    between atoms: C_6  and  C_7
REMARK    7  A    between atoms: C_7  and  C_8
REMARK    8  A    between atoms: C_12  and  O_13
REMARK    9  A    between atoms: O_13  and  C_14
REMARK   10  A    between atoms: C_23  and  C_24
REMARK                            x       y       z     vdW  Elec       q    Type
REMARK                         _______ _______ _______ _____ _____    ______ ____
ROOT
ATOM      1  N   UNL     1      46.116   9.333  11.949  0.00  0.00    +0.000 N 
ATOM      2  C   UNL     1      44.840   9.825  11.561  0.00  0.00    +0.000 A 
ATOM      3  C   UNL     1      43.901   8.957  10.997  0.00  0.00    +0.000 A 
ATOM      4  C   UNL     1      42.625   9.404  10.661  0.00  0.00    +0.000 A 
ATOM      5  C   UNL     1      42.282  10.733  10.879  0.00  0.00    +0.000 A 
ATOM      6  C   UNL     1      43.265  11.544  11.418  0.00  0.00    +0.000 A 
ATOM      7  N   UNL     1      44.516  11.125  11.749  0.00  0.00    +0.000 NA
ENDROOT
BRANCH   5   8
ATOM      8  C   UNL     1      40.911  11.176  10.518  0.00  0.00    +0.000 C 
ATOM      9  N   UNL     1      39.880  10.281  10.611  0.00  0.00    +0.000 N 
ATOM     10  O   UNL     1      40.694  12.316  10.144  0.00  0.00    +0.000 OA
ATOM     11  H   UNL     1      39.947   9.322  10.905  0.00  0.00    +0.000 HD
ATOM     12  H   UNL     1      38.965  10.633  10.356  0.00  0.00    +0.000 HD
ENDBRANCH   5   8
BRANCH   1  13
ATOM     13  C   UNL     1      47.146  10.401  11.941  0.00  0.00    +0.000 C 
BRANCH  13  15
ATOM     14  C   UNL     1      49.656  10.656  11.325  0.00  0.00    +0.000 C 
ATOM     15  C   UNL     1      48.613  10.018  12.238  0.00  0.00    +0.000 C 
ATOM     16  C   UNL     1      48.963  10.429  13.682  0.00  0.00    +0.000 C 
ENDBRANCH  13  15
ENDBRANCH   1  13
BRANCH   1  17
ATOM     17  C   UNL     1      46.015   8.343  13.053  0.00  0.00    +0.000 C 
BRANCH  17  18
ATOM     18  C   UNL     1      46.406   6.955  12.508  0.00  0.00    +0.000 C 
BRANCH  18  19
ATOM     19  C   UNL     1      45.393   5.932  12.066  0.00  0.00    +0.000 A 
ATOM     20  C   UNL     1      44.275   5.781  12.910  0.00  0.00    +0.000 A 
ATOM     21  C   UNL     1      43.182   5.012  12.530  0.00  0.00    +0.000 A 
ATOM     22  C   UNL     1      43.193   4.364  11.301  0.00  0.00    +0.000 A 
ATOM     23  C   UNL     1      44.308   4.456  10.466  0.00  0.00    +0.000 A 
ATOM     24  C   UNL     1      45.411   5.236  10.854  0.00  0.00    +0.000 A 
BRANCH  23  25
ATOM     25  O   UNL     1      44.406   3.880   9.226  0.00  0.00    +0.000 OA
BRANCH  25  26
ATOM     26  C   UNL     1      45.681   3.381   8.814  0.00  0.00    +0.000 C 
ATOM     27  C   UNL     1      46.023   3.820   7.391  0.00  0.00    +0.000 C 
ATOM     28  C   UNL     1      46.735   2.652   6.728  0.00  0.00    +0.000 C 
ATOM     29  C   UNL     1      46.598   1.455   7.659  0.00  0.00    +0.000 C 
ATOM     30  C   UNL     1      45.600   1.858   8.733  0.00  0.00    +0.000 C 
ENDBRANCH  25  26
ENDBRANCH  23  25
ENDBRANCH  18  19
ENDBRANCH  17  18
ENDBRANCH   1  17
TORSDOF 8
ENDMDL
MODEL 4
REMARK VINA RESULT:    -6.675      1.907      2.406
REMARK INTER + INTRA:         -11.244
REMARK INTER:                  -9.881
REMARK INTRA:                  -1.363
REMARK UNBOUND:                -1.447
REMARK  Name = 
REMARK  10 active torsions:
REMARK  status: ('A' for Active; 'I' for Inactive)
REMARK    1  A    between atoms: C_1  and  C_2
REMARK    2  A    between atoms: C_2  and  C_3
REMARK    3  A    between atoms: C_2  and  C_4
REMARK    4  A    between atoms: C_4  and  N_5
REMARK    5  A    between atoms: N_5  and  C_6
REMARK    6  A    between atoms: C_6  and  C_7
REMARK    7  A    between atoms: C_7  and  C_8
REMARK    8  A    between atoms: C_12  and  O_13
REMARK    9  A    between atoms: O_13  and  C_14
REMARK   10  A    between atoms: C_23  and  C_24
REMARK                            x       y       z     vdW  Elec       q    Type
REMARK                         _______ _______ _______ _____ _____    ______ ____
ROOT
ATOM      1  N   UNL     1      47.700   7.225  13.567  0.00  0.00    +0.000 N 
ATOM      2  C   UNL     1      47.788   6.216  14.565  0.00  0.00    +0.000 A 
ATOM      3  C   UNL     1      46.865   5.167  14.578  0.00  0.00    +0.000 A 
ATOM      4  C   UNL     1      46.966   4.138  15.512  0.00  0.00    +0.000 A 
ATOM      5  C   UNL     1      47.990   4.159  16.451  0.00  0.00    +0.000 A 
ATOM      6  C   UNL     1      48.855   5.238  16.398  0.00  0.00    +0.000 A 
ATOM      7  N   UNL     1      48.769   6.252  15.495  0.00  0.00    +0.000 NA
ENDROOT
BRANCH   5   8
ATOM      8  C   UNL     1      48.074   3.043  17.427  0.00  0.00    +0.000 C 
ATOM      9  N   UNL     1      49.282   2.757  18.003  0.00  0.00    +0.000 N 
ATOM     10  O   UNL     1      47.091   2.384  17.721  0.00  0.00    +0.000 OA
ATOM     11  H   UNL     1      50.152   3.233  17.833  0.00  0.00    +0.000 HD
ATOM     12  H   UNL     1      49.286   1.990  18.664  0.00  0.00    +0.000 HD
ENDBRANCH   5   8
BRANCH   1  13
ATOM     13  C   UNL     1      48.298   8.504  14.019  0.00  0.00    +0.000 C 
BRANCH  13  15
ATOM     14  C   UNL     1      49.389  10.696  13.150  0.00  0.00    +0.000 C 
ATOM     15  C   UNL     1      49.379   9.170  13.138  0.00  0.00    +0.000 C 
ATOM     16  C   UNL     1      50.772   8.704  13.603  0.00  0.00    +0.000 C 
ENDBRANCH  13  15
ENDBRANCH   1  13
BRANCH   1  17
ATOM     17  C   UNL     1      47.942   6.679  12.205  0.00  0.00    +0.000 C 
BRANCH  17  18
ATOM     18  C   UNL     1      46.684   6.915  11.348  0.00  0.00    +0.000 C 
BRANCH  18  19
ATOM     19  C   UNL     1      45.875   5.793  10.751  0.00  0.00    +0.000 A 
ATOM     20  C   UNL     1      44.791   5.344  11.531  0.00  0.00    +0.000 A 
ATOM     21  C   UNL     1      43.859   4.448  11.023  0.00  0.00    +0.000 A 
ATOM     22  C   UNL     1      43.999   3.971   9.725  0.00  0.00    +0.000 A 
ATOM     23  C   UNL     1      45.090   4.362   8.947  0.00  0.00    +0.000 A 
ATOM     24  C   UNL     1      46.031   5.269   9.465  0.00  0.00    +0.000 A 
BRANCH  23  25
ATOM     25  O   UNL     1      45.305   3.973   7.650  0.00  0.00    +0.000 OA
BRANCH  25  26
ATOM     26  C   UNL     1      46.542   3.329   7.336  0.00  0.00    +0.000 C 
ATOM     27  C   UNL     1      46.715   3.150   5.828  0.00  0.00    +0.000 C 
ATOM     28  C   UNL     1      47.387   1.802   5.618  0.00  0.00    +0.000 C 
ATOM     29  C   UNL     1      47.388   1.087   6.962  0.00  0.00    +0.000 C 
ATOM     30  C   UNL     1      46.500   1.905   7.885  0.00  0.00    +0.000 C 
ENDBRANCH  25  26
ENDBRANCH  23  25
ENDBRANCH  18  19
ENDBRANCH  17  18
ENDBRANCH   1  17
TORSDOF 8
ENDMDL
MODEL 5
REMARK VINA RESULT:    -6.486      3.205      8.728
REMARK INTER + INTRA:         -10.966
REMARK INTER:                 -10.334
REMARK INTRA:                  -0.632
REMARK UNBOUND:                -1.447
REMARK  Name = 
REMARK  10 active torsions:
REMARK  status: ('A' for Active; 'I' for Inactive)
REMARK    1  A    between atoms: C_1  and  C_2
REMARK    2  A    between atoms: C_2  and  C_3
REMARK    3  A    between atoms: C_2  and  C_4
REMARK    4  A    between atoms: C_4  and  N_5
REMARK    5  A    between atoms: N_5  and  C_6
REMARK    6  A    between atoms: C_6  and  C_7
REMARK    7  A    between atoms: C_7  and  C_8
REMARK    8  A    between atoms: C_12  and  O_13
REMARK    9  A    between atoms: O_13  and  C_14
REMARK   10  A    between atoms: C_23  and  C_24
REMARK                            x       y       z     vdW  Elec       q    Type
REMARK                         _______ _______ _______ _____ _____    ______ ____
ROOT
ATOM      1  N   UNL     1      44.504   5.062   9.876  0.00  0.00    +0.000 N 
ATOM      2  C   UNL     1      45.178   4.100   9.074  0.00  0.00    +0.000 A 
ATOM      3  C   UNL     1      45.813   4.498   7.895  0.00  0.00    +0.000 A 
ATOM      4  C   UNL     1      46.527   3.583   7.123  0.00  0.00    +0.000 A 
ATOM      5  C   UNL     1      46.600   2.255   7.523  0.00  0.00    +0.000 A 
ATOM      6  C   UNL     1      45.928   1.922   8.688  0.00  0.00    +0.000 A 
ATOM      7  N   UNL     1      45.226   2.801   9.450  0.00  0.00    +0.000 NA
ENDROOT
BRANCH   5   8
ATOM      8  C   UNL     1      47.375   1.307   6.683  0.00  0.00    +0.000 C 
ATOM      9  N   UNL     1      48.482   1.761   6.021  0.00  0.00    +0.000 N 
ATOM     10  O   UNL     1      47.041   0.139   6.576  0.00  0.00    +0.000 OA
ATOM     11  H   UNL     1      48.844   2.700   6.037  0.00  0.00    +0.000 HD
ATOM     12  H   UNL     1      48.977   1.076   5.464  0.00  0.00    +0.000 HD
ENDBRANCH   5   8
BRANCH   1  13
ATOM     13  C   UNL     1      43.428   4.447  10.690  0.00  0.00    +0.000 C 
BRANCH  13  15
ATOM     14  C   UNL     1      42.883   4.968  13.176  0.00  0.00    +0.000 C 
ATOM     15  C   UNL     1      43.702   4.151  12.181  0.00  0.00    +0.000 C 
ATOM     16  C   UNL     1      43.411   2.665  12.467  0.00  0.00    +0.000 C 
ENDBRANCH  13  15
ENDBRANCH   1  13
BRANCH   1  17
ATOM     17  C   UNL     1      45.443   6.067  10.440  0.00  0.00    +0.000 C 
BRANCH  17  18
ATOM     18  C   UNL     1      46.288   5.392  11.538  0.00  0.00    +0.000 C 
BRANCH  18  19
ATOM     19  C   UNL     1      47.067   6.169  12.567  0.00  0.00    +0.000 A 
ATOM     20  C   UNL     1      46.922   7.569  12.509  0.00  0.00    +0.000 A 
ATOM     21  C   UNL     1      47.433   8.389  13.507  0.00  0.00    +0.000 A 
ATOM     22  C   UNL     1      48.115   7.825  14.578  0.00  0.00    +0.000 A 
ATOM     23  C   UNL     1      48.316   6.445  14.636  0.00  0.00    +0.000 A 
ATOM     24  C   UNL     1      47.796   5.618  13.625  0.00  0.00    +0.000 A 
BRANCH  23  25
ATOM     25  O   UNL     1      48.948   5.789  15.660  0.00  0.00    +0.000 OA
BRANCH  25  26
ATOM     26  C   UNL     1      48.143   5.234  16.704  0.00  0.00    +0.000 C 
ATOM     27  C   UNL     1      48.812   5.387  18.069  0.00  0.00    +0.000 C 
ATOM     28  C   UNL     1      48.507   4.119  18.853  0.00  0.00    +0.000 C 
ATOM     29  C   UNL     1      47.880   3.130  17.881  0.00  0.00    +0.000 C 
ATOM     30  C   UNL     1      48.050   3.725  16.493  0.00  0.00    +0.000 C 
ENDBRANCH  25  26
ENDBRANCH  23  25
ENDBRANCH  18  19
ENDBRANCH  17  18
ENDBRANCH   1  17
TORSDOF 8
ENDMDL
MODEL 6
REMARK VINA RESULT:    -6.473      1.617      1.803
REMARK INTER + INTRA:         -10.947
REMARK INTER:                  -9.629
REMARK INTRA:                  -1.318
REMARK UNBOUND:                -1.447
REMARK  Name = 
REMARK  10 active torsions:
REMARK  status: ('A' for Active; 'I' for Inactive)
REMARK    1  A    between atoms: C_1  and  C_2
REMARK    2  A    between atoms: C_2  and  C_3
REMARK    3  A    between atoms: C_2  and  C_4
REMARK    4  A    between atoms: C_4  and  N_5
REMARK    5  A    between atoms: N_5  and  C_6
REMARK    6  A    between atoms: C_6  and  C_7
REMARK    7  A    between atoms: C_7  and  C_8
REMARK    8  A    between atoms: C_12  and  O_13
REMARK    9  A    between atoms: O_13  and  C_14
REMARK   10  A    between atoms: C_23  and  C_24
REMARK                            x       y       z     vdW  Elec       q    Type
REMARK                         _______ _______ _______ _____ _____    ______ ____
ROOT
ATOM      1  N   UNL     1      47.805   6.554  14.464  0.00  0.00    +0.000 N 
ATOM      2  C   UNL     1      48.775   6.251  15.458  0.00  0.00    +0.000 A 
ATOM      3  C   UNL     1      48.478   5.325  16.462  0.00  0.00    +0.000 A 
ATOM      4  C   UNL     1      49.433   4.971  17.413  0.00  0.00    +0.000 A 
ATOM      5  C   UNL     1      50.694   5.554  17.373  0.00  0.00    +0.000 A 
ATOM      6  C   UNL     1      50.914   6.481  16.368  0.00  0.00    +0.000 A 
ATOM      7  N   UNL     1      49.993   6.839  15.434  0.00  0.00    +0.000 NA
ENDROOT
BRANCH   5   8
ATOM      8  C   UNL     1      51.691   5.150  18.396  0.00  0.00    +0.000 C 
ATOM      9  N   UNL     1      52.038   6.043  19.372  0.00  0.00    +0.000 N 
ATOM     10  O   UNL     1      52.200   4.042  18.379  0.00  0.00    +0.000 OA
ATOM     11  H   UNL     1      51.682   6.978  19.479  0.00  0.00    +0.000 HD
ATOM     12  H   UNL     1      52.719   5.719  20.048  0.00  0.00    +0.000 HD
ENDBRANCH   5   8
BRANCH   1  13
ATOM     13  C   UNL     1      48.006   7.906  13.889  0.00  0.00    +0.000 C 
BRANCH  13  15
ATOM     14  C   UNL     1      45.788   8.712  12.803  0.00  0.00    +0.000 C 
ATOM     15  C   UNL     1      47.239   8.287  12.602  0.00  0.00    +0.000 C 
ATOM     16  C   UNL     1      47.963   9.456  11.907  0.00  0.00    +0.000 C 
ENDBRANCH  13  15
ENDBRANCH   1  13
BRANCH   1  17
ATOM     17  C   UNL     1      47.497   5.373  13.614  0.00  0.00    +0.000 C 
BRANCH  17  18
ATOM     18  C   UNL     1      46.091   4.858  13.976  0.00  0.00    +0.000 C 
BRANCH  18  19
ATOM     19  C   UNL     1      45.019   4.609  12.947  0.00  0.00    +0.000 A 
ATOM     20  C   UNL     1      43.893   5.452  13.027  0.00  0.00    +0.000 A 
ATOM     21  C   UNL     1      42.921   5.454  12.035  0.00  0.00    +0.000 A 
ATOM     22  C   UNL     1      43.049   4.599  10.946  0.00  0.00    +0.000 A 
ATOM     23  C   UNL     1      44.129   3.719  10.866  0.00  0.00    +0.000 A 
ATOM     24  C   UNL     1      45.111   3.721  11.872  0.00  0.00    +0.000 A 
BRANCH  23  25
ATOM     25  O   UNL     1      44.361   2.859   9.824  0.00  0.00    +0.000 OA
BRANCH  25  26
ATOM     26  C   UNL     1      45.625   2.929   9.160  0.00  0.00    +0.000 C 
ATOM     27  C   UNL     1      45.618   3.976   8.048  0.00  0.00    +0.000 C 
ATOM     28  C   UNL     1      46.446   3.411   6.904  0.00  0.00    +0.000 C 
ATOM     29  C   UNL     1      46.732   1.953   7.235  0.00  0.00    +0.000 C 
ATOM     30  C   UNL     1      45.866   1.607   8.436  0.00  0.00    +0.000 C 
ENDBRANCH  25  26
ENDBRANCH  23  25
ENDBRANCH  18  19
ENDBRANCH  17  18
ENDBRANCH   1  17
TORSDOF 8
ENDMDL
MODEL 7
REMARK VINA RESULT:    -6.381      3.209      7.909
REMARK INTER + INTRA:         -10.812
REMARK INTER:                  -9.487
REMARK INTRA:                  -1.324
REMARK UNBOUND:                -1.447
REMARK  Name = 
REMARK  10 active torsions:
REMARK  status: ('A' for Active; 'I' for Inactive)
REMARK    1  A    between atoms: C_1  and  C_2
REMARK    2  A    between atoms: C_2  and  C_3
REMARK    3  A    between atoms: C_2  and  C_4
REMARK    4  A    between atoms: C_4  and  N_5
REMARK    5  A    between atoms: N_5  and  C_6
REMARK    6  A    between atoms: C_6  and  C_7
REMARK    7  A    between atoms: C_7  and  C_8
REMARK    8  A    between atoms: C_12  and  O_13
REMARK    9  A    between atoms: O_13  and  C_14
REMARK   10  A    between atoms: C_23  and  C_24
REMARK                            x       y       z     vdW  Elec       q    Type
REMARK                         _______ _______ _______ _____ _____    ______ ____
ROOT
ATOM      1  N   UNL     1      47.937   7.472  12.857  0.00  0.00    +0.000 N 
ATOM      2  C   UNL     1      47.004   6.451  12.527  0.00  0.00    +0.000 A 
ATOM      3  C   UNL     1      46.682   5.471  13.470  0.00  0.00    +0.000 A 
ATOM      4  C   UNL     1      45.729   4.494  13.188  0.00  0.00    +0.000 A 
ATOM      5  C   UNL     1      45.098   4.484  11.950  0.00  0.00    +0.000 A 
ATOM      6  C   UNL     1      45.482   5.468  11.054  0.00  0.00    +0.000 A 
ATOM      7  N   UNL     1      46.411   6.426  11.312  0.00  0.00    +0.000 NA
ENDROOT
BRANCH   5   8
ATOM      8  C   UNL     1      44.082   3.435  11.684  0.00  0.00    +0.000 C 
ATOM      9  N   UNL     1      43.862   2.471  12.629  0.00  0.00    +0.000 N 
ATOM     10  O   UNL     1      43.447   3.420  10.643  0.00  0.00    +0.000 OA
ATOM     11  H   UNL     1      44.328   2.389  13.518  0.00  0.00    +0.000 HD
ATOM     12  H   UNL     1      43.158   1.780  12.402  0.00  0.00    +0.000 HD
ENDBRANCH   5   8
BRANCH   1  13
ATOM     13  C   UNL     1      48.606   8.020  11.653  0.00  0.00    +0.000 C 
BRANCH  13  15
ATOM     14  C   UNL     1      51.095   7.718  10.971  0.00  0.00    +0.000 C 
ATOM     15  C   UNL     1      50.067   8.510  11.774  0.00  0.00    +0.000 C 
ATOM     16  C   UNL     1      50.152   9.975  11.301  0.00  0.00    +0.000 C 
ENDBRANCH  13  15
ENDBRANCH   1  13
BRANCH   1  17
ATOM     17  C   UNL     1      47.434   8.349  13.948  0.00  0.00    +0.000 C 
BRANCH  17  18
ATOM     18  C   UNL     1      48.543   8.505  15.006  0.00  0.00    +0.000 C 
BRANCH  18  19
ATOM     19  C   UNL     1      48.749   7.524  16.131  0.00  0.00    +0.000 A 
ATOM     20  C   UNL     1      48.446   8.005  17.419  0.00  0.00    +0.000 A 
ATOM     21  C   UNL     1      48.414   7.156  18.518  0.00  0.00    +0.000 A 
ATOM     22  C   UNL     1      48.700   5.806  18.351  0.00  0.00    +0.000 A 
ATOM     23  C   UNL     1      49.051   5.311  17.094  0.00  0.00    +0.000 A 
ATOM     24  C   UNL     1      49.081   6.174  15.984  0.00  0.00    +0.000 A 
BRANCH  23  25
ATOM     25  O   UNL     1      49.322   3.996  16.819  0.00  0.00    +0.000 OA
BRANCH  25  26
ATOM     26  C   UNL     1      50.199   3.290  17.700  0.00  0.00    +0.000 C 
ATOM     27  C   UNL     1      51.580   3.940  17.757  0.00  0.00    +0.000 C 
ATOM     28  C   UNL     1      52.595   2.811  17.846  0.00  0.00    +0.000 C 
ATOM     29  C   UNL     1      51.844   1.511  17.596  0.00  0.00    +0.000 C 
ATOM     30  C   UNL     1      50.456   1.902  17.118  0.00  0.00    +0.000 C 
ENDBRANCH  25  26
ENDBRANCH  23  25
ENDBRANCH  18  19
ENDBRANCH  17  18
ENDBRANCH   1  17
TORSDOF 8
ENDMDL
MODEL 8
REMARK VINA RESULT:    -6.325      2.681      4.341
REMARK INTER + INTRA:         -10.731
REMARK INTER:                  -8.751
REMARK INTRA:                  -1.980
REMARK UNBOUND:                -1.447
REMARK  Name = 
REMARK  10 active torsions:
REMARK  status: ('A' for Active; 'I' for Inactive)
REMARK    1  A    between atoms: C_1  and  C_2
REMARK    2  A    between atoms: C_2  and  C_3
REMARK    3  A    between atoms: C_2  and  C_4
REMARK    4  A    between atoms: C_4  and  N_5
REMARK    5  A    between atoms: N_5  and  C_6
REMARK    6  A    between atoms: C_6  and  C_7
REMARK    7  A    between atoms: C_7  and  C_8
REMARK    8  A    between atoms: C_12  and  O_13
REMARK    9  A    between atoms: O_13  and  C_14
REMARK   10  A    between atoms: C_23  and  C_24
REMARK                            x       y       z     vdW  Elec       q    Type
REMARK                         _______ _______ _______ _____ _____    ______ ____
ROOT
ATOM      1  N   UNL     1      49.116   7.738  14.380  0.00  0.00    +0.000 N 
ATOM      2  C   UNL     1      48.737   6.689  15.261  0.00  0.00    +0.000 A 
ATOM      3  C   UNL     1      47.735   5.790  14.884  0.00  0.00    +0.000 A 
ATOM      4  C   UNL     1      47.387   4.721  15.707  0.00  0.00    +0.000 A 
ATOM      5  C   UNL     1      48.034   4.551  16.925  0.00  0.00    +0.000 A 
ATOM      6  C   UNL     1      48.999   5.490  17.249  0.00  0.00    +0.000 A 
ATOM      7  N   UNL     1      49.349   6.539  16.458  0.00  0.00    +0.000 NA
ENDROOT
BRANCH   5   8
ATOM      8  C   UNL     1      47.645   3.397  17.775  0.00  0.00    +0.000 C 
ATOM      9  N   UNL     1      48.390   3.113  18.887  0.00  0.00    +0.000 N 
ATOM     10  O   UNL     1      46.680   2.705  17.499  0.00  0.00    +0.000 OA
ATOM     11  H   UNL     1      49.202   3.615  19.206  0.00  0.00    +0.000 HD
ATOM     12  H   UNL     1      48.082   2.319  19.435  0.00  0.00    +0.000 HD
ENDBRANCH   5   8
BRANCH   1  13
ATOM     13  C   UNL     1      49.689   8.894  15.111  0.00  0.00    +0.000 C 
BRANCH  13  15
ATOM     14  C   UNL     1      48.652  10.335  17.008  0.00  0.00    +0.000 C 
ATOM     15  C   UNL     1      48.753  10.057  15.511  0.00  0.00    +0.000 C 
ATOM     16  C   UNL     1      49.242  11.356  14.840  0.00  0.00    +0.000 C 
ENDBRANCH  13  15
ENDBRANCH   1  13
BRANCH   1  17
ATOM     17  C   UNL     1      49.725   7.216  13.128  0.00  0.00    +0.000 C 
BRANCH  17  18
ATOM     18  C   UNL     1      48.956   7.797  11.926  0.00  0.00    +0.000 C 
BRANCH  18  19
ATOM     19  C   UNL     1      47.484   8.117  11.970  0.00  0.00    +0.000 A 
ATOM     20  C   UNL     1      47.163   9.483  12.094  0.00  0.00    +0.000 A 
ATOM     21  C   UNL     1      45.855   9.932  11.962  0.00  0.00    +0.000 A 
ATOM     22  C   UNL     1      44.837   9.019  11.716  0.00  0.00    +0.000 A 
ATOM     23  C   UNL     1      45.119   7.654  11.637  0.00  0.00    +0.000 A 
ATOM     24  C   UNL     1      46.445   7.204  11.771  0.00  0.00    +0.000 A 
BRANCH  23  25
ATOM     25  O   UNL     1      44.194   6.679  11.371  0.00  0.00    +0.000 OA
BRANCH  25  26
ATOM     26  C   UNL     1      44.573   5.316  11.579  0.00  0.00    +0.000 C 
ATOM     27  C   UNL     1      44.180   4.436  10.393  0.00  0.00    +0.000 C 
ATOM     28  C   UNL     1      43.726   3.102  10.965  0.00  0.00    +0.000 C 
ATOM     29  C   UNL     1      43.617   3.274  12.473  0.00  0.00    +0.000 C 
ATOM     30  C   UNL     1      43.762   4.762  12.748  0.00  0.00    +0.000 C 
ENDBRANCH  25  26
ENDBRANCH  23  25
ENDBRANCH  18  19
ENDBRANCH  17  18
ENDBRANCH   1  17
TORSDOF 8
ENDMDL
MODEL 9
REMARK VINA RESULT:    -6.169      3.034      5.434
REMARK INTER + INTRA:         -10.501
REMARK INTER:                  -9.335
REMARK INTRA:                  -1.166
REMARK UNBOUND:                -1.447
REMARK  Name = 
REMARK  10 active torsions:
REMARK  status: ('A' for Active; 'I' for Inactive)
REMARK    1  A    between atoms: C_1  and  C_2
REMARK    2  A    between atoms: C_2  and  C_3
REMARK    3  A    between atoms: C_2  and  C_4
REMARK    4  A    between atoms: C_4  and  N_5
REMARK    5  A    between atoms: N_5  and  C_6
REMARK    6  A    between atoms: C_6  and  C_7
REMARK    7  A    between atoms: C_7  and  C_8
REMARK    8  A    between atoms: C_12  and  O_13
REMARK    9  A    between atoms: O_13  and  C_14
REMARK   10  A    between atoms: C_23  and  C_24
REMARK                            x       y       z     vdW  Elec       q    Type
REMARK                         _______ _______ _______ _____ _____    ______ ____
ROOT
ATOM      1  N   UNL     1      48.567   4.704  17.717  0.00  0.00    +0.000 N 
ATOM      2  C   UNL     1      49.698   3.842  17.739  0.00  0.00    +0.000 A 
ATOM      3  C   UNL     1      49.559   2.502  17.368  0.00  0.00    +0.000 A 
ATOM      4  C   UNL     1      50.664   1.654  17.327  0.00  0.00    +0.000 A 
ATOM      5  C   UNL     1      51.919   2.141  17.670  0.00  0.00    +0.000 A 
ATOM      6  C   UNL     1      51.982   3.471  18.051  0.00  0.00    +0.000 A 
ATOM      7  N   UNL     1      50.914   4.311  18.099  0.00  0.00    +0.000 NA
ENDROOT
BRANCH   5   8
ATOM      8  C   UNL     1      53.077   1.214  17.609  0.00  0.00    +0.000 C 
ATOM      9  N   UNL     1      52.936  -0.055  18.100  0.00  0.00    +0.000 N 
ATOM     10  O   UNL     1      54.143   1.565  17.132  0.00  0.00    +0.000 OA
ATOM     11  H   UNL     1      52.106  -0.446  18.514  0.00  0.00    +0.000 HD
ATOM     12  H   UNL     1      53.753  -0.649  18.032  0.00  0.00    +0.000 HD
ENDBRANCH   5   8
BRANCH   1  13
ATOM     13  C   UNL     1      48.716   5.836  18.664  0.00  0.00    +0.000 C 
BRANCH  13  15
ATOM     14  C   UNL     1      47.363   6.208  20.850  0.00  0.00    +0.000 C 
ATOM     15  C   UNL     1      47.450   6.409  19.340  0.00  0.00    +0.000 C 
ATOM     16  C   UNL     1      47.378   7.926  19.079  0.00  0.00    +0.000 C 
ENDBRANCH  13  15
ENDBRANCH   1  13
BRANCH   1  17
ATOM     17  C   UNL     1      48.040   4.892  16.339  0.00  0.00    +0.000 C 
BRANCH  17  18
ATOM     18  C   UNL     1      48.629   6.193  15.760  0.00  0.00    +0.000 C 
BRANCH  18  19
ATOM     19  C   UNL     1      48.353   6.664  14.355  0.00  0.00    +0.000 A 
ATOM     20  C   UNL     1      49.310   7.542  13.811  0.00  0.00    +0.000 A 
ATOM     21  C   UNL     1      49.277   7.905  12.470  0.00  0.00    +0.000 A 
ATOM     22  C   UNL     1      48.275   7.405  11.648  0.00  0.00    +0.000 A 
ATOM     23  C   UNL     1      47.286   6.571  12.172  0.00  0.00    +0.000 A 
ATOM     24  C   UNL     1      47.323   6.206  13.529  0.00  0.00    +0.000 A 
BRANCH  23  25
ATOM     25  O   UNL     1      46.273   6.004  11.441  0.00  0.00    +0.000 OA
BRANCH  25  26
ATOM     26  C   UNL     1      45.173   5.427  12.149  0.00  0.00    +0.000 C 
ATOM     27  C   UNL     1      44.924   3.983  11.717  0.00  0.00    +0.000 C 
ATOM     28  C   UNL     1      43.417   3.780  11.704  0.00  0.00    +0.000 C 
ATOM     29  C   UNL     1      42.778   5.150  11.884  0.00  0.00    +0.000 C 
ATOM     30  C   UNL     1      43.899   6.168  11.750  0.00  0.00    +0.000 C 
ENDBRANCH  25  26
ENDBRANCH  23  25
ENDBRANCH  18  19
ENDBRANCH  17  18
ENDBRANCH   1  17
TORSDOF 8
ENDMDL
