MODEL 1
REMARK VINA RESULT:    -8.545      0.000      0.000
REMARK INTER + INTRA:         -11.519
REMARK INTER:                 -11.542
REMARK INTRA:                   0.023
REMARK UNBOUND:                 0.023
REMARK  Name = 
REMARK  8 active torsions:
REMARK  status: ('A' for Active; 'I' for Inactive)
REMARK    1  A    between atoms: C_1  and  C_2
REMARK    2  A    between atoms: C_2  and  N_3
REMARK    3  A    between atoms: C_2  and  C_16
REMARK    4  A    between atoms: C_4  and  C_6
REMARK    5  A    between atoms: C_19  and  C_20
REMARK    6  A    between atoms: C_20  and  N_21
REMARK    7  A    between atoms: N_21  and  C_22
REMARK    8  A    between atoms: C_23  and  C_25
REMARK                            x       y       z     vdW  Elec       q    Type
REMARK                         _______ _______ _______ _____ _____    ______ ____
ROOT
ATOM      1  C   UNL     1      47.055   9.095  13.232  0.00  0.00    +0.000 C 
ATOM      2  C   UNL     1      47.489   7.621  13.202  0.00  0.00    +0.000 C 
ENDROOT
BRANCH   2   3
ATOM      3  C   UNL     1      46.388   6.818  12.524  0.00  0.00    +0.000 A 
ATOM      4  C   UNL     1      45.346   7.417  11.805  0.00  0.00    +0.000 A 
ATOM      5  C   UNL     1      44.437   6.635  11.089  0.00  0.00    +0.000 A 
ATOM      6  C   UNL     1      44.596   5.255  11.079  0.00  0.00    +0.000 A 
ATOM      7  N   UNL     1      45.583   4.641  11.787  0.00  0.00    +0.000 NA
ATOM      8  C   UNL     1      46.438   5.427  12.492  0.00  0.00    +0.000 A 
BRANCH   6   9
ATOM      9  C   UNL     1      43.705   4.389  10.197  0.00  0.00    +0.000 C 
BRANCH   9  10
ATOM     10  N   UNL     1      44.448   3.443   9.339  0.00  0.00    +0.000 N 
ATOM     11  C   UNL     1      44.273   2.035   9.689  0.00  0.00    +0.000 C 
ATOM     12  C   UNL     1      45.390   3.961   8.440  0.00  0.00    +0.000 C 
ATOM     13  O   UNL     1      45.630   5.168   8.366  0.00  0.00    +0.000 OA
BRANCH  12  14
ATOM     14  C   UNL     1      46.179   3.064   7.553  0.00  0.00    +0.000 A 
ATOM     15  C   UNL     1      46.624   3.415   6.279  0.00  0.00    +0.000 A 
ATOM     16  C   UNL     1      47.215   2.451   5.461  0.00  0.00    +0.000 A 
ATOM     17  C   UNL     1      47.437   1.189   5.986  0.00  0.00    +0.000 A 
ATOM     18  N   UNL     1      47.141   0.851   7.259  0.00  0.00    +0.000 NA
ATOM     19  C   UNL     1      46.526   1.800   8.017  0.00  0.00    +0.000 A 
ENDBRANCH  12  14
ENDBRANCH   9  10
ENDBRANCH   6   9
ENDBRANCH   2   3
BRANCH   2  20
ATOM     20  N   UNL     1      47.785   7.099  14.533  0.00  0.00    +0.000 N 
ATOM     21  C   UNL     1      49.055   6.982  15.042  0.00  0.00    +0.000 C 
ATOM     22  O   UNL     1      50.054   7.331  14.423  0.00  0.00    +0.000 OA
ATOM     23  H   UNL     1      47.073   6.502  14.943  0.00  0.00    +0.000 HD
BRANCH  21  24
ATOM     24  C   UNL     1      49.161   6.470  16.421  0.00  0.00    +0.000 A 
ATOM     25  C   UNL     1      49.786   7.242  17.392  0.00  0.00    +0.000 A 
ATOM     26  S   UNL     1      49.817   6.514  18.934  0.00  0.00    +0.000 S 
ATOM     27  C   UNL     1      49.033   5.121  18.350  0.00  0.00    +0.000 A 
ATOM     28  N   UNL     1      48.787   4.062  19.167  0.00  0.00    +0.000 NA
ATOM     29  C   UNL     1      48.215   3.060  18.586  0.00  0.00    +0.000 A 
ATOM     30  N   UNL     1      47.852   3.029  17.265  0.00  0.00    +0.000 N 
ATOM     31  C   UNL     1      48.039   4.093  16.413  0.00  0.00    +0.000 A 
ATOM     32  O   UNL     1      47.632   4.069  15.256  0.00  0.00    +0.000 OA
ATOM     33  C   UNL     1      48.717   5.228  17.007  0.00  0.00    +0.000 A 
ATOM     34  H   UNL     1      47.386   2.222  16.878  0.00  0.00    +0.000 HD
ENDBRANCH  21  24
ENDBRANCH   2  20
TORSDOF 6
ENDMDL
MODEL 2
REMARK VINA RESULT:    -8.183      2.038      3.773
REMARK INTER + INTRA:         -11.030
REMARK INTER:                 -10.596
REMARK INTRA:                  -0.434
REMARK UNBOUND:                 0.023
REMARK  Name = 
REMARK  8 active torsions:
REMARK  status: ('A' for Active; 'I' for Inactive)
REMARK    1  A    between atoms: C_1  and  C_2
REMARK    2  A    between atoms: C_2  and  N_3
REMARK    3  A    between atoms: C_2  and  C_16
REMARK    4  A    between atoms: C_4  and  C_6
REMARK    5  A    between atoms: C_19  and  C_20
REMARK    6  A    between atoms: C_20  and  N_21
REMARK    7  A    between atoms: N_21  and  C_22
REMARK    8  A    between atoms: C_23  and  C_25
REMARK                            x       y       z     vdW  Elec       q    Type
REMARK                         _______ _______ _______ _____ _____    ______ ____
ROOT
ATOM      1  C   UNL     1      47.638   3.378  14.972  0.00  0.00    +0.000 C 
ATOM      2  C   UNL     1      46.952   4.742  14.802  0.00  0.00    +0.000 C 
ENDROOT
BRANCH   2   3
ATOM      3  C   UNL     1      46.029   4.660  13.594  0.00  0.00    +0.000 A 
ATOM      4  C   UNL     1      45.505   5.794  12.961  0.00  0.00    +0.000 A 
ATOM      5  C   UNL     1      44.774   5.673  11.778  0.00  0.00    +0.000 A 
ATOM      6  C   UNL     1      44.596   4.412  11.221  0.00  0.00    +0.000 A 
ATOM      7  N   UNL     1      45.071   3.289  11.824  0.00  0.00    +0.000 NA
ATOM      8  C   UNL     1      45.758   3.436  12.987  0.00  0.00    +0.000 A 
BRANCH   6   9
ATOM      9  C   UNL     1      43.924   4.264   9.863  0.00  0.00    +0.000 C 
BRANCH   9  10
ATOM     10  N   UNL     1      44.638   3.362   8.935  0.00  0.00    +0.000 N 
ATOM     11  C   UNL     1      44.336   1.943   9.111  0.00  0.00    +0.000 C 
ATOM     12  C   UNL     1      45.665   3.899   8.147  0.00  0.00    +0.000 C 
ATOM     13  O   UNL     1      46.001   5.082   8.225  0.00  0.00    +0.000 OA
BRANCH  12  14
ATOM     14  C   UNL     1      46.431   3.045   7.199  0.00  0.00    +0.000 A 
ATOM     15  C   UNL     1      46.636   3.354   5.854  0.00  0.00    +0.000 A 
ATOM     16  C   UNL     1      47.226   2.415   5.008  0.00  0.00    +0.000 A 
ATOM     17  C   UNL     1      47.688   1.232   5.560  0.00  0.00    +0.000 A 
ATOM     18  N   UNL     1      47.627   0.953   6.879  0.00  0.00    +0.000 NA
ATOM     19  C   UNL     1      47.007   1.870   7.671  0.00  0.00    +0.000 A 
ENDBRANCH  12  14
ENDBRANCH   9  10
ENDBRANCH   6   9
ENDBRANCH   2   3
BRANCH   2  20
ATOM     20  N   UNL     1      47.909   5.837  14.665  0.00  0.00    +0.000 N 
ATOM     21  C   UNL     1      48.599   6.383  15.718  0.00  0.00    +0.000 C 
ATOM     22  O   UNL     1      48.484   5.978  16.870  0.00  0.00    +0.000 OA
ATOM     23  H   UNL     1      47.801   6.418  13.840  0.00  0.00    +0.000 HD
BRANCH  21  24
ATOM     24  C   UNL     1      49.555   7.455  15.386  0.00  0.00    +0.000 A 
ATOM     25  C   UNL     1      50.888   7.324  15.756  0.00  0.00    +0.000 A 
ATOM     26  S   UNL     1      51.863   8.644  15.291  0.00  0.00    +0.000 S 
ATOM     27  C   UNL     1      50.531   9.458  14.614  0.00  0.00    +0.000 A 
ATOM     28  N   UNL     1      50.670  10.697  14.070  0.00  0.00    +0.000 NA
ATOM     29  C   UNL     1      49.573  11.210  13.621  0.00  0.00    +0.000 A 
ATOM     30  N   UNL     1      48.352  10.589  13.654  0.00  0.00    +0.000 N 
ATOM     31  C   UNL     1      48.172   9.319  14.151  0.00  0.00    +0.000 A 
ATOM     32  O   UNL     1      47.085   8.755  14.095  0.00  0.00    +0.000 OA
ATOM     33  C   UNL     1      49.367   8.715  14.707  0.00  0.00    +0.000 A 
ATOM     34  H   UNL     1      47.536  11.037  13.264  0.00  0.00    +0.000 HD
ENDBRANCH  21  24
ENDBRANCH   2  20
TORSDOF 6
ENDMDL
MODEL 3
REMARK VINA RESULT:    -8.071      3.394      8.611
REMARK INTER + INTRA:         -10.879
REMARK INTER:                 -10.078
REMARK INTRA:                  -0.801
REMARK UNBOUND:                 0.023
REMARK  Name = 
REMARK  8 active torsions:
REMARK  status: ('A' for Active; 'I' for Inactive)
REMARK    1  A    between atoms: C_1  and  C_2
REMARK    2  A    between atoms: C_2  and  N_3
REMARK    3  A    between atoms: C_2  and  C_16
REMARK    4  A    between atoms: C_4  and  C_6
REMARK    5  A    between atoms: C_19  and  C_20
REMARK    6  A    between atoms: C_20  and  N_21
REMARK    7  A    between atoms: N_21  and  C_22
REMARK    8  A    between atoms: C_23  and  C_25
REMARK                            x       y       z     vdW  Elec       q    Type
REMARK                         _______ _______ _______ _____ _____    ______ ____
ROOT
ATOM      1  C   UNL     1      49.885   7.856  11.775  0.00  0.00    +0.000 C 
ATOM      2  C   UNL     1      48.487   7.743  12.402  0.00  0.00    +0.000 C 
ENDROOT
BRANCH   2   3
ATOM      3  C   UNL     1      48.657   7.493  13.895  0.00  0.00    +0.000 A 
ATOM      4  C   UNL     1      48.156   6.352  14.535  0.00  0.00    +0.000 A 
ATOM      5  C   UNL     1      48.453   6.103  15.876  0.00  0.00    +0.000 A 
ATOM      6  C   UNL     1      49.276   6.989  16.561  0.00  0.00    +0.000 A 
ATOM      7  N   UNL     1      49.759   8.118  15.975  0.00  0.00    +0.000 NA
ATOM      8  C   UNL     1      49.433   8.346  14.675  0.00  0.00    +0.000 A 
BRANCH   6   9
ATOM      9  C   UNL     1      49.730   6.671  17.980  0.00  0.00    +0.000 C 
BRANCH   9  10
ATOM     10  N   UNL     1      50.111   5.259  18.186  0.00  0.00    +0.000 N 
ATOM     11  C   UNL     1      49.332   4.560  19.205  0.00  0.00    +0.000 C 
ATOM     12  C   UNL     1      51.281   4.790  17.572  0.00  0.00    +0.000 C 
ATOM     13  O   UNL     1      52.003   5.523  16.895  0.00  0.00    +0.000 OA
BRANCH  12  14
ATOM     14  C   UNL     1      51.728   3.381  17.746  0.00  0.00    +0.000 A 
ATOM     15  C   UNL     1      52.935   3.009  18.337  0.00  0.00    +0.000 A 
ATOM     16  C   UNL     1      53.339   1.674  18.307  0.00  0.00    +0.000 A 
ATOM     17  C   UNL     1      52.469   0.735  17.778  0.00  0.00    +0.000 A 
ATOM     18  N   UNL     1      51.237   1.040  17.318  0.00  0.00    +0.000 NA
ATOM     19  C   UNL     1      50.891   2.356  17.320  0.00  0.00    +0.000 A 
ENDBRANCH  12  14
ENDBRANCH   9  10
ENDBRANCH   6   9
ENDBRANCH   2   3
BRANCH   2  20
ATOM     20  N   UNL     1      47.677   6.700  11.779  0.00  0.00    +0.000 N 
ATOM     21  C   UNL     1      46.339   6.834  11.505  0.00  0.00    +0.000 C 
ATOM     22  O   UNL     1      45.712   7.861  11.743  0.00  0.00    +0.000 OA
ATOM     23  H   UNL     1      48.031   5.752  11.868  0.00  0.00    +0.000 HD
BRANCH  21  24
ATOM     24  C   UNL     1      45.691   5.691  10.836  0.00  0.00    +0.000 A 
ATOM     25  C   UNL     1      45.791   5.558   9.457  0.00  0.00    +0.000 A 
ATOM     26  S   UNL     1      44.996   4.181   8.840  0.00  0.00    +0.000 S 
ATOM     27  C   UNL     1      44.455   3.733  10.390  0.00  0.00    +0.000 A 
ATOM     28  N   UNL     1      43.665   2.641  10.567  0.00  0.00    +0.000 NA
ATOM     29  C   UNL     1      43.302   2.436  11.790  0.00  0.00    +0.000 A 
ATOM     30  N   UNL     1      43.672   3.218  12.854  0.00  0.00    +0.000 N 
ATOM     31  C   UNL     1      44.506   4.304  12.729  0.00  0.00    +0.000 A 
ATOM     32  O   UNL     1      44.887   4.938  13.707  0.00  0.00    +0.000 OA
ATOM     33  C   UNL     1      44.908   4.602  11.368  0.00  0.00    +0.000 A 
ATOM     34  H   UNL     1      43.371   2.988  13.789  0.00  0.00    +0.000 HD
ENDBRANCH  21  24
ENDBRANCH   2  20
TORSDOF 6
ENDMDL
MODEL 4
REMARK VINA RESULT:    -8.024      2.620      4.203
REMARK INTER + INTRA:         -10.816
REMARK INTER:                 -10.249
REMARK INTRA:                  -0.567
REMARK UNBOUND:                 0.023
REMARK  Name = 
REMARK  8 active torsions:
REMARK  status: ('A' for Active; 'I' for Inactive)
REMARK    1  A    between atoms: C_1  and  C_2
REMARK    2  A    between atoms: C_2  and  N_3
REMARK    3  A    between atoms: C_2  and  C_16
REMARK    4  A    between atoms: C_4  and  C_6
REMARK    5  A    between atoms: C_19  and  C_20
REMARK    6  A    between atoms: C_20  and  N_21
REMARK    7  A    between atoms: N_21  and  C_22
REMARK    8  A    between atoms: C_23  and  C_25
REMARK                            x       y       z     vdW  Elec       q    Type
REMARK                         _______ _______ _______ _____ _____    ______ ____
ROOT
ATOM      1  C   UNL     1      47.484   4.639  15.603  0.00  0.00    +0.000 C 
ATOM      2  C   UNL     1      47.375   5.844  14.656  0.00  0.00    +0.000 C 
ENDROOT
BRANCH   2   3
ATOM      3  C   UNL     1      46.684   5.380  13.380  0.00  0.00    +0.000 A 
ATOM      4  C   UNL     1      46.120   4.105  13.244  0.00  0.00    +0.000 A 
ATOM      5  C   UNL     1      45.381   3.775  12.107  0.00  0.00    +0.000 A 
ATOM      6  C   UNL     1      45.190   4.737  11.123  0.00  0.00    +0.000 A 
ATOM      7  N   UNL     1      45.745   5.976  11.214  0.00  0.00    +0.000 NA
ATOM      8  C   UNL     1      46.479   6.261  12.322  0.00  0.00    +0.000 A 
BRANCH   6   9
ATOM      9  C   UNL     1      44.275   4.450   9.939  0.00  0.00    +0.000 C 
BRANCH   9  10
ATOM     10  N   UNL     1      44.816   3.458   8.988  0.00  0.00    +0.000 N 
ATOM     11  C   UNL     1      44.363   2.087   9.213  0.00  0.00    +0.000 C 
ATOM     12  C   UNL     1      45.844   3.859   8.124  0.00  0.00    +0.000 C 
ATOM     13  O   UNL     1      46.320   4.995   8.155  0.00  0.00    +0.000 OA
BRANCH  12  14
ATOM     14  C   UNL     1      46.441   2.907   7.148  0.00  0.00    +0.000 A 
ATOM     15  C   UNL     1      46.625   3.186   5.793  0.00  0.00    +0.000 A 
ATOM     16  C   UNL     1      47.040   2.174   4.927  0.00  0.00    +0.000 A 
ATOM     17  C   UNL     1      47.360   0.939   5.465  0.00  0.00    +0.000 A 
ATOM     18  N   UNL     1      47.323   0.671   6.788  0.00  0.00    +0.000 NA
ATOM     19  C   UNL     1      46.871   1.665   7.600  0.00  0.00    +0.000 A 
ENDBRANCH  12  14
ENDBRANCH   9  10
ENDBRANCH   6   9
ENDBRANCH   2   3
BRANCH   2  20
ATOM     20  N   UNL     1      48.673   6.447  14.367  0.00  0.00    +0.000 N 
ATOM     21  C   UNL     1      48.991   7.750  14.660  0.00  0.00    +0.000 C 
ATOM     22  O   UNL     1      48.210   8.516  15.213  0.00  0.00    +0.000 OA
ATOM     23  H   UNL     1      49.218   5.998  13.638  0.00  0.00    +0.000 HD
BRANCH  21  24
ATOM     24  C   UNL     1      50.364   8.176  14.333  0.00  0.00    +0.000 A 
ATOM     25  C   UNL     1      51.228   8.546  15.356  0.00  0.00    +0.000 A 
ATOM     26  S   UNL     1      52.779   9.003  14.813  0.00  0.00    +0.000 S 
ATOM     27  C   UNL     1      52.339   8.762  13.187  0.00  0.00    +0.000 A 
ATOM     28  N   UNL     1      53.215   9.022  12.180  0.00  0.00    +0.000 NA
ATOM     29  C   UNL     1      52.740   8.825  10.995  0.00  0.00    +0.000 A 
ATOM     30  N   UNL     1      51.472   8.377  10.728  0.00  0.00    +0.000 N 
ATOM     31  C   UNL     1      50.570   8.058  11.715  0.00  0.00    +0.000 A 
ATOM     32  O   UNL     1      49.470   7.583  11.451  0.00  0.00    +0.000 OA
ATOM     33  C   UNL     1      51.040   8.301  13.064  0.00  0.00    +0.000 A 
ATOM     34  H   UNL     1      51.171   8.222   9.777  0.00  0.00    +0.000 HD
ENDBRANCH  21  24
ENDBRANCH   2  20
TORSDOF 6
ENDMDL
MODEL 5
REMARK VINA RESULT:    -7.992      3.035      8.913
REMARK INTER + INTRA:         -10.773
REMARK INTER:                 -10.161
REMARK INTRA:                  -0.611
REMARK UNBOUND:                 0.023
REMARK  Name = 
REMARK  8 active torsions:
REMARK  status: ('A' for Active; 'I' for Inactive)
REMARK    1  A    between atoms: C_1  and  C_2
REMARK    2  A    between atoms: C_2  and  N_3
REMARK    3  A    between atoms: C_2  and  C_16
REMARK    4  A    between atoms: C_4  and  C_6
REMARK    5  A    between atoms: C_19  and  C_20
REMARK    6  A    between atoms: C_20  and  N_21
REMARK    7  A    between atoms: N_21  and  C_22
REMARK    8  A    between atoms: C_23  and  C_25
REMARK                            x       y       z     vdW  Elec       q    Type
REMARK                         _______ _______ _______ _____ _____    ______ ____
ROOT
ATOM      1  C   UNL     1      48.226   8.157  11.743  0.00  0.00    +0.000 C 
ATOM      2  C   UNL     1      47.276   7.672  12.849  0.00  0.00    +0.000 C 
ENDROOT
BRANCH   2   3
ATOM      3  C   UNL     1      48.097   7.454  14.114  0.00  0.00    +0.000 A 
ATOM      4  C   UNL     1      48.641   8.511  14.855  0.00  0.00    +0.000 A 
ATOM      5  C   UNL     1      49.269   8.269  16.079  0.00  0.00    +0.000 A 
ATOM      6  C   UNL     1      49.324   6.968  16.564  0.00  0.00    +0.000 A 
ATOM      7  N   UNL     1      48.827   5.917  15.856  0.00  0.00    +0.000 NA
ATOM      8  C   UNL     1      48.242   6.181  14.658  0.00  0.00    +0.000 A 
BRANCH   6   9
ATOM      9  C   UNL     1      49.878   6.693  17.955  0.00  0.00    +0.000 C 
BRANCH   9  10
ATOM     10  N   UNL     1      50.254   5.283  18.184  0.00  0.00    +0.000 N 
ATOM     11  C   UNL     1      49.471   4.604  19.215  0.00  0.00    +0.000 C 
ATOM     12  C   UNL     1      51.421   4.800  17.578  0.00  0.00    +0.000 C 
ATOM     13  O   UNL     1      52.147   5.518  16.889  0.00  0.00    +0.000 OA
BRANCH  12  14
ATOM     14  C   UNL     1      51.862   3.392  17.775  0.00  0.00    +0.000 A 
ATOM     15  C   UNL     1      53.056   3.023  18.393  0.00  0.00    +0.000 A 
ATOM     16  C   UNL     1      53.458   1.687  18.384  0.00  0.00    +0.000 A 
ATOM     17  C   UNL     1      52.597   0.745  17.848  0.00  0.00    +0.000 A 
ATOM     18  N   UNL     1      51.375   1.047  17.361  0.00  0.00    +0.000 NA
ATOM     19  C   UNL     1      51.031   2.363  17.343  0.00  0.00    +0.000 A 
ENDBRANCH  12  14
ENDBRANCH   9  10
ENDBRANCH   6   9
ENDBRANCH   2   3
BRANCH   2  20
ATOM     20  N   UNL     1      46.552   6.462  12.472  0.00  0.00    +0.000 N 
ATOM     21  C   UNL     1      45.325   6.467  11.856  0.00  0.00    +0.000 C 
ATOM     22  O   UNL     1      44.741   7.501  11.548  0.00  0.00    +0.000 OA
ATOM     23  H   UNL     1      46.802   5.619  12.980  0.00  0.00    +0.000 HD
BRANCH  21  24
ATOM     24  C   UNL     1      44.760   5.150  11.512  0.00  0.00    +0.000 A 
ATOM     25  C   UNL     1      43.971   4.480  12.438  0.00  0.00    +0.000 A 
ATOM     26  S   UNL     1      43.388   2.976  11.884  0.00  0.00    +0.000 S 
ATOM     27  C   UNL     1      44.205   3.146  10.401  0.00  0.00    +0.000 A 
ATOM     28  N   UNL     1      44.159   2.165   9.461  0.00  0.00    +0.000 NA
ATOM     29  C   UNL     1      44.849   2.412   8.397  0.00  0.00    +0.000 A 
ATOM     30  N   UNL     1      45.566   3.560   8.182  0.00  0.00    +0.000 N 
ATOM     31  C   UNL     1      45.603   4.597   9.084  0.00  0.00    +0.000 A 
ATOM     32  O   UNL     1      46.187   5.647   8.833  0.00  0.00    +0.000 OA
ATOM     33  C   UNL     1      44.879   4.352  10.316  0.00  0.00    +0.000 A 
ATOM     34  H   UNL     1      46.066   3.700   7.317  0.00  0.00    +0.000 HD
ENDBRANCH  21  24
ENDBRANCH   2  20
TORSDOF 6
ENDMDL
MODEL 6
REMARK VINA RESULT:    -7.900      2.554      3.553
REMARK INTER + INTRA:         -10.649
REMARK INTER:                 -10.167
REMARK INTRA:                  -0.481
REMARK UNBOUND:                 0.023
REMARK  Name = 
REMARK  8 active torsions:
REMARK  status: ('A' for Active; 'I' for Inactive)
REMARK    1  A    between atoms: C_1  and  C_2
REMARK    2  A    between atoms: C_2  and  N_3
REMARK    3  A    between atoms: C_2  and  C_16
REMARK    4  A    between atoms: C_4  and  C_6
REMARK    5  A    between atoms: C_19  and  C_20
REMARK    6  A    between atoms: C_20  and  N_21
REMARK    7  A    between atoms: N_21  and  C_22
REMARK    8  A    between atoms: C_23  and  C_25
REMARK                            x       y       z     vdW  Elec       q    Type
REMARK                         _______ _______ _______ _____ _____    ______ ____
ROOT
ATOM      1  C   UNL     1      47.380   4.437  15.701  0.00  0.00    +0.000 C 
ATOM      2  C   UNL     1      47.273   5.675  14.797  0.00  0.00    +0.000 C 
ENDROOT
BRANCH   2   3
ATOM      3  C   UNL     1      46.603   5.254  13.496  0.00  0.00    +0.000 A 
ATOM      4  C   UNL     1      46.172   3.943  13.256  0.00  0.00    +0.000 A 
ATOM      5  C   UNL     1      45.444   3.637  12.105  0.00  0.00    +0.000 A 
ATOM      6  C   UNL     1      45.130   4.655  11.213  0.00  0.00    +0.000 A 
ATOM      7  N   UNL     1      45.555   5.933  11.406  0.00  0.00    +0.000 NA
ATOM      8  C   UNL     1      46.282   6.197  12.524  0.00  0.00    +0.000 A 
BRANCH   6   9
ATOM      9  C   UNL     1      44.221   4.377  10.023  0.00  0.00    +0.000 C 
BRANCH   9  10
ATOM     10  N   UNL     1      44.786   3.426   9.045  0.00  0.00    +0.000 N 
ATOM     11  C   UNL     1      44.376   2.037   9.238  0.00  0.00    +0.000 C 
ATOM     12  C   UNL     1      45.797   3.879   8.186  0.00  0.00    +0.000 C 
ATOM     13  O   UNL     1      46.238   5.027   8.242  0.00  0.00    +0.000 OA
BRANCH  12  14
ATOM     14  C   UNL     1      46.416   2.970   7.183  0.00  0.00    +0.000 A 
ATOM     15  C   UNL     1      46.579   3.285   5.834  0.00  0.00    +0.000 A 
ATOM     16  C   UNL     1      47.020   2.307   4.942  0.00  0.00    +0.000 A 
ATOM     17  C   UNL     1      47.385   1.071   5.448  0.00  0.00    +0.000 A 
ATOM     18  N   UNL     1      47.368   0.773   6.765  0.00  0.00    +0.000 NA
ATOM     19  C   UNL     1      46.891   1.732   7.604  0.00  0.00    +0.000 A 
ENDBRANCH  12  14
ENDBRANCH   9  10
ENDBRANCH   6   9
ENDBRANCH   2   3
BRANCH   2  20
ATOM     20  N   UNL     1      48.570   6.300  14.549  0.00  0.00    +0.000 N 
ATOM     21  C   UNL     1      48.787   7.654  14.602  0.00  0.00    +0.000 C 
ATOM     22  O   UNL     1      47.906   8.458  14.888  0.00  0.00    +0.000 OA
ATOM     23  H   UNL     1      49.225   5.754  13.999  0.00  0.00    +0.000 HD
BRANCH  21  24
ATOM     24  C   UNL     1      50.171   8.103  14.363  0.00  0.00    +0.000 A 
ATOM     25  C   UNL     1      50.416   9.095  13.422  0.00  0.00    +0.000 A 
ATOM     26  S   UNL     1      52.064   9.507  13.272  0.00  0.00    +0.000 S 
ATOM     27  C   UNL     1      52.515   8.345  14.430  0.00  0.00    +0.000 A 
ATOM     28  N   UNL     1      53.822   8.144  14.747  0.00  0.00    +0.000 NA
ATOM     29  C   UNL     1      54.023   7.210  15.617  0.00  0.00    +0.000 A 
ATOM     30  N   UNL     1      53.033   6.471  16.210  0.00  0.00    +0.000 N 
ATOM     31  C   UNL     1      51.696   6.671  15.954  0.00  0.00    +0.000 A 
ATOM     32  O   UNL     1      50.827   6.052  16.558  0.00  0.00    +0.000 OA
ATOM     33  C   UNL     1      51.419   7.680  14.952  0.00  0.00    +0.000 A 
ATOM     34  H   UNL     1      53.257   5.770  16.900  0.00  0.00    +0.000 HD
ENDBRANCH  21  24
ENDBRANCH   2  20
TORSDOF 6
ENDMDL
MODEL 7
REMARK VINA RESULT:    -7.427      2.186      3.222
REMARK INTER + INTRA:         -10.009
REMARK INTER:                  -9.590
REMARK INTRA:                  -0.419
REMARK UNBOUND:                 0.023
REMARK  Name = 
REMARK  8 active torsions:
REMARK  status: ('A' for Active; 'I' for Inactive)
REMARK    1  A    between atoms: C_1  and  C_2
REMARK    2  A    between atoms: C_2  and  N_3
REMARK    3  A    between atoms: C_2  and  C_16
REMARK    4  A    between atoms: C_4  and  C_6
REMARK    5  A    between atoms: C_19  and  C_20
REMARK    6  A    between atoms: C_20  and  N_21
REMARK    7  A    between atoms: N_21  and  C_22
REMARK    8  A    between atoms: C_23  and  C_25
REMARK                            x       y       z     vdW  Elec       q    Type
REMARK                         _______ _______ _______ _____ _____    ______ ____
ROOT
ATOM      1  C   UNL     1      47.701   3.169  15.344  0.00  0.00    +0.000 C 
ATOM      2  C   UNL     1      47.039   4.553  15.435  0.00  0.00    +0.000 C 
ENDROOT
BRANCH   2   3
ATOM      3  C   UNL     1      46.331   4.825  14.115  0.00  0.00    +0.000 A 
ATOM      4  C   UNL     1      46.949   5.486  13.045  0.00  0.00    +0.000 A 
ATOM      5  C   UNL     1      46.307   5.592  11.810  0.00  0.00    +0.000 A 
ATOM      6  C   UNL     1      45.055   5.012  11.649  0.00  0.00    +0.000 A 
ATOM      7  N   UNL     1      44.417   4.385  12.675  0.00  0.00    +0.000 NA
ATOM      8  C   UNL     1      45.058   4.317  13.871  0.00  0.00    +0.000 A 
BRANCH   6   9
ATOM      9  C   UNL     1      44.392   4.992  10.278  0.00  0.00    +0.000 C 
BRANCH   9  10
ATOM     10  N   UNL     1      44.825   3.871   9.418  0.00  0.00    +0.000 N 
ATOM     11  C   UNL     1      44.364   2.555   9.854  0.00  0.00    +0.000 C 
ATOM     12  C   UNL     1      45.781   4.127   8.425  0.00  0.00    +0.000 C 
ATOM     13  O   UNL     1      46.282   5.242   8.270  0.00  0.00    +0.000 OA
BRANCH  12  14
ATOM     14  C   UNL     1      46.267   3.042   7.531  0.00  0.00    +0.000 A 
ATOM     15  C   UNL     1      46.503   1.731   7.944  0.00  0.00    +0.000 A 
ATOM     16  C   UNL     1      47.113   0.828   7.074  0.00  0.00    +0.000 A 
ATOM     17  C   UNL     1      47.372   1.237   5.776  0.00  0.00    +0.000 A 
ATOM     18  N   UNL     1      47.036   2.456   5.301  0.00  0.00    +0.000 NA
ATOM     19  C   UNL     1      46.484   3.328   6.187  0.00  0.00    +0.000 A 
ENDBRANCH  12  14
ENDBRANCH   9  10
ENDBRANCH   6   9
ENDBRANCH   2   3
BRANCH   2  20
ATOM     20  N   UNL     1      47.995   5.610  15.753  0.00  0.00    +0.000 N 
ATOM     21  C   UNL     1      48.296   6.008  17.032  0.00  0.00    +0.000 C 
ATOM     22  O   UNL     1      47.798   5.486  18.024  0.00  0.00    +0.000 OA
ATOM     23  H   UNL     1      48.174   6.281  15.013  0.00  0.00    +0.000 HD
BRANCH  21  24
ATOM     24  C   UNL     1      49.316   7.064  17.164  0.00  0.00    +0.000 A 
ATOM     25  C   UNL     1      48.917   8.387  17.306  0.00  0.00    +0.000 A 
ATOM     26  S   UNL     1      50.216   9.483  17.456  0.00  0.00    +0.000 S 
ATOM     27  C   UNL     1      51.359   8.232  17.296  0.00  0.00    +0.000 A 
ATOM     28  N   UNL     1      52.692   8.500  17.294  0.00  0.00    +0.000 NA
ATOM     29  C   UNL     1      53.445   7.462  17.134  0.00  0.00    +0.000 A 
ATOM     30  N   UNL     1      52.984   6.179  16.992  0.00  0.00    +0.000 N 
ATOM     31  C   UNL     1      51.648   5.857  17.034  0.00  0.00    +0.000 A 
ATOM     32  O   UNL     1      51.266   4.692  16.986  0.00  0.00    +0.000 OA
ATOM     33  C   UNL     1      50.757   6.992  17.170  0.00  0.00    +0.000 A 
ATOM     34  H   UNL     1      53.628   5.409  16.893  0.00  0.00    +0.000 HD
ENDBRANCH  21  24
ENDBRANCH   2  20
TORSDOF 6
ENDMDL
MODEL 8
REMARK VINA RESULT:    -6.717      3.125      9.393
REMARK INTER + INTRA:          -9.049
REMARK INTER:                  -8.092
REMARK INTRA:                  -0.958
REMARK UNBOUND:                 0.023
REMARK  Name = 
REMARK  8 active torsions:
REMARK  status: ('A' for Active; 'I' for Inactive)
REMARK    1  A    between atoms: C_1  and  C_2
REMARK    2  A    between atoms: C_2  and  N_3
REMARK    3  A    between atoms: C_2  and  C_16
REMARK    4  A    between atoms: C_4  and  C_6
REMARK    5  A    between atoms: C_19  and  C_20
REMARK    6  A    between atoms: C_20  and  N_21
REMARK    7  A    between atoms: N_21  and  C_22
REMARK    8  A    between atoms: C_23  and  C_25
REMARK                            x       y       z     vdW  Elec       q    Type
REMARK                         _______ _______ _______ _____ _____    ______ ____
ROOT
ATOM      1  C   UNL     1      49.632   7.655  11.083  0.00  0.00    +0.000 C 
ATOM      2  C   UNL     1      48.324   8.066  11.777  0.00  0.00    +0.000 C 
ENDROOT
BRANCH   2   3
ATOM      3  C   UNL     1      48.671   8.602  13.160  0.00  0.00    +0.000 A 
ATOM      4  C   UNL     1      47.714   8.774  14.168  0.00  0.00    +0.000 A 
ATOM      5  C   UNL     1      48.102   9.140  15.459  0.00  0.00    +0.000 A 
ATOM      6  C   UNL     1      49.453   9.306  15.736  0.00  0.00    +0.000 A 
ATOM      7  N   UNL     1      50.405   9.170  14.773  0.00  0.00    +0.000 NA
ATOM      8  C   UNL     1      49.995   8.836  13.521  0.00  0.00    +0.000 A 
BRANCH   6   9
ATOM      9  C   UNL     1      49.915   9.568  17.163  0.00  0.00    +0.000 C 
BRANCH   9  10
ATOM     10  N   UNL     1      49.459   8.555  18.137  0.00  0.00    +0.000 N 
ATOM     11  C   UNL     1      48.338   8.977  18.975  0.00  0.00    +0.000 C 
ATOM     12  C   UNL     1      50.245   7.409  18.321  0.00  0.00    +0.000 C 
ATOM     13  O   UNL     1      51.305   7.239  17.718  0.00  0.00    +0.000 OA
BRANCH  12  14
ATOM     14  C   UNL     1      49.848   6.354  19.293  0.00  0.00    +0.000 A 
ATOM     15  C   UNL     1      48.975   5.307  19.001  0.00  0.00    +0.000 A 
ATOM     16  C   UNL     1      48.537   4.463  20.022  0.00  0.00    +0.000 A 
ATOM     17  C   UNL     1      49.071   4.631  21.289  0.00  0.00    +0.000 A 
ATOM     18  N   UNL     1      50.018   5.549  21.580  0.00  0.00    +0.000 NA
ATOM     19  C   UNL     1      50.391   6.385  20.573  0.00  0.00    +0.000 A 
ENDBRANCH  12  14
ENDBRANCH   9  10
ENDBRANCH   6   9
ENDBRANCH   2   3
BRANCH   2  20
ATOM     20  N   UNL     1      47.366   6.968  11.859  0.00  0.00    +0.000 N 
ATOM     21  C   UNL     1      46.007   7.130  11.751  0.00  0.00    +0.000 C 
ATOM     22  O   UNL     1      45.482   8.221  11.552  0.00  0.00    +0.000 OA
ATOM     23  H   UNL     1      47.688   6.135  12.342  0.00  0.00    +0.000 HD
BRANCH  21  24
ATOM     24  C   UNL     1      45.194   5.902  11.818  0.00  0.00    +0.000 A 
ATOM     25  C   UNL     1      44.495   5.606  12.981  0.00  0.00    +0.000 A 
ATOM     26  S   UNL     1      43.598   4.158  12.894  0.00  0.00    +0.000 S 
ATOM     27  C   UNL     1      44.146   3.852  11.311  0.00  0.00    +0.000 A 
ATOM     28  N   UNL     1      43.780   2.721  10.651  0.00  0.00    +0.000 NA
ATOM     29  C   UNL     1      44.293   2.602   9.471  0.00  0.00    +0.000 A 
ATOM     30  N   UNL     1      45.126   3.521   8.887  0.00  0.00    +0.000 N 
ATOM     31  C   UNL     1      45.484   4.699   9.499  0.00  0.00    +0.000 A 
ATOM     32  O   UNL     1      46.166   5.541   8.923  0.00  0.00    +0.000 OA
ATOM     33  C   UNL     1      44.969   4.862  10.844  0.00  0.00    +0.000 A 
ATOM     34  H   UNL     1      45.474   3.377   7.951  0.00  0.00    +0.000 HD
ENDBRANCH  21  24
ENDBRANCH   2  20
TORSDOF 6
ENDMDL
MODEL 9
REMARK VINA RESULT:    -6.662      3.944      8.737
REMARK INTER + INTRA:          -8.975
REMARK INTER:                  -8.378
REMARK INTRA:                  -0.597
REMARK UNBOUND:                 0.023
REMARK  Name = 
REMARK  8 active torsions:
REMARK  status: ('A' for Active; 'I' for Inactive)
REMARK    1  A    between atoms: C_1  and  C_2
REMARK    2  A    between atoms: C_2  and  N_3
REMARK    3  A    between atoms: C_2  and  C_16
REMARK    4  A    between atoms: C_4  and  C_6
REMARK    5  A    between atoms: C_19  and  C_20
REMARK    6  A    between atoms: C_20  and  N_21
REMARK    7  A    between atoms: N_21  and  C_22
REMARK    8  A    between atoms: C_23  and  C_25
REMARK                            x       y       z     vdW  Elec       q    Type
REMARK                         _______ _______ _______ _____ _____    ______ ____
ROOT
ATOM      1  C   UNL     1      49.253   9.454  12.555  0.00  0.00    +0.000 C 
ATOM      2  C   UNL     1      48.323   9.160  13.742  0.00  0.00    +0.000 C 
ENDROOT
BRANCH   2   3
ATOM      3  C   UNL     1      49.189   8.815  14.946  0.00  0.00    +0.000 A 
ATOM      4  C   UNL     1      48.655   8.354  16.156  0.00  0.00    +0.000 A 
ATOM      5  C   UNL     1      49.495   7.923  17.184  0.00  0.00    +0.000 A 
ATOM      6  C   UNL     1      50.870   7.932  16.980  0.00  0.00    +0.000 A 
ATOM      7  N   UNL     1      51.420   8.395  15.825  0.00  0.00    +0.000 NA
ATOM      8  C   UNL     1      50.578   8.830  14.852  0.00  0.00    +0.000 A 
BRANCH   6   9
ATOM      9  C   UNL     1      51.803   7.338  18.028  0.00  0.00    +0.000 C 
BRANCH   9  10
ATOM     10  N   UNL     1      52.178   5.933  17.770  0.00  0.00    +0.000 N 
ATOM     11  C   UNL     1      53.214   5.756  16.755  0.00  0.00    +0.000 C 
ATOM     12  C   UNL     1      51.392   4.921  18.336  0.00  0.00    +0.000 C 
ATOM     13  O   UNL     1      50.392   5.169  19.013  0.00  0.00    +0.000 OA
BRANCH  12  14
ATOM     14  C   UNL     1      51.709   3.485  18.109  0.00  0.00    +0.000 A 
ATOM     15  C   UNL     1      52.886   2.865  18.529  0.00  0.00    +0.000 A 
ATOM     16  C   UNL     1      53.164   1.559  18.128  0.00  0.00    +0.000 A 
ATOM     17  C   UNL     1      52.202   0.875  17.403  0.00  0.00    +0.000 A 
ATOM     18  N   UNL     1      50.996   1.396  17.091  0.00  0.00    +0.000 NA
ATOM     19  C   UNL     1      50.774   2.687  17.459  0.00  0.00    +0.000 A 
ENDBRANCH  12  14
ENDBRANCH   9  10
ENDBRANCH   6   9
ENDBRANCH   2   3
BRANCH   2  20
ATOM     20  N   UNL     1      47.367   8.095  13.452  0.00  0.00    +0.000 N 
ATOM     21  C   UNL     1      47.727   6.843  13.019  0.00  0.00    +0.000 C 
ATOM     22  O   UNL     1      48.895   6.507  12.859  0.00  0.00    +0.000 OA
ATOM     23  H   UNL     1      46.420   8.396  13.242  0.00  0.00    +0.000 HD
BRANCH  21  24
ATOM     24  C   UNL     1      46.628   5.882  12.815  0.00  0.00    +0.000 A 
ATOM     25  C   UNL     1      46.803   4.554  13.183  0.00  0.00    +0.000 A 
ATOM     26  S   UNL     1      45.437   3.574  12.892  0.00  0.00    +0.000 S 
ATOM     27  C   UNL     1      44.576   4.882  12.224  0.00  0.00    +0.000 A 
ATOM     28  N   UNL     1      43.323   4.713  11.726  0.00  0.00    +0.000 NA
ATOM     29  C   UNL     1      42.799   5.781  11.223  0.00  0.00    +0.000 A 
ATOM     30  N   UNL     1      43.411   7.006  11.187  0.00  0.00    +0.000 N 
ATOM     31  C   UNL     1      44.658   7.234  11.721  0.00  0.00    +0.000 A 
ATOM     32  O   UNL     1      45.149   8.358  11.748  0.00  0.00    +0.000 OA
ATOM     33  C   UNL     1      45.307   6.057  12.261  0.00  0.00    +0.000 A 
ATOM     34  H   UNL     1      42.936   7.808  10.799  0.00  0.00    +0.000 HD
ENDBRANCH  21  24
ENDBRANCH   2  20
TORSDOF 6
ENDMDL
