MODEL 1
REMARK VINA RESULT:    -7.226      0.000      0.000
REMARK INTER + INTRA:         -10.778
REMARK INTER:                  -9.760
REMARK INTRA:                  -1.018
REMARK UNBOUND:                -1.018
REMARK  Name = 
REMARK  8 active torsions:
REMARK  status: ('A' for Active; 'I' for Inactive)
REMARK    1  A    between atoms: C_1  and  C_2
REMARK    2  A    between atoms: C_2  and  C_3
REMARK    3  A    between atoms: C_2  and  O_4
REMARK    4  A    between atoms: O_4  and  C_5
REMARK    5  A    between atoms: C_10  and  C_11
REMARK    6  A    between atoms: C_11  and  O_12
REMARK    7  A    between atoms: O_12  and  C_13
REMARK    8  A    between atoms: C_17  and  C_18
REMARK                            x       y       z     vdW  Elec       q    Type
REMARK                         _______ _______ _______ _____ _____    ______ ____
ROOT
ATOM      1  O   UNL     1      47.760   6.162  12.756  0.00  0.00    +0.000 OA
ENDROOT
BRANCH   1   2
ATOM      2  C   UNL     1      48.163   6.424  14.039  0.00  0.00    +0.000 A 
ATOM      3  C   UNL     1      48.690   7.638  14.473  0.00  0.00    +0.000 A 
ATOM      4  C   UNL     1      49.077   7.796  15.799  0.00  0.00    +0.000 A 
ATOM      5  C   UNL     1      48.897   6.755  16.706  0.00  0.00    +0.000 A 
ATOM      6  C   UNL     1      48.297   5.548  16.321  0.00  0.00    +0.000 A 
ATOM      7  C   UNL     1      47.968   5.387  14.961  0.00  0.00    +0.000 A 
BRANCH   6   8
ATOM      8  C   UNL     1      47.957   4.441  17.324  0.00  0.00    +0.000 C 
ATOM      9  C   UNL     1      49.062   4.276  18.389  0.00  0.00    +0.000 C 
ATOM     10  C   UNL     1      50.311   3.626  17.795  0.00  0.00    +0.000 C 
ATOM     11  C   UNL     1      49.991   2.323  17.059  0.00  0.00    +0.000 C 
ATOM     12  N   UNL     1      48.886   2.440  16.112  0.00  0.00    +0.000 NA
ATOM     13  C   UNL     1      47.689   3.039  16.719  0.00  0.00    +0.000 C 
ATOM     14  H   UNL     1      48.661   1.526  15.725  0.00  0.00    +0.000 HD
ENDBRANCH   6   8
ENDBRANCH   1   2
BRANCH   1  15
ATOM     15  C   UNL     1      46.683   6.977  12.286  0.00  0.00    +0.000 C 
BRANCH  15  21
ATOM     16  C   UNL     1      44.341   4.620  10.377  0.00  0.00    +0.000 A 
ATOM     17  C   UNL     1      43.403   4.338  11.371  0.00  0.00    +0.000 A 
ATOM     18  C   UNL     1      43.501   4.948  12.620  0.00  0.00    +0.000 A 
ATOM     19  F   UNL     1      42.587   4.668  13.553  0.00  0.00    +0.000 F 
ATOM     20  C   UNL     1      44.537   5.823  12.912  0.00  0.00    +0.000 A 
ATOM     21  C   UNL     1      45.502   6.103  11.943  0.00  0.00    +0.000 A 
ATOM     22  C   UNL     1      45.387   5.505  10.679  0.00  0.00    +0.000 A 
ATOM     23  F   UNL     1      46.311   5.779   9.742  0.00  0.00    +0.000 F 
BRANCH  16  24
ATOM     24  O   UNL     1      44.328   4.100   9.106  0.00  0.00    +0.000 OA
BRANCH  24  26
ATOM     25  C   UNL     1      44.721   1.743   8.884  0.00  0.00    +0.000 C 
ATOM     26  C   UNL     1      45.332   3.134   8.747  0.00  0.00    +0.000 C 
ATOM     27  C   UNL     1      45.794   3.376   7.314  0.00  0.00    +0.000 C 
ENDBRANCH  24  26
ENDBRANCH  16  24
ENDBRANCH  15  21
ENDBRANCH   1  15
TORSDOF 6
ENDMDL
MODEL 2
REMARK VINA RESULT:    -6.765      2.634      7.999
REMARK INTER + INTRA:         -10.155
REMARK INTER:                  -9.397
REMARK INTRA:                  -0.758
REMARK UNBOUND:                -1.018
REMARK  Name = 
REMARK  8 active torsions:
REMARK  status: ('A' for Active; 'I' for Inactive)
REMARK    1  A    between atoms: C_1  and  C_2
REMARK    2  A    between atoms: C_2  and  C_3
REMARK    3  A    between atoms: C_2  and  O_4
REMARK    4  A    between atoms: O_4  and  C_5
REMARK    5  A    between atoms: C_10  and  C_11
REMARK    6  A    between atoms: C_11  and  O_12
REMARK    7  A    between atoms: O_12  and  C_13
REMARK    8  A    between atoms: C_17  and  C_18
REMARK                            x       y       z     vdW  Elec       q    Type
REMARK                         _______ _______ _______ _____ _____    ______ ____
ROOT
ATOM      1  O   UNL     1      43.895   5.162   9.881  0.00  0.00    +0.000 OA
ENDROOT
BRANCH   1   2
ATOM      2  C   UNL     1      44.501   4.026   9.410  0.00  0.00    +0.000 A 
ATOM      3  C   UNL     1      44.106   2.727   9.724  0.00  0.00    +0.000 A 
ATOM      4  C   UNL     1      44.797   1.642   9.196  0.00  0.00    +0.000 A 
ATOM      5  C   UNL     1      45.858   1.851   8.319  0.00  0.00    +0.000 A 
ATOM      6  C   UNL     1      46.232   3.143   7.920  0.00  0.00    +0.000 A 
ATOM      7  C   UNL     1      45.557   4.229   8.513  0.00  0.00    +0.000 A 
BRANCH   6   8
ATOM      8  C   UNL     1      47.298   3.399   6.851  0.00  0.00    +0.000 C 
ATOM      9  C   UNL     1      46.681   3.481   5.438  0.00  0.00    +0.000 C 
ATOM     10  C   UNL     1      46.235   2.104   4.947  0.00  0.00    +0.000 C 
ATOM     11  C   UNL     1      47.352   1.063   5.051  0.00  0.00    +0.000 C 
ATOM     12  N   UNL     1      48.008   1.035   6.355  0.00  0.00    +0.000 NA
ATOM     13  C   UNL     1      48.453   2.367   6.787  0.00  0.00    +0.000 C 
ATOM     14  H   UNL     1      48.798   0.393   6.334  0.00  0.00    +0.000 HD
ENDBRANCH   6   8
ENDBRANCH   1   2
BRANCH   1  15
ATOM     15  C   UNL     1      43.695   5.193  11.296  0.00  0.00    +0.000 C 
BRANCH  15  21
ATOM     16  C   UNL     1      46.909   5.387  13.374  0.00  0.00    +0.000 A 
ATOM     17  C   UNL     1      47.327   6.684  13.070  0.00  0.00    +0.000 A 
ATOM     18  C   UNL     1      46.548   7.497  12.249  0.00  0.00    +0.000 A 
ATOM     19  F   UNL     1      46.964   8.737  11.979  0.00  0.00    +0.000 F 
ATOM     20  C   UNL     1      45.360   7.034  11.700  0.00  0.00    +0.000 A 
ATOM     21  C   UNL     1      44.933   5.733  11.968  0.00  0.00    +0.000 A 
ATOM     22  C   UNL     1      45.708   4.925  12.814  0.00  0.00    +0.000 A 
ATOM     23  F   UNL     1      45.294   3.675  13.080  0.00  0.00    +0.000 F 
BRANCH  16  24
ATOM     24  O   UNL     1      47.581   4.511  14.190  0.00  0.00    +0.000 OA
BRANCH  24  26
ATOM     25  C   UNL     1      47.684   3.284  16.250  0.00  0.00    +0.000 C 
ATOM     26  C   UNL     1      47.436   4.649  15.615  0.00  0.00    +0.000 C 
ATOM     27  C   UNL     1      48.437   5.672  16.140  0.00  0.00    +0.000 C 
ENDBRANCH  24  26
ENDBRANCH  16  24
ENDBRANCH  15  21
ENDBRANCH   1  15
TORSDOF 6
ENDMDL
MODEL 3
REMARK VINA RESULT:    -6.733      1.692      2.287
REMARK INTER + INTRA:         -10.112
REMARK INTER:                  -9.323
REMARK INTRA:                  -0.790
REMARK UNBOUND:                -1.018
REMARK  Name = 
REMARK  8 active torsions:
REMARK  status: ('A' for Active; 'I' for Inactive)
REMARK    1  A    between atoms: C_1  and  C_2
REMARK    2  A    between atoms: C_2  and  C_3
REMARK    3  A    between atoms: C_2  and  O_4
REMARK    4  A    between atoms: O_4  and  C_5
REMARK    5  A    between atoms: C_10  and  C_11
REMARK    6  A    between atoms: C_11  and  O_12
REMARK    7  A    between atoms: O_12  and  C_13
REMARK    8  A    between atoms: C_17  and  C_18
REMARK                            x       y       z     vdW  Elec       q    Type
REMARK                         _______ _______ _______ _____ _____    ______ ____
ROOT
ATOM      1  O   UNL     1      47.227   6.129  12.226  0.00  0.00    +0.000 OA
ENDROOT
BRANCH   1   2
ATOM      2  C   UNL     1      47.614   6.904  13.288  0.00  0.00    +0.000 A 
ATOM      3  C   UNL     1      47.353   8.267  13.413  0.00  0.00    +0.000 A 
ATOM      4  C   UNL     1      47.799   8.963  14.531  0.00  0.00    +0.000 A 
ATOM      5  C   UNL     1      48.468   8.289  15.550  0.00  0.00    +0.000 A 
ATOM      6  C   UNL     1      48.677   6.903  15.494  0.00  0.00    +0.000 A 
ATOM      7  C   UNL     1      48.271   6.230  14.325  0.00  0.00    +0.000 A 
BRANCH   6   8
ATOM      8  C   UNL     1      49.281   6.114  16.659  0.00  0.00    +0.000 C 
ATOM      9  C   UNL     1      48.727   4.674  16.720  0.00  0.00    +0.000 C 
ATOM     10  C   UNL     1      47.277   4.659  17.203  0.00  0.00    +0.000 C 
ATOM     11  C   UNL     1      47.095   5.425  18.514  0.00  0.00    +0.000 C 
ATOM     12  N   UNL     1      47.693   6.757  18.503  0.00  0.00    +0.000 NA
ATOM     13  C   UNL     1      49.096   6.737  18.066  0.00  0.00    +0.000 C 
ATOM     14  H   UNL     1      47.621   7.178  19.427  0.00  0.00    +0.000 HD
ENDBRANCH   6   8
ENDBRANCH   1   2
BRANCH   1  15
ATOM     15  C   UNL     1      45.971   6.489  11.645  0.00  0.00    +0.000 C 
BRANCH  15  21
ATOM     16  C   UNL     1      44.898   3.668   9.285  0.00  0.00    +0.000 A 
ATOM     17  C   UNL     1      44.176   2.862  10.166  0.00  0.00    +0.000 A 
ATOM     18  C   UNL     1      43.995   3.260  11.490  0.00  0.00    +0.000 A 
ATOM     19  F   UNL     1      43.293   2.477  12.313  0.00  0.00    +0.000 F 
ATOM     20  C   UNL     1      44.543   4.443  11.965  0.00  0.00    +0.000 A 
ATOM     21  C   UNL     1      45.291   5.253  11.110  0.00  0.00    +0.000 A 
ATOM     22  C   UNL     1      45.452   4.862   9.772  0.00  0.00    +0.000 A 
ATOM     23  F   UNL     1      46.165   5.644   8.945  0.00  0.00    +0.000 F 
BRANCH  16  24
ATOM     24  O   UNL     1      45.116   3.390   7.957  0.00  0.00    +0.000 OA
BRANCH  24  26
ATOM     25  C   UNL     1      46.448   1.394   7.917  0.00  0.00    +0.000 C 
ATOM     26  C   UNL     1      46.402   2.877   7.564  0.00  0.00    +0.000 C 
ATOM     27  C   UNL     1      46.601   3.076   6.065  0.00  0.00    +0.000 C 
ENDBRANCH  24  26
ENDBRANCH  16  24
ENDBRANCH  15  21
ENDBRANCH   1  15
TORSDOF 6
ENDMDL
MODEL 4
REMARK VINA RESULT:    -6.621      3.303      7.663
REMARK INTER + INTRA:          -9.961
REMARK INTER:                  -9.087
REMARK INTRA:                  -0.875
REMARK UNBOUND:                -1.018
REMARK  Name = 
REMARK  8 active torsions:
REMARK  status: ('A' for Active; 'I' for Inactive)
REMARK    1  A    between atoms: C_1  and  C_2
REMARK    2  A    between atoms: C_2  and  C_3
REMARK    3  A    between atoms: C_2  and  O_4
REMARK    4  A    between atoms: O_4  and  C_5
REMARK    5  A    between atoms: C_10  and  C_11
REMARK    6  A    between atoms: C_11  and  O_12
REMARK    7  A    between atoms: O_12  and  C_13
REMARK    8  A    between atoms: C_17  and  C_18
REMARK                            x       y       z     vdW  Elec       q    Type
REMARK                         _______ _______ _______ _____ _____    ______ ____
ROOT
ATOM      1  O   UNL     1      48.473   6.114  14.325  0.00  0.00    +0.000 OA
ENDROOT
BRANCH   1   2
ATOM      2  C   UNL     1      47.374   6.553  13.635  0.00  0.00    +0.000 A 
ATOM      3  C   UNL     1      47.280   7.787  12.993  0.00  0.00    +0.000 A 
ATOM      4  C   UNL     1      46.113   8.138  12.325  0.00  0.00    +0.000 A 
ATOM      5  C   UNL     1      45.050   7.240  12.259  0.00  0.00    +0.000 A 
ATOM      6  C   UNL     1      45.140   5.961  12.825  0.00  0.00    +0.000 A 
ATOM      7  C   UNL     1      46.308   5.648  13.548  0.00  0.00    +0.000 A 
BRANCH   6   8
ATOM      8  C   UNL     1      44.047   4.902  12.646  0.00  0.00    +0.000 C 
ATOM      9  C   UNL     1      44.630   3.555  12.170  0.00  0.00    +0.000 C 
ATOM     10  C   UNL     1      45.074   3.628  10.710  0.00  0.00    +0.000 C 
ATOM     11  C   UNL     1      43.968   4.156   9.795  0.00  0.00    +0.000 C 
ATOM     12  N   UNL     1      43.343   5.384  10.278  0.00  0.00    +0.000 NA
ATOM     13  C   UNL     1      42.898   5.274  11.674  0.00  0.00    +0.000 C 
ATOM     14  H   UNL     1      42.558   5.634   9.680  0.00  0.00    +0.000 HD
ENDBRANCH   6   8
ENDBRANCH   1   2
BRANCH   1  15
ATOM     15  C   UNL     1      48.477   6.439  15.717  0.00  0.00    +0.000 C 
BRANCH  15  21
ATOM     16  C   UNL     1      49.962   3.724  17.978  0.00  0.00    +0.000 A 
ATOM     17  C   UNL     1      48.837   2.925  18.184  0.00  0.00    +0.000 A 
ATOM     18  C   UNL     1      47.633   3.234  17.554  0.00  0.00    +0.000 A 
ATOM     19  F   UNL     1      46.572   2.450  17.760  0.00  0.00    +0.000 F 
ATOM     20  C   UNL     1      47.518   4.346  16.732  0.00  0.00    +0.000 A 
ATOM     21  C   UNL     1      48.622   5.176  16.530  0.00  0.00    +0.000 A 
ATOM     22  C   UNL     1      49.839   4.849  17.147  0.00  0.00    +0.000 A 
ATOM     23  F   UNL     1      50.905   5.642  16.947  0.00  0.00    +0.000 F 
BRANCH  16  24
ATOM     24  O   UNL     1      51.203   3.500  18.524  0.00  0.00    +0.000 OA
BRANCH  24  26
ATOM     25  C   UNL     1      53.564   3.129  18.313  0.00  0.00    +0.000 C 
ATOM     26  C   UNL     1      52.189   2.815  17.732  0.00  0.00    +0.000 C 
ATOM     27  C   UNL     1      51.926   1.313  17.765  0.00  0.00    +0.000 C 
ENDBRANCH  24  26
ENDBRANCH  16  24
ENDBRANCH  15  21
ENDBRANCH   1  15
TORSDOF 6
ENDMDL
MODEL 5
REMARK VINA RESULT:    -6.606      3.508      8.230
REMARK INTER + INTRA:          -9.941
REMARK INTER:                  -8.949
REMARK INTRA:                  -0.992
REMARK UNBOUND:                -1.018
REMARK  Name = 
REMARK  8 active torsions:
REMARK  status: ('A' for Active; 'I' for Inactive)
REMARK    1  A    between atoms: C_1  and  C_2
REMARK    2  A    between atoms: C_2  and  C_3
REMARK    3  A    between atoms: C_2  and  O_4
REMARK    4  A    between atoms: O_4  and  C_5
REMARK    5  A    between atoms: C_10  and  C_11
REMARK    6  A    between atoms: C_11  and  O_12
REMARK    7  A    between atoms: O_12  and  C_13
REMARK    8  A    between atoms: C_17  and  C_18
REMARK                            x       y       z     vdW  Elec       q    Type
REMARK                         _______ _______ _______ _____ _____    ______ ____
ROOT
ATOM      1  O   UNL     1      48.297   5.741  14.306  0.00  0.00    +0.000 OA
ENDROOT
BRANCH   1   2
ATOM      2  C   UNL     1      47.270   6.267  13.567  0.00  0.00    +0.000 A 
ATOM      3  C   UNL     1      47.300   7.511  12.938  0.00  0.00    +0.000 A 
ATOM      4  C   UNL     1      46.197   7.954  12.217  0.00  0.00    +0.000 A 
ATOM      5  C   UNL     1      45.077   7.137  12.084  0.00  0.00    +0.000 A 
ATOM      6  C   UNL     1      45.044   5.849  12.637  0.00  0.00    +0.000 A 
ATOM      7  C   UNL     1      46.147   5.444  13.414  0.00  0.00    +0.000 A 
BRANCH   6   8
ATOM      8  C   UNL     1      43.887   4.876  12.389  0.00  0.00    +0.000 C 
ATOM      9  C   UNL     1      44.395   3.444  12.117  0.00  0.00    +0.000 C 
ATOM     10  C   UNL     1      45.041   3.338  10.736  0.00  0.00    +0.000 C 
ATOM     11  C   UNL     1      44.129   3.869   9.628  0.00  0.00    +0.000 C 
ATOM     12  N   UNL     1      43.568   5.187   9.911  0.00  0.00    +0.000 NA
ATOM     13  C   UNL     1      42.926   5.250  11.231  0.00  0.00    +0.000 C 
ATOM     14  H   UNL     1      42.901   5.444   9.186  0.00  0.00    +0.000 HD
ENDBRANCH   6   8
ENDBRANCH   1   2
BRANCH   1  15
ATOM     15  C   UNL     1      48.533   6.394  15.556  0.00  0.00    +0.000 C 
BRANCH  15  21
ATOM     16  C   UNL     1      49.508   4.607  18.803  0.00  0.00    +0.000 A 
ATOM     17  C   UNL     1      48.600   3.547  18.789  0.00  0.00    +0.000 A 
ATOM     18  C   UNL     1      47.726   3.387  17.715  0.00  0.00    +0.000 A 
ATOM     19  F   UNL     1      46.872   2.360  17.720  0.00  0.00    +0.000 F 
ATOM     20  C   UNL     1      47.721   4.281  16.655  0.00  0.00    +0.000 A 
ATOM     21  C   UNL     1      48.602   5.364  16.657  0.00  0.00    +0.000 A 
ATOM     22  C   UNL     1      49.496   5.509  17.728  0.00  0.00    +0.000 A 
ATOM     23  F   UNL     1      50.350   6.546  17.728  0.00  0.00    +0.000 F 
BRANCH  16  24
ATOM     24  O   UNL     1      50.430   4.846  19.792  0.00  0.00    +0.000 OA
BRANCH  24  26
ATOM     25  C   UNL     1      51.062   4.819  22.107  0.00  0.00    +0.000 C 
ATOM     26  C   UNL     1      49.955   5.158  21.114  0.00  0.00    +0.000 C 
ATOM     27  C   UNL     1      49.597   6.638  21.198  0.00  0.00    +0.000 C 
ENDBRANCH  24  26
ENDBRANCH  16  24
ENDBRANCH  15  21
ENDBRANCH   1  15
TORSDOF 6
ENDMDL
MODEL 6
REMARK VINA RESULT:    -6.565      3.736      8.317
REMARK INTER + INTRA:          -9.886
REMARK INTER:                  -8.915
REMARK INTRA:                  -0.971
REMARK UNBOUND:                -1.018
REMARK  Name = 
REMARK  8 active torsions:
REMARK  status: ('A' for Active; 'I' for Inactive)
REMARK    1  A    between atoms: C_1  and  C_2
REMARK    2  A    between atoms: C_2  and  C_3
REMARK    3  A    between atoms: C_2  and  O_4
REMARK    4  A    between atoms: O_4  and  C_5
REMARK    5  A    between atoms: C_10  and  C_11
REMARK    6  A    between atoms: C_11  and  O_12
REMARK    7  A    between atoms: O_12  and  C_13
REMARK    8  A    between atoms: C_17  and  C_18
REMARK                            x       y       z     vdW  Elec       q    Type
REMARK                         _______ _______ _______ _____ _____    ______ ____
ROOT
ATOM      1  O   UNL     1      47.340   3.489  14.986  0.00  0.00    +0.000 OA
ENDROOT
BRANCH   1   2
ATOM      2  C   UNL     1      46.797   4.479  14.209  0.00  0.00    +0.000 A 
ATOM      3  C   UNL     1      47.422   5.689  13.914  0.00  0.00    +0.000 A 
ATOM      4  C   UNL     1      46.778   6.630  13.120  0.00  0.00    +0.000 A 
ATOM      5  C   UNL     1      45.524   6.348  12.581  0.00  0.00    +0.000 A 
ATOM      6  C   UNL     1      44.902   5.110  12.793  0.00  0.00    +0.000 A 
ATOM      7  C   UNL     1      45.545   4.194  13.649  0.00  0.00    +0.000 A 
BRANCH   6   8
ATOM      8  C   UNL     1      43.594   4.717  12.100  0.00  0.00    +0.000 C 
ATOM      9  C   UNL     1      43.536   3.203  11.805  0.00  0.00    +0.000 C 
ATOM     10  C   UNL     1      44.483   2.823  10.668  0.00  0.00    +0.000 C 
ATOM     11  C   UNL     1      44.264   3.683   9.421  0.00  0.00    +0.000 C 
ATOM     12  N   UNL     1      44.226   5.116   9.696  0.00  0.00    +0.000 NA
ATOM     13  C   UNL     1      43.284   5.455  10.772  0.00  0.00    +0.000 C 
ATOM     14  H   UNL     1      43.986   5.627   8.849  0.00  0.00    +0.000 HD
ENDBRANCH   6   8
ENDBRANCH   1   2
BRANCH   1  15
ATOM     15  C   UNL     1      47.420   3.795  16.380  0.00  0.00    +0.000 C 
BRANCH  15  21
ATOM     16  C   UNL     1      50.875   4.519  17.871  0.00  0.00    +0.000 A 
ATOM     17  C   UNL     1      51.410   3.230  17.905  0.00  0.00    +0.000 A 
ATOM     18  C   UNL     1      50.679   2.156  17.401  0.00  0.00    +0.000 A 
ATOM     19  F   UNL     1      51.215   0.933  17.437  0.00  0.00    +0.000 F 
ATOM     20  C   UNL     1      49.407   2.334  16.879  0.00  0.00    +0.000 A 
ATOM     21  C   UNL     1      48.840   3.609  16.856  0.00  0.00    +0.000 A 
ATOM     22  C   UNL     1      49.587   4.693  17.343  0.00  0.00    +0.000 A 
ATOM     23  F   UNL     1      49.046   5.923  17.314  0.00  0.00    +0.000 F 
BRANCH  16  24
ATOM     24  O   UNL     1      51.513   5.652  18.313  0.00  0.00    +0.000 OA
BRANCH  24  26
ATOM     25  C   UNL     1      52.663   6.482  16.377  0.00  0.00    +0.000 C 
ATOM     26  C   UNL     1      52.823   5.949  17.798  0.00  0.00    +0.000 C 
ATOM     27  C   UNL     1      53.505   6.986  18.684  0.00  0.00    +0.000 C 
ENDBRANCH  24  26
ENDBRANCH  16  24
ENDBRANCH  15  21
ENDBRANCH   1  15
TORSDOF 6
ENDMDL
MODEL 7
REMARK VINA RESULT:    -6.500      3.419      7.924
REMARK INTER + INTRA:          -9.797
REMARK INTER:                  -8.972
REMARK INTRA:                  -0.825
REMARK UNBOUND:                -1.018
REMARK  Name = 
REMARK  8 active torsions:
REMARK  status: ('A' for Active; 'I' for Inactive)
REMARK    1  A    between atoms: C_1  and  C_2
REMARK    2  A    between atoms: C_2  and  C_3
REMARK    3  A    between atoms: C_2  and  O_4
REMARK    4  A    between atoms: O_4  and  C_5
REMARK    5  A    between atoms: C_10  and  C_11
REMARK    6  A    between atoms: C_11  and  O_12
REMARK    7  A    between atoms: O_12  and  C_13
REMARK    8  A    between atoms: C_17  and  C_18
REMARK                            x       y       z     vdW  Elec       q    Type
REMARK                         _______ _______ _______ _____ _____    ______ ____
ROOT
ATOM      1  O   UNL     1      43.715   5.015   9.852  0.00  0.00    +0.000 OA
ENDROOT
BRANCH   1   2
ATOM      2  C   UNL     1      44.385   3.908   9.400  0.00  0.00    +0.000 A 
ATOM      3  C   UNL     1      44.058   2.594   9.727  0.00  0.00    +0.000 A 
ATOM      4  C   UNL     1      44.810   1.541   9.220  0.00  0.00    +0.000 A 
ATOM      5  C   UNL     1      45.866   1.796   8.347  0.00  0.00    +0.000 A 
ATOM      6  C   UNL     1      46.173   3.100   7.935  0.00  0.00    +0.000 A 
ATOM      7  C   UNL     1      45.436   4.156   8.508  0.00  0.00    +0.000 A 
BRANCH   6   8
ATOM      8  C   UNL     1      47.232   3.400   6.870  0.00  0.00    +0.000 C 
ATOM      9  C   UNL     1      46.619   3.454   5.455  0.00  0.00    +0.000 C 
ATOM     10  C   UNL     1      46.235   2.059   4.963  0.00  0.00    +0.000 C 
ATOM     11  C   UNL     1      47.394   1.067   5.074  0.00  0.00    +0.000 C 
ATOM     12  N   UNL     1      48.044   1.067   6.381  0.00  0.00    +0.000 NA
ATOM     13  C   UNL     1      48.431   2.417   6.813  0.00  0.00    +0.000 C 
ATOM     14  H   UNL     1      48.860   0.459   6.364  0.00  0.00    +0.000 HD
ENDBRANCH   6   8
ENDBRANCH   1   2
BRANCH   1  15
ATOM     15  C   UNL     1      43.550   5.080  11.270  0.00  0.00    +0.000 C 
BRANCH  15  21
ATOM     16  C   UNL     1      46.859   6.712  12.307  0.00  0.00    +0.000 A 
ATOM     17  C   UNL     1      47.296   5.804  13.272  0.00  0.00    +0.000 A 
ATOM     18  C   UNL     1      46.555   4.655  13.539  0.00  0.00    +0.000 A 
ATOM     19  F   UNL     1      46.997   3.796  14.462  0.00  0.00    +0.000 F 
ATOM     20  C   UNL     1      45.363   4.399  12.876  0.00  0.00    +0.000 A 
ATOM     21  C   UNL     1      44.892   5.303  11.924  0.00  0.00    +0.000 A 
ATOM     22  C   UNL     1      45.653   6.448  11.640  0.00  0.00    +0.000 A 
ATOM     23  F   UNL     1      45.205   7.317  10.719  0.00  0.00    +0.000 F 
BRANCH  16  24
ATOM     24  O   UNL     1      47.521   7.860  11.944  0.00  0.00    +0.000 OA
BRANCH  24  26
ATOM     25  C   UNL     1      48.878   9.275  13.327  0.00  0.00    +0.000 C 
ATOM     26  C   UNL     1      47.464   8.995  12.826  0.00  0.00    +0.000 C 
ATOM     27  C   UNL     1      46.912  10.204  12.079  0.00  0.00    +0.000 C 
ENDBRANCH  24  26
ENDBRANCH  16  24
ENDBRANCH  15  21
ENDBRANCH   1  15
TORSDOF 6
ENDMDL
MODEL 8
REMARK VINA RESULT:    -6.493      3.411      4.521
REMARK INTER + INTRA:          -9.788
REMARK INTER:                  -9.029
REMARK INTRA:                  -0.758
REMARK UNBOUND:                -1.018
REMARK  Name = 
REMARK  8 active torsions:
REMARK  status: ('A' for Active; 'I' for Inactive)
REMARK    1  A    between atoms: C_1  and  C_2
REMARK    2  A    between atoms: C_2  and  C_3
REMARK    3  A    between atoms: C_2  and  O_4
REMARK    4  A    between atoms: O_4  and  C_5
REMARK    5  A    between atoms: C_10  and  C_11
REMARK    6  A    between atoms: C_11  and  O_12
REMARK    7  A    between atoms: O_12  and  C_13
REMARK    8  A    between atoms: C_17  and  C_18
REMARK                            x       y       z     vdW  Elec       q    Type
REMARK                         _______ _______ _______ _____ _____    ______ ____
ROOT
ATOM      1  O   UNL     1      45.058   6.939  12.791  0.00  0.00    +0.000 OA
ENDROOT
BRANCH   1   2
ATOM      2  C   UNL     1      45.703   8.122  12.542  0.00  0.00    +0.000 A 
ATOM      3  C   UNL     1      45.112   9.241  11.958  0.00  0.00    +0.000 A 
ATOM      4  C   UNL     1      45.860  10.392  11.742  0.00  0.00    +0.000 A 
ATOM      5  C   UNL     1      47.191  10.445  12.151  0.00  0.00    +0.000 A 
ATOM      6  C   UNL     1      47.794   9.366  12.813  0.00  0.00    +0.000 A 
ATOM      7  C   UNL     1      47.036   8.189  12.967  0.00  0.00    +0.000 A 
BRANCH   6   8
ATOM      8  C   UNL     1      49.207   9.446  13.399  0.00  0.00    +0.000 C 
ATOM      9  C   UNL     1      50.146  10.290  12.512  0.00  0.00    +0.000 C 
ATOM     10  C   UNL     1      50.509   9.548  11.225  0.00  0.00    +0.000 C 
ATOM     11  C   UNL     1      51.049   8.144  11.500  0.00  0.00    +0.000 C 
ATOM     12  N   UNL     1      50.217   7.362  12.411  0.00  0.00    +0.000 NA
ATOM     13  C   UNL     1      49.912   8.088  13.652  0.00  0.00    +0.000 C 
ATOM     14  H   UNL     1      50.673   6.478  12.627  0.00  0.00    +0.000 HD
ENDBRANCH   6   8
ENDBRANCH   1   2
BRANCH   1  15
ATOM     15  C   UNL     1      45.861   5.769  12.615  0.00  0.00    +0.000 C 
BRANCH  15  21
ATOM     16  C   UNL     1      44.918   3.944   9.380  0.00  0.00    +0.000 A 
ATOM     17  C   UNL     1      44.052   2.972   9.882  0.00  0.00    +0.000 A 
ATOM     18  C   UNL     1      43.738   2.948  11.240  0.00  0.00    +0.000 A 
ATOM     19  F   UNL     1      42.900   2.013  11.697  0.00  0.00    +0.000 F 
ATOM     20  C   UNL     1      44.292   3.865  12.121  0.00  0.00    +0.000 A 
ATOM     21  C   UNL     1      45.180   4.832  11.648  0.00  0.00    +0.000 A 
ATOM     22  C   UNL     1      45.476   4.868  10.277  0.00  0.00    +0.000 A 
ATOM     23  F   UNL     1      46.325   5.803   9.817  0.00  0.00    +0.000 F 
BRANCH  16  24
ATOM     24  O   UNL     1      45.275   4.080   8.060  0.00  0.00    +0.000 OA
BRANCH  24  26
ATOM     25  C   UNL     1      46.395   1.957   8.060  0.00  0.00    +0.000 C 
ATOM     26  C   UNL     1      46.460   3.409   7.596  0.00  0.00    +0.000 C 
ATOM     27  C   UNL     1      46.534   3.482   6.075  0.00  0.00    +0.000 C 
ENDBRANCH  24  26
ENDBRANCH  16  24
ENDBRANCH  15  21
ENDBRANCH   1  15
TORSDOF 6
ENDMDL
MODEL 9
REMARK VINA RESULT:    -6.446      2.357      3.669
REMARK INTER + INTRA:          -9.725
REMARK INTER:                  -9.191
REMARK INTRA:                  -0.534
REMARK UNBOUND:                -1.018
REMARK  Name = 
REMARK  8 active torsions:
REMARK  status: ('A' for Active; 'I' for Inactive)
REMARK    1  A    between atoms: C_1  and  C_2
REMARK    2  A    between atoms: C_2  and  C_3
REMARK    3  A    between atoms: C_2  and  O_4
REMARK    4  A    between atoms: O_4  and  C_5
REMARK    5  A    between atoms: C_10  and  C_11
REMARK    6  A    between atoms: C_11  and  O_12
REMARK    7  A    between atoms: O_12  and  C_13
REMARK    8  A    between atoms: C_17  and  C_18
REMARK                            x       y       z     vdW  Elec       q    Type
REMARK                         _______ _______ _______ _____ _____    ______ ____
ROOT
ATOM      1  O   UNL     1      46.533   3.888  15.408  0.00  0.00    +0.000 OA
ENDROOT
BRANCH   1   2
ATOM      2  C   UNL     1      47.343   3.985  16.509  0.00  0.00    +0.000 A 
ATOM      3  C   UNL     1      47.597   2.945  17.402  0.00  0.00    +0.000 A 
ATOM      4  C   UNL     1      48.431   3.154  18.495  0.00  0.00    +0.000 A 
ATOM      5  C   UNL     1      49.050   4.389  18.675  0.00  0.00    +0.000 A 
ATOM      6  C   UNL     1      48.879   5.431  17.753  0.00  0.00    +0.000 A 
ATOM      7  C   UNL     1      47.983   5.218  16.686  0.00  0.00    +0.000 A 
BRANCH   6   8
ATOM      8  C   UNL     1      49.655   6.748  17.846  0.00  0.00    +0.000 C 
ATOM      9  C   UNL     1      49.846   7.195  19.311  0.00  0.00    +0.000 C 
ATOM     10  C   UNL     1      48.534   7.697  19.913  0.00  0.00    +0.000 C 
ATOM     11  C   UNL     1      47.870   8.767  19.044  0.00  0.00    +0.000 C 
ATOM     12  N   UNL     1      47.763   8.396  17.636  0.00  0.00    +0.000 NA
ATOM     13  C   UNL     1      49.045   7.948  17.076  0.00  0.00    +0.000 C 
ATOM     14  H   UNL     1      47.400   9.179  17.096  0.00  0.00    +0.000 HD
ENDBRANCH   6   8
ENDBRANCH   1   2
BRANCH   1  15
ATOM     15  C   UNL     1      47.192   4.100  14.157  0.00  0.00    +0.000 C 
BRANCH  15  21
ATOM     16  C   UNL     1      44.528   4.751  11.481  0.00  0.00    +0.000 A 
ATOM     17  C   UNL     1      44.399   6.136  11.586  0.00  0.00    +0.000 A 
ATOM     18  C   UNL     1      45.205   6.850  12.472  0.00  0.00    +0.000 A 
ATOM     19  F   UNL     1      45.069   8.176  12.549  0.00  0.00    +0.000 F 
ATOM     20  C   UNL     1      46.129   6.204  13.280  0.00  0.00    +0.000 A 
ATOM     21  C   UNL     1      46.260   4.816  13.212  0.00  0.00    +0.000 A 
ATOM     22  C   UNL     1      45.464   4.104  12.302  0.00  0.00    +0.000 A 
ATOM     23  F   UNL     1      45.594   2.768  12.230  0.00  0.00    +0.000 F 
BRANCH  16  24
ATOM     24  O   UNL     1      43.809   3.952  10.626  0.00  0.00    +0.000 OA
BRANCH  24  26
ATOM     25  C   UNL     1      45.498   4.679   9.083  0.00  0.00    +0.000 C 
ATOM     26  C   UNL     1      44.310   3.744   9.293  0.00  0.00    +0.000 C 
ATOM     27  C   UNL     1      44.739   2.291   9.122  0.00  0.00    +0.000 C 
ENDBRANCH  24  26
ENDBRANCH  16  24
ENDBRANCH  15  21
ENDBRANCH   1  15
TORSDOF 6
ENDMDL
