MODEL 1
REMARK VINA RESULT:    -8.039      0.000      0.000
REMARK INTER + INTRA:         -12.324
REMARK INTER:                 -11.329
REMARK INTRA:                  -0.994
REMARK UNBOUND:                -0.994
REMARK  Name = 
REMARK  7 active torsions:
REMARK  status: ('A' for Active; 'I' for Inactive)
REMARK    1  A    between atoms: C_2  and  C_4
REMARK    2  A    between atoms: C_7  and  O_8
REMARK    3  A    between atoms: O_8  and  C_9
REMARK    4  A    between atoms: C_9  and  C_10
REMARK    5  A    between atoms: C_10  and  C_11
REMARK    6  A    between atoms: C_13  and  O_14
REMARK    7  A    between atoms: O_14  and  C_15
REMARK                            x       y       z     vdW  Elec       q    Type
REMARK                         _______ _______ _______ _____ _____    ______ ____
ROOT
ATOM      1  C   UNL     1      43.663   4.701  12.612  0.00  0.00    +0.000 C 
ENDROOT
BRANCH   1   2
ATOM      2  C   UNL     1      45.052   5.225  12.893  0.00  0.00    +0.000 A 
ATOM      3  C   UNL     1      45.824   4.585  13.886  0.00  0.00    +0.000 A 
ATOM      4  C   UNL     1      47.094   5.058  14.215  0.00  0.00    +0.000 A 
ATOM      5  C   UNL     1      47.624   6.153  13.536  0.00  0.00    +0.000 A 
ATOM      6  C   UNL     1      46.872   6.801  12.555  0.00  0.00    +0.000 A 
ATOM      7  C   UNL     1      45.589   6.348  12.244  0.00  0.00    +0.000 A 
ATOM      8 CL   UNL     1      44.699   7.226  11.050  0.00  0.00    +0.000 Cl
BRANCH   4   9
ATOM      9  O   UNL     1      47.905   4.500  15.169  0.00  0.00    +0.000 OA
BRANCH   9  10
ATOM     10  C   UNL     1      47.287   3.891  16.329  0.00  0.00    +0.000 C 
ATOM     11  C   UNL     1      47.342   4.665  17.663  0.00  0.00    +0.000 C 
ATOM     12  N   UNL     1      47.900   3.487  18.342  0.00  0.00    +0.000 NA
ATOM     13  C   UNL     1      48.144   2.831  17.048  0.00  0.00    +0.000 C 
ATOM     14  H   UNL     1      47.238   2.993  18.940  0.00  0.00    +0.000 HD
ENDBRANCH   9  10
ENDBRANCH   4   9
ENDBRANCH   1   2
BRANCH   1  15
ATOM     15  C   UNL     1      43.701   3.393  11.822  0.00  0.00    +0.000 C 
BRANCH  15  16
ATOM     16  O   UNL     1      43.454   3.686  10.444  0.00  0.00    +0.000 OA
BRANCH  16  20
ATOM     17  C   UNL     1      46.400   2.734   7.645  0.00  0.00    +0.000 A 
ATOM     18  C   UNL     1      45.823   1.695   8.384  0.00  0.00    +0.000 A 
ATOM     19  C   UNL     1      44.828   1.973   9.331  0.00  0.00    +0.000 A 
ATOM     20  C   UNL     1      44.409   3.287   9.550  0.00  0.00    +0.000 A 
ATOM     21  C   UNL     1      44.997   4.322   8.818  0.00  0.00    +0.000 A 
ATOM     22  C   UNL     1      45.992   4.052   7.874  0.00  0.00    +0.000 A 
BRANCH  17  24
ATOM     23  N   UNL     1      47.387   3.180   5.463  0.00  0.00    +0.000 N 
ATOM     24  C   UNL     1      47.460   2.481   6.635  0.00  0.00    +0.000 C 
ATOM     25  O   UNL     1      48.382   1.707   6.852  0.00  0.00    +0.000 OA
ATOM     26  H   UNL     1      48.176   3.079   4.835  0.00  0.00    +0.000 HD
ATOM     27  H   UNL     1      46.813   4.003   5.361  0.00  0.00    +0.000 HD
ENDBRANCH  17  24
ENDBRANCH  16  20
ENDBRANCH  15  16
ENDBRANCH   1  15
TORSDOF 7
ENDMDL
MODEL 2
REMARK VINA RESULT:    -7.682      1.335      1.921
REMARK INTER + INTRA:         -11.821
REMARK INTER:                 -10.729
REMARK INTRA:                  -1.091
REMARK UNBOUND:                -0.994
REMARK  Name = 
REMARK  7 active torsions:
REMARK  status: ('A' for Active; 'I' for Inactive)
REMARK    1  A    between atoms: C_2  and  C_4
REMARK    2  A    between atoms: C_7  and  O_8
REMARK    3  A    between atoms: O_8  and  C_9
REMARK    4  A    between atoms: C_9  and  C_10
REMARK    5  A    between atoms: C_10  and  C_11
REMARK    6  A    between atoms: C_13  and  O_14
REMARK    7  A    between atoms: O_14  and  C_15
REMARK                            x       y       z     vdW  Elec       q    Type
REMARK                         _______ _______ _______ _____ _____    ______ ____
ROOT
ATOM      1  C   UNL     1      43.590   4.027  12.875  0.00  0.00    +0.000 C 
ENDROOT
BRANCH   1   2
ATOM      2  C   UNL     1      44.660   5.080  12.704  0.00  0.00    +0.000 A 
ATOM      3  C   UNL     1      45.905   4.881  13.336  0.00  0.00    +0.000 A 
ATOM      4  C   UNL     1      46.911   5.845  13.247  0.00  0.00    +0.000 A 
ATOM      5  C   UNL     1      46.698   7.001  12.501  0.00  0.00    +0.000 A 
ATOM      6  C   UNL     1      45.471   7.216  11.874  0.00  0.00    +0.000 A 
ATOM      7  C   UNL     1      44.453   6.267  11.985  0.00  0.00    +0.000 A 
ATOM      8 CL   UNL     1      42.943   6.620  11.219  0.00  0.00    +0.000 Cl
BRANCH   4   9
ATOM      9  O   UNL     1      48.144   5.733  13.835  0.00  0.00    +0.000 OA
BRANCH   9  10
ATOM     10  C   UNL     1      48.399   6.477  15.051  0.00  0.00    +0.000 C 
ATOM     11  C   UNL     1      49.855   6.883  15.355  0.00  0.00    +0.000 C 
ATOM     12  N   UNL     1      49.760   6.285  16.694  0.00  0.00    +0.000 NA
ATOM     13  C   UNL     1      48.496   5.626  16.332  0.00  0.00    +0.000 C 
ATOM     14  H   UNL     1      49.674   6.962  17.451  0.00  0.00    +0.000 HD
ENDBRANCH   9  10
ENDBRANCH   4   9
ENDBRANCH   1   2
BRANCH   1  15
ATOM     15  C   UNL     1      43.768   2.874  11.887  0.00  0.00    +0.000 C 
BRANCH  15  16
ATOM     16  O   UNL     1      43.417   3.336  10.580  0.00  0.00    +0.000 OA
BRANCH  16  20
ATOM     17  C   UNL     1      46.360   2.755   7.678  0.00  0.00    +0.000 A 
ATOM     18  C   UNL     1      45.873   4.051   7.883  0.00  0.00    +0.000 A 
ATOM     19  C   UNL     1      44.887   4.288   8.850  0.00  0.00    +0.000 A 
ATOM     20  C   UNL     1      44.378   3.235   9.612  0.00  0.00    +0.000 A 
ATOM     21  C   UNL     1      44.860   1.940   9.396  0.00  0.00    +0.000 A 
ATOM     22  C   UNL     1      45.841   1.697   8.431  0.00  0.00    +0.000 A 
BRANCH  17  24
ATOM     23  N   UNL     1      47.464   3.286   5.572  0.00  0.00    +0.000 N 
ATOM     24  C   UNL     1      47.402   2.462   6.660  0.00  0.00    +0.000 C 
ATOM     25  O   UNL     1      48.197   1.543   6.802  0.00  0.00    +0.000 OA
ATOM     26  H   UNL     1      48.248   3.140   4.948  0.00  0.00    +0.000 HD
ATOM     27  H   UNL     1      47.017   4.191   5.556  0.00  0.00    +0.000 HD
ENDBRANCH  17  24
ENDBRANCH  16  20
ENDBRANCH  15  16
ENDBRANCH   1  15
TORSDOF 7
ENDMDL
MODEL 3
REMARK VINA RESULT:    -7.299      3.171      4.256
REMARK INTER + INTRA:         -11.281
REMARK INTER:                 -10.392
REMARK INTRA:                  -0.889
REMARK UNBOUND:                -0.994
REMARK  Name = 
REMARK  7 active torsions:
REMARK  status: ('A' for Active; 'I' for Inactive)
REMARK    1  A    between atoms: C_2  and  C_4
REMARK    2  A    between atoms: C_7  and  O_8
REMARK    3  A    between atoms: O_8  and  C_9
REMARK    4  A    between atoms: C_9  and  C_10
REMARK    5  A    between atoms: C_10  and  C_11
REMARK    6  A    between atoms: C_13  and  O_14
REMARK    7  A    between atoms: O_14  and  C_15
REMARK                            x       y       z     vdW  Elec       q    Type
REMARK                         _______ _______ _______ _____ _____    ______ ____
ROOT
ATOM      1  C   UNL     1      43.636   5.158  12.638  0.00  0.00    +0.000 C 
ENDROOT
BRANCH   1   2
ATOM      2  C   UNL     1      45.003   5.779  12.808  0.00  0.00    +0.000 A 
ATOM      3  C   UNL     1      45.108   7.186  12.787  0.00  0.00    +0.000 A 
ATOM      4  C   UNL     1      46.353   7.808  12.894  0.00  0.00    +0.000 A 
ATOM      5  C   UNL     1      47.501   7.037  13.056  0.00  0.00    +0.000 A 
ATOM      6  C   UNL     1      47.416   5.644  13.074  0.00  0.00    +0.000 A 
ATOM      7  C   UNL     1      46.175   5.019  12.938  0.00  0.00    +0.000 A 
ATOM      8 CL   UNL     1      46.149   3.290  12.924  0.00  0.00    +0.000 Cl
BRANCH   4   9
ATOM      9  O   UNL     1      46.544   9.165  12.875  0.00  0.00    +0.000 OA
BRANCH   9  10
ATOM     10  C   UNL     1      45.931   9.934  11.812  0.00  0.00    +0.000 C 
ATOM     11  C   UNL     1      46.116  11.465  11.832  0.00  0.00    +0.000 C 
ATOM     12  N   UNL     1      44.663  11.659  11.719  0.00  0.00    +0.000 NA
ATOM     13  C   UNL     1      44.431  10.234  12.001  0.00  0.00    +0.000 C 
ATOM     14  H   UNL     1      44.350  11.956  10.796  0.00  0.00    +0.000 HD
ENDBRANCH   9  10
ENDBRANCH   4   9
ENDBRANCH   1   2
BRANCH   1  15
ATOM     15  C   UNL     1      43.255   5.025  11.163  0.00  0.00    +0.000 C 
BRANCH  15  16
ATOM     16  O   UNL     1      43.320   3.644  10.798  0.00  0.00    +0.000 OA
BRANCH  16  20
ATOM     17  C   UNL     1      46.200   2.862   7.881  0.00  0.00    +0.000 A 
ATOM     18  C   UNL     1      45.613   1.779   8.544  0.00  0.00    +0.000 A 
ATOM     19  C   UNL     1      44.640   1.999   9.528  0.00  0.00    +0.000 A 
ATOM     20  C   UNL     1      44.252   3.299   9.858  0.00  0.00    +0.000 A 
ATOM     21  C   UNL     1      44.850   4.378   9.201  0.00  0.00    +0.000 A 
ATOM     22  C   UNL     1      45.823   4.165   8.221  0.00  0.00    +0.000 A 
BRANCH  17  24
ATOM     23  N   UNL     1      47.142   3.438   5.709  0.00  0.00    +0.000 N 
ATOM     24  C   UNL     1      47.238   2.671   6.835  0.00  0.00    +0.000 C 
ATOM     25  O   UNL     1      48.164   1.885   6.987  0.00  0.00    +0.000 OA
ATOM     26  H   UNL     1      47.917   3.375   5.060  0.00  0.00    +0.000 HD
ATOM     27  H   UNL     1      46.567   4.267   5.669  0.00  0.00    +0.000 HD
ENDBRANCH  17  24
ENDBRANCH  16  20
ENDBRANCH  15  16
ENDBRANCH   1  15
TORSDOF 7
ENDMDL
MODEL 4
REMARK VINA RESULT:    -6.989      1.877      8.125
REMARK INTER + INTRA:         -10.843
REMARK INTER:                 -10.048
REMARK INTRA:                  -0.796
REMARK UNBOUND:                -0.994
REMARK  Name = 
REMARK  7 active torsions:
REMARK  status: ('A' for Active; 'I' for Inactive)
REMARK    1  A    between atoms: C_2  and  C_4
REMARK    2  A    between atoms: C_7  and  O_8
REMARK    3  A    between atoms: O_8  and  C_9
REMARK    4  A    between atoms: C_9  and  C_10
REMARK    5  A    between atoms: C_10  and  C_11
REMARK    6  A    between atoms: C_13  and  O_14
REMARK    7  A    between atoms: O_14  and  C_15
REMARK                            x       y       z     vdW  Elec       q    Type
REMARK                         _______ _______ _______ _____ _____    ______ ____
ROOT
ATOM      1  C   UNL     1      44.991   6.483  11.193  0.00  0.00    +0.000 C 
ENDROOT
BRANCH   1   2
ATOM      2  C   UNL     1      45.052   5.187  10.418  0.00  0.00    +0.000 A 
ATOM      3  C   UNL     1      45.672   5.190   9.151  0.00  0.00    +0.000 A 
ATOM      4  C   UNL     1      45.714   4.031   8.376  0.00  0.00    +0.000 A 
ATOM      5  C   UNL     1      45.167   2.848   8.867  0.00  0.00    +0.000 A 
ATOM      6  C   UNL     1      44.545   2.829  10.116  0.00  0.00    +0.000 A 
ATOM      7  C   UNL     1      44.477   3.994  10.882  0.00  0.00    +0.000 A 
ATOM      8 CL   UNL     1      43.652   3.907  12.399  0.00  0.00    +0.000 Cl
BRANCH   4   9
ATOM      9  O   UNL     1      46.290   3.950   7.134  0.00  0.00    +0.000 OA
BRANCH   9  10
ATOM     10  C   UNL     1      46.650   2.644   6.624  0.00  0.00    +0.000 C 
ATOM     11  C   UNL     1      48.106   2.173   6.814  0.00  0.00    +0.000 C 
ATOM     12  N   UNL     1      48.215   1.876   5.379  0.00  0.00    +0.000 NA
ATOM     13  C   UNL     1      46.957   2.592   5.115  0.00  0.00    +0.000 C 
ATOM     14  H   UNL     1      48.184   0.883   5.151  0.00  0.00    +0.000 HD
ENDBRANCH   9  10
ENDBRANCH   4   9
ENDBRANCH   1   2
BRANCH   1  15
ATOM     15  C   UNL     1      46.336   6.818  11.839  0.00  0.00    +0.000 C 
BRANCH  15  16
ATOM     16  O   UNL     1      46.955   5.600  12.260  0.00  0.00    +0.000 OA
BRANCH  16  20
ATOM     17  C   UNL     1      47.976   5.136  16.280  0.00  0.00    +0.000 A 
ATOM     18  C   UNL     1      48.471   6.249  15.591  0.00  0.00    +0.000 A 
ATOM     19  C   UNL     1      48.148   6.443  14.242  0.00  0.00    +0.000 A 
ATOM     20  C   UNL     1      47.337   5.525  13.571  0.00  0.00    +0.000 A 
ATOM     21  C   UNL     1      46.855   4.408  14.260  0.00  0.00    +0.000 A 
ATOM     22  C   UNL     1      47.176   4.208  15.605  0.00  0.00    +0.000 A 
BRANCH  17  24
ATOM     23  N   UNL     1      47.251   4.680  18.561  0.00  0.00    +0.000 N 
ATOM     24  C   UNL     1      48.299   4.892  17.710  0.00  0.00    +0.000 C 
ATOM     25  O   UNL     1      49.455   4.847  18.108  0.00  0.00    +0.000 OA
ATOM     26  H   UNL     1      47.493   4.406  19.505  0.00  0.00    +0.000 HD
ATOM     27  H   UNL     1      46.327   4.445  18.230  0.00  0.00    +0.000 HD
ENDBRANCH  17  24
ENDBRANCH  16  20
ENDBRANCH  15  16
ENDBRANCH   1  15
TORSDOF 7
ENDMDL
MODEL 5
REMARK VINA RESULT:    -6.505      3.405      7.882
REMARK INTER + INTRA:         -10.162
REMARK INTER:                  -9.608
REMARK INTRA:                  -0.553
REMARK UNBOUND:                -0.994
REMARK  Name = 
REMARK  7 active torsions:
REMARK  status: ('A' for Active; 'I' for Inactive)
REMARK    1  A    between atoms: C_2  and  C_4
REMARK    2  A    between atoms: C_7  and  O_8
REMARK    3  A    between atoms: O_8  and  C_9
REMARK    4  A    between atoms: C_9  and  C_10
REMARK    5  A    between atoms: C_10  and  C_11
REMARK    6  A    between atoms: C_13  and  O_14
REMARK    7  A    between atoms: O_14  and  C_15
REMARK                            x       y       z     vdW  Elec       q    Type
REMARK                         _______ _______ _______ _____ _____    ______ ____
ROOT
ATOM      1  C   UNL     1      44.384   5.873  11.245  0.00  0.00    +0.000 C 
ENDROOT
BRANCH   1   2
ATOM      2  C   UNL     1      44.632   4.660  10.379  0.00  0.00    +0.000 A 
ATOM      3  C   UNL     1      45.338   4.832   9.169  0.00  0.00    +0.000 A 
ATOM      4  C   UNL     1      45.553   3.753   8.311  0.00  0.00    +0.000 A 
ATOM      5  C   UNL     1      45.099   2.485   8.665  0.00  0.00    +0.000 A 
ATOM      6  C   UNL     1      44.395   2.298   9.855  0.00  0.00    +0.000 A 
ATOM      7  C   UNL     1      44.152   3.381  10.701  0.00  0.00    +0.000 A 
ATOM      8 CL   UNL     1      43.235   3.084  12.137  0.00  0.00    +0.000 Cl
BRANCH   4   9
ATOM      9  O   UNL     1      46.222   3.835   7.117  0.00  0.00    +0.000 OA
BRANCH   9  10
ATOM     10  C   UNL     1      46.662   2.608   6.487  0.00  0.00    +0.000 C 
ATOM     11  C   UNL     1      48.114   2.151   6.738  0.00  0.00    +0.000 C 
ATOM     12  N   UNL     1      48.344   2.032   5.291  0.00  0.00    +0.000 NA
ATOM     13  C   UNL     1      47.088   2.745   5.012  0.00  0.00    +0.000 C 
ATOM     14  H   UNL     1      48.363   1.073   4.946  0.00  0.00    +0.000 HD
ENDBRANCH   9  10
ENDBRANCH   4   9
ENDBRANCH   1   2
BRANCH   1  15
ATOM     15  C   UNL     1      45.208   5.826  12.532  0.00  0.00    +0.000 C 
BRANCH  15  16
ATOM     16  O   UNL     1      46.594   5.879  12.187  0.00  0.00    +0.000 OA
BRANCH  16  20
ATOM     17  C   UNL     1      48.119   9.764  12.166  0.00  0.00    +0.000 A 
ATOM     18  C   UNL     1      48.923   8.730  11.673  0.00  0.00    +0.000 A 
ATOM     19  C   UNL     1      48.447   7.413  11.660  0.00  0.00    +0.000 A 
ATOM     20  C   UNL     1      47.170   7.119  12.143  0.00  0.00    +0.000 A 
ATOM     21  C   UNL     1      46.375   8.154  12.645  0.00  0.00    +0.000 A 
ATOM     22  C   UNL     1      46.846   9.469  12.664  0.00  0.00    +0.000 A 
BRANCH  17  24
ATOM     23  N   UNL     1      48.204  11.936  13.267  0.00  0.00    +0.000 N 
ATOM     24  C   UNL     1      48.590  11.173  12.201  0.00  0.00    +0.000 C 
ATOM     25  O   UNL     1      49.323  11.627  11.332  0.00  0.00    +0.000 OA
ATOM     26  H   UNL     1      48.624  12.855  13.331  0.00  0.00    +0.000 HD
ATOM     27  H   UNL     1      47.838  11.530  14.115  0.00  0.00    +0.000 HD
ENDBRANCH  17  24
ENDBRANCH  16  20
ENDBRANCH  15  16
ENDBRANCH   1  15
TORSDOF 7
ENDMDL
MODEL 6
REMARK VINA RESULT:    -6.403      2.966      8.111
REMARK INTER + INTRA:         -10.017
REMARK INTER:                  -9.383
REMARK INTRA:                  -0.634
REMARK UNBOUND:                -0.994
REMARK  Name = 
REMARK  7 active torsions:
REMARK  status: ('A' for Active; 'I' for Inactive)
REMARK    1  A    between atoms: C_2  and  C_4
REMARK    2  A    between atoms: C_7  and  O_8
REMARK    3  A    between atoms: O_8  and  C_9
REMARK    4  A    between atoms: C_9  and  C_10
REMARK    5  A    between atoms: C_10  and  C_11
REMARK    6  A    between atoms: C_13  and  O_14
REMARK    7  A    between atoms: O_14  and  C_15
REMARK                            x       y       z     vdW  Elec       q    Type
REMARK                         _______ _______ _______ _____ _____    ______ ____
ROOT
ATOM      1  C   UNL     1      44.791   5.990  11.253  0.00  0.00    +0.000 C 
ENDROOT
BRANCH   1   2
ATOM      2  C   UNL     1      44.839   4.771  10.362  0.00  0.00    +0.000 A 
ATOM      3  C   UNL     1      45.489   4.876   9.114  0.00  0.00    +0.000 A 
ATOM      4  C   UNL     1      45.521   3.793   8.235  0.00  0.00    +0.000 A 
ATOM      5  C   UNL     1      44.936   2.584   8.603  0.00  0.00    +0.000 A 
ATOM      6  C   UNL     1      44.285   2.464   9.831  0.00  0.00    +0.000 A 
ATOM      7  C   UNL     1      44.226   3.554  10.700  0.00  0.00    +0.000 A 
ATOM      8 CL   UNL     1      43.365   3.347  12.185  0.00  0.00    +0.000 Cl
BRANCH   4   9
ATOM      9  O   UNL     1      46.124   3.813   7.004  0.00  0.00    +0.000 OA
BRANCH   9  10
ATOM     10  C   UNL     1      46.613   2.566   6.454  0.00  0.00    +0.000 C 
ATOM     11  C   UNL     1      48.060   2.150   6.789  0.00  0.00    +0.000 C 
ATOM     12  N   UNL     1      48.355   1.966   5.360  0.00  0.00    +0.000 NA
ATOM     13  C   UNL     1      47.100   2.640   4.993  0.00  0.00    +0.000 C 
ATOM     14  H   UNL     1      48.406   0.992   5.064  0.00  0.00    +0.000 HD
ENDBRANCH   9  10
ENDBRANCH   4   9
ENDBRANCH   1   2
BRANCH   1  15
ATOM     15  C   UNL     1      46.001   6.057  12.185  0.00  0.00    +0.000 C 
BRANCH  15  16
ATOM     16  O   UNL     1      47.017   6.842  11.557  0.00  0.00    +0.000 OA
BRANCH  16  20
ATOM     17  C   UNL     1      50.195   7.738  14.111  0.00  0.00    +0.000 A 
ATOM     18  C   UNL     1      50.321   8.055  12.754  0.00  0.00    +0.000 A 
ATOM     19  C   UNL     1      49.276   7.773  11.864  0.00  0.00    +0.000 A 
ATOM     20  C   UNL     1      48.103   7.170  12.322  0.00  0.00    +0.000 A 
ATOM     21  C   UNL     1      47.986   6.844  13.677  0.00  0.00    +0.000 A 
ATOM     22  C   UNL     1      49.027   7.119  14.568  0.00  0.00    +0.000 A 
BRANCH  17  24
ATOM     23  N   UNL     1      51.559   9.326  15.357  0.00  0.00    +0.000 N 
ATOM     24  C   UNL     1      51.282   8.016  15.085  0.00  0.00    +0.000 C 
ATOM     25  O   UNL     1      51.884   7.113  15.650  0.00  0.00    +0.000 OA
ATOM     26  H   UNL     1      52.223   9.494  16.103  0.00  0.00    +0.000 HD
ATOM     27  H   UNL     1      50.919  10.071  15.124  0.00  0.00    +0.000 HD
ENDBRANCH  17  24
ENDBRANCH  16  20
ENDBRANCH  15  16
ENDBRANCH   1  15
TORSDOF 7
ENDMDL
MODEL 7
REMARK VINA RESULT:    -6.213      2.593      3.535
REMARK INTER + INTRA:          -9.750
REMARK INTER:                  -8.881
REMARK INTRA:                  -0.869
REMARK UNBOUND:                -0.994
REMARK  Name = 
REMARK  7 active torsions:
REMARK  status: ('A' for Active; 'I' for Inactive)
REMARK    1  A    between atoms: C_2  and  C_4
REMARK    2  A    between atoms: C_7  and  O_8
REMARK    3  A    between atoms: O_8  and  C_9
REMARK    4  A    between atoms: C_9  and  C_10
REMARK    5  A    between atoms: C_10  and  C_11
REMARK    6  A    between atoms: C_13  and  O_14
REMARK    7  A    between atoms: O_14  and  C_15
REMARK                            x       y       z     vdW  Elec       q    Type
REMARK                         _______ _______ _______ _____ _____    ______ ____
ROOT
ATOM      1  C   UNL     1      44.657   6.531  11.687  0.00  0.00    +0.000 C 
ENDROOT
BRANCH   1   2
ATOM      2  C   UNL     1      45.677   6.112  12.720  0.00  0.00    +0.000 A 
ATOM      3  C   UNL     1      46.746   6.987  13.003  0.00  0.00    +0.000 A 
ATOM      4  C   UNL     1      47.738   6.627  13.915  0.00  0.00    +0.000 A 
ATOM      5  C   UNL     1      47.659   5.406  14.579  0.00  0.00    +0.000 A 
ATOM      6  C   UNL     1      46.611   4.525  14.308  0.00  0.00    +0.000 A 
ATOM      7  C   UNL     1      45.632   4.871  13.375  0.00  0.00    +0.000 A 
ATOM      8 CL   UNL     1      44.388   3.713  13.055  0.00  0.00    +0.000 Cl
BRANCH   4   9
ATOM      9  O   UNL     1      48.812   7.415  14.241  0.00  0.00    +0.000 OA
BRANCH   9  10
ATOM     10  C   UNL     1      49.236   8.429  13.299  0.00  0.00    +0.000 C 
ATOM     11  C   UNL     1      50.333   8.054  12.282  0.00  0.00    +0.000 C 
ATOM     12  N   UNL     1      51.121   9.231  12.673  0.00  0.00    +0.000 NA
ATOM     13  C   UNL     1      50.258   9.445  13.845  0.00  0.00    +0.000 C 
ATOM     14  H   UNL     1      51.101   9.994  11.997  0.00  0.00    +0.000 HD
ENDBRANCH   9  10
ENDBRANCH   4   9
ENDBRANCH   1   2
BRANCH   1  15
ATOM     15  C   UNL     1      45.064   6.093  10.280  0.00  0.00    +0.000 C 
BRANCH  15  16
ATOM     16  O   UNL     1      44.368   4.886   9.960  0.00  0.00    +0.000 OA
BRANCH  16  20
ATOM     17  C   UNL     1      46.564   2.261   7.571  0.00  0.00    +0.000 A 
ATOM     18  C   UNL     1      45.772   1.727   8.593  0.00  0.00    +0.000 A 
ATOM     19  C   UNL     1      45.017   2.574   9.415  0.00  0.00    +0.000 A 
ATOM     20  C   UNL     1      45.053   3.957   9.226  0.00  0.00    +0.000 A 
ATOM     21  C   UNL     1      45.856   4.486   8.211  0.00  0.00    +0.000 A 
ATOM     22  C   UNL     1      46.613   3.646   7.390  0.00  0.00    +0.000 A 
BRANCH  17  24
ATOM     23  N   UNL     1      48.515   1.942   6.147  0.00  0.00    +0.000 N 
ATOM     24  C   UNL     1      47.382   1.396   6.682  0.00  0.00    +0.000 C 
ATOM     25  O   UNL     1      47.078   0.231   6.462  0.00  0.00    +0.000 OA
ATOM     26  H   UNL     1      49.116   1.307   5.636  0.00  0.00    +0.000 HD
ATOM     27  H   UNL     1      48.931   2.785   6.513  0.00  0.00    +0.000 HD
ENDBRANCH  17  24
ENDBRANCH  16  20
ENDBRANCH  15  16
ENDBRANCH   1  15
TORSDOF 7
ENDMDL
MODEL 8
REMARK VINA RESULT:    -6.127      3.468      5.208
REMARK INTER + INTRA:          -9.629
REMARK INTER:                  -8.680
REMARK INTRA:                  -0.948
REMARK UNBOUND:                -0.994
REMARK  Name = 
REMARK  7 active torsions:
REMARK  status: ('A' for Active; 'I' for Inactive)
REMARK    1  A    between atoms: C_2  and  C_4
REMARK    2  A    between atoms: C_7  and  O_8
REMARK    3  A    between atoms: O_8  and  C_9
REMARK    4  A    between atoms: C_9  and  C_10
REMARK    5  A    between atoms: C_10  and  C_11
REMARK    6  A    between atoms: C_13  and  O_14
REMARK    7  A    between atoms: O_14  and  C_15
REMARK                            x       y       z     vdW  Elec       q    Type
REMARK                         _______ _______ _______ _____ _____    ______ ____
ROOT
ATOM      1  C   UNL     1      49.508   8.255  13.565  0.00  0.00    +0.000 C 
ENDROOT
BRANCH   1   2
ATOM      2  C   UNL     1      50.125   7.550  14.750  0.00  0.00    +0.000 A 
ATOM      3  C   UNL     1      49.287   6.785  15.588  0.00  0.00    +0.000 A 
ATOM      4  C   UNL     1      49.799   6.152  16.721  0.00  0.00    +0.000 A 
ATOM      5  C   UNL     1      51.158   6.246  17.013  0.00  0.00    +0.000 A 
ATOM      6  C   UNL     1      52.000   7.003  16.198  0.00  0.00    +0.000 A 
ATOM      7  C   UNL     1      51.485   7.661  15.080  0.00  0.00    +0.000 A 
ATOM      8 CL   UNL     1      52.578   8.617  14.141  0.00  0.00    +0.000 Cl
BRANCH   4   9
ATOM      9  O   UNL     1      49.054   5.397  17.589  0.00  0.00    +0.000 OA
BRANCH   9  10
ATOM     10  C   UNL     1      48.496   4.148  17.114  0.00  0.00    +0.000 C 
ATOM     11  C   UNL     1      47.008   4.131  16.709  0.00  0.00    +0.000 C 
ATOM     12  N   UNL     1      46.765   2.978  17.587  0.00  0.00    +0.000 NA
ATOM     13  C   UNL     1      48.083   3.154  18.217  0.00  0.00    +0.000 C 
ATOM     14  H   UNL     1      46.654   2.092  17.096  0.00  0.00    +0.000 HD
ENDBRANCH   9  10
ENDBRANCH   4   9
ENDBRANCH   1   2
BRANCH   1  15
ATOM     15  C   UNL     1      49.009   7.263  12.514  0.00  0.00    +0.000 C 
BRANCH  15  16
ATOM     16  O   UNL     1      47.621   7.512  12.276  0.00  0.00    +0.000 OA
BRANCH  16  20
ATOM     17  C   UNL     1      45.044   4.269  11.764  0.00  0.00    +0.000 A 
ATOM     18  C   UNL     1      45.838   4.314  12.915  0.00  0.00    +0.000 A 
ATOM     19  C   UNL     1      46.714   5.387  13.126  0.00  0.00    +0.000 A 
ATOM     20  C   UNL     1      46.806   6.417  12.188  0.00  0.00    +0.000 A 
ATOM     21  C   UNL     1      46.019   6.362  11.034  0.00  0.00    +0.000 A 
ATOM     22  C   UNL     1      45.146   5.292  10.817  0.00  0.00    +0.000 A 
BRANCH  17  24
ATOM     23  N   UNL     1      43.696   2.410  12.577  0.00  0.00    +0.000 N 
ATOM     24  C   UNL     1      44.106   3.146  11.502  0.00  0.00    +0.000 C 
ATOM     25  O   UNL     1      43.688   2.909  10.377  0.00  0.00    +0.000 OA
ATOM     26  H   UNL     1      42.973   1.724  12.396  0.00  0.00    +0.000 HD
ATOM     27  H   UNL     1      43.801   2.737  13.526  0.00  0.00    +0.000 HD
ENDBRANCH  17  24
ENDBRANCH  16  20
ENDBRANCH  15  16
ENDBRANCH   1  15
TORSDOF 7
ENDMDL
MODEL 9
REMARK VINA RESULT:    -6.098      3.317      8.136
REMARK INTER + INTRA:          -9.588
REMARK INTER:                  -8.901
REMARK INTRA:                  -0.687
REMARK UNBOUND:                -0.994
REMARK  Name = 
REMARK  7 active torsions:
REMARK  status: ('A' for Active; 'I' for Inactive)
REMARK    1  A    between atoms: C_2  and  C_4
REMARK    2  A    between atoms: C_7  and  O_8
REMARK    3  A    between atoms: O_8  and  C_9
REMARK    4  A    between atoms: C_9  and  C_10
REMARK    5  A    between atoms: C_10  and  C_11
REMARK    6  A    between atoms: C_13  and  O_14
REMARK    7  A    between atoms: O_14  and  C_15
REMARK                            x       y       z     vdW  Elec       q    Type
REMARK                         _______ _______ _______ _____ _____    ______ ____
ROOT
ATOM      1  C   UNL     1      48.399   6.081  15.351  0.00  0.00    +0.000 C 
ENDROOT
BRANCH   1   2
ATOM      2  C   UNL     1      47.839   6.279  13.961  0.00  0.00    +0.000 A 
ATOM      3  C   UNL     1      46.626   5.640  13.629  0.00  0.00    +0.000 A 
ATOM      4  C   UNL     1      46.090   5.754  12.346  0.00  0.00    +0.000 A 
ATOM      5  C   UNL     1      46.738   6.532  11.390  0.00  0.00    +0.000 A 
ATOM      6  C   UNL     1      47.942   7.166  11.700  0.00  0.00    +0.000 A 
ATOM      7  C   UNL     1      48.495   7.031  12.974  0.00  0.00    +0.000 A 
ATOM      8 CL   UNL     1      50.010   7.808  13.275  0.00  0.00    +0.000 Cl
BRANCH   4   9
ATOM      9  O   UNL     1      44.922   5.161  11.939  0.00  0.00    +0.000 OA
BRANCH   9  10
ATOM     10  C   UNL     1      44.876   3.716  11.850  0.00  0.00    +0.000 C 
ATOM     11  C   UNL     1      44.556   3.090  10.478  0.00  0.00    +0.000 C 
ATOM     12  N   UNL     1      43.483   2.284  11.077  0.00  0.00    +0.000 NA
ATOM     13  C   UNL     1      43.556   3.073  12.317  0.00  0.00    +0.000 C 
ATOM     14  H   UNL     1      43.714   1.299  11.197  0.00  0.00    +0.000 HD
ENDBRANCH   9  10
ENDBRANCH   4   9
ENDBRANCH   1   2
BRANCH   1  15
ATOM     15  C   UNL     1      47.762   4.881  16.052  0.00  0.00    +0.000 C 
BRANCH  15  16
ATOM     16  O   UNL     1      48.327   4.765  17.359  0.00  0.00    +0.000 OA
BRANCH  16  20
ATOM     17  C   UNL     1      51.670   2.281  17.633  0.00  0.00    +0.000 A 
ATOM     18  C   UNL     1      51.835   3.649  17.876  0.00  0.00    +0.000 A 
ATOM     19  C   UNL     1      50.737   4.515  17.798  0.00  0.00    +0.000 A 
ATOM     20  C   UNL     1      49.472   4.024  17.471  0.00  0.00    +0.000 A 
ATOM     21  C   UNL     1      49.315   2.658  17.216  0.00  0.00    +0.000 A 
ATOM     22  C   UNL     1      50.407   1.790  17.290  0.00  0.00    +0.000 A 
BRANCH  17  24
ATOM     23  N   UNL     1      52.538   0.054  18.106  0.00  0.00    +0.000 N 
ATOM     24  C   UNL     1      52.810   1.330  17.702  0.00  0.00    +0.000 C 
ATOM     25  O   UNL     1      53.942   1.661  17.376  0.00  0.00    +0.000 OA
ATOM     26  H   UNL     1      53.302  -0.607  18.039  0.00  0.00    +0.000 HD
ATOM     27  H   UNL     1      51.600  -0.319  18.119  0.00  0.00    +0.000 HD
ENDBRANCH  17  24
ENDBRANCH  16  20
ENDBRANCH  15  16
ENDBRANCH   1  15
TORSDOF 7
ENDMDL
