MODEL 1
REMARK VINA RESULT:    -7.872      0.000      0.000
REMARK INTER + INTRA:         -11.685
REMARK INTER:                 -10.633
REMARK INTRA:                  -1.052
REMARK UNBOUND:                -1.052
REMARK  Name = 
REMARK  6 active torsions:
REMARK  status: ('A' for Active; 'I' for Inactive)
REMARK    1  A    between atoms: C_2  and  C_25
REMARK    2  A    between atoms: N_3  and  C_4
REMARK    3  A    between atoms: C_4  and  C_5
REMARK    4  A    between atoms: C_8  and  C_9
REMARK    5  A    between atoms: C_9  and  N_10
REMARK    6  A    between atoms: C_11  and  C_13
REMARK                            x       y       z     vdW  Elec       q    Type
REMARK                         _______ _______ _______ _____ _____    ______ ____
ROOT
ATOM      1  C   UNL     1      44.842   5.816  10.880  0.00  0.00    +0.000 A 
ATOM      2  C   UNL     1      46.169   6.117  10.569  0.00  0.00    +0.000 A 
ATOM      3  C   UNL     1      46.929   6.890  11.443  0.00  0.00    +0.000 A 
ATOM      4  C   UNL     1      46.334   7.375  12.604  0.00  0.00    +0.000 A 
ATOM      5  N   UNL     1      45.042   7.103  12.925  0.00  0.00    +0.000 NA
ATOM      6  C   UNL     1      44.334   6.335  12.065  0.00  0.00    +0.000 A 
ENDROOT
BRANCH   1   7
ATOM      7  C   UNL     1      44.006   4.945   9.995  0.00  0.00    +0.000 C 
BRANCH   7  10
ATOM      8  O   UNL     1      44.866   2.318  10.111  0.00  0.00    +0.000 OA
ATOM      9  C   UNL     1      45.146   2.976   9.115  0.00  0.00    +0.000 C 
ATOM     10  N   UNL     1      44.757   4.291   8.953  0.00  0.00    +0.000 N 
ATOM     11  H   UNL     1      45.048   4.781   8.111  0.00  0.00    +0.000 HD
BRANCH   9  12
ATOM     12  C   UNL     1      45.935   2.372   8.011  0.00  0.00    +0.000 A 
ATOM     13  C   UNL     1      46.221   3.136   6.886  0.00  0.00    +0.000 A 
ATOM     14  N   UNL     1      46.942   2.654   5.841  0.00  0.00    +0.000 NA
ATOM     15  C   UNL     1      47.362   1.376   5.976  0.00  0.00    +0.000 A 
ATOM     16  C   UNL     1      47.075   0.611   7.100  0.00  0.00    +0.000 A 
ATOM     17  N   UNL     1      46.356   1.082   8.149  0.00  0.00    +0.000 NA
ENDBRANCH   9  12
ENDBRANCH   7  10
ENDBRANCH   1   7
BRANCH   4  18
ATOM     18  C   UNL     1      47.125   8.225  13.568  0.00  0.00    +0.000 C 
BRANCH  18  19
ATOM     19  N   UNL     1      47.564   7.484  14.728  0.00  0.00    +0.000 N 
ATOM     20  C   UNL     1      48.777   6.852  14.787  0.00  0.00    +0.000 C 
ATOM     21  O   UNL     1      49.561   6.864  13.842  0.00  0.00    +0.000 OA
ATOM     22  H   UNL     1      46.849   7.283  15.422  0.00  0.00    +0.000 HD
BRANCH  20  23
ATOM     23  C   UNL     1      49.129   6.217  16.065  0.00  0.00    +0.000 A 
ATOM     24  C   UNL     1      50.156   6.749  16.833  0.00  0.00    +0.000 A 
ATOM     25  S   UNL     1      50.416   5.923  18.302  0.00  0.00    +0.000 S 
ATOM     26  C   UNL     1      49.193   4.796  17.946  0.00  0.00    +0.000 A 
ATOM     27  N   UNL     1      48.913   3.775  18.801  0.00  0.00    +0.000 NA
ATOM     28  C   UNL     1      47.988   2.972  18.391  0.00  0.00    +0.000 A 
ATOM     29  N   UNL     1      47.308   3.107  17.208  0.00  0.00    +0.000 N 
ATOM     30  C   UNL     1      47.517   4.154  16.342  0.00  0.00    +0.000 A 
ATOM     31  O   UNL     1      46.825   4.296  15.339  0.00  0.00    +0.000 OA
ATOM     32  C   UNL     1      48.576   5.063  16.735  0.00  0.00    +0.000 A 
ATOM     33  H   UNL     1      46.577   2.460  16.955  0.00  0.00    +0.000 HD
ENDBRANCH  20  23
ENDBRANCH  18  19
ENDBRANCH   4  18
TORSDOF 6
ENDMDL
MODEL 2
REMARK VINA RESULT:    -7.334      2.370      2.726
REMARK INTER + INTRA:         -10.959
REMARK INTER:                 -10.105
REMARK INTRA:                  -0.853
REMARK UNBOUND:                -1.052
REMARK  Name = 
REMARK  6 active torsions:
REMARK  status: ('A' for Active; 'I' for Inactive)
REMARK    1  A    between atoms: C_2  and  C_25
REMARK    2  A    between atoms: N_3  and  C_4
REMARK    3  A    between atoms: C_4  and  C_5
REMARK    4  A    between atoms: C_8  and  C_9
REMARK    5  A    between atoms: C_9  and  N_10
REMARK    6  A    between atoms: C_11  and  C_13
REMARK                            x       y       z     vdW  Elec       q    Type
REMARK                         _______ _______ _______ _____ _____    ______ ____
ROOT
ATOM      1  C   UNL     1      45.363   4.603  11.752  0.00  0.00    +0.000 A 
ATOM      2  C   UNL     1      45.637   5.943  11.469  0.00  0.00    +0.000 A 
ATOM      3  C   UNL     1      46.547   6.646  12.253  0.00  0.00    +0.000 A 
ATOM      4  C   UNL     1      47.148   6.001  13.330  0.00  0.00    +0.000 A 
ATOM      5  N   UNL     1      46.892   4.701  13.631  0.00  0.00    +0.000 NA
ATOM      6  C   UNL     1      46.016   4.038  12.840  0.00  0.00    +0.000 A 
ENDROOT
BRANCH   1   7
ATOM      7  C   UNL     1      44.431   3.797  10.903  0.00  0.00    +0.000 C 
BRANCH   7  10
ATOM      8  O   UNL     1      45.171   4.623   8.368  0.00  0.00    +0.000 OA
ATOM      9  C   UNL     1      45.423   3.469   8.698  0.00  0.00    +0.000 C 
ATOM     10  N   UNL     1      45.105   2.960   9.941  0.00  0.00    +0.000 N 
ATOM     11  H   UNL     1      45.321   1.985  10.134  0.00  0.00    +0.000 HD
BRANCH   9  12
ATOM     12  C   UNL     1      46.096   2.545   7.750  0.00  0.00    +0.000 A 
ATOM     13  C   UNL     1      46.396   2.989   6.468  0.00  0.00    +0.000 A 
ATOM     14  N   UNL     1      47.015   2.203   5.550  0.00  0.00    +0.000 NA
ATOM     15  C   UNL     1      47.318   0.956   5.976  0.00  0.00    +0.000 A 
ATOM     16  C   UNL     1      47.017   0.510   7.256  0.00  0.00    +0.000 A 
ATOM     17  N   UNL     1      46.399   1.287   8.181  0.00  0.00    +0.000 NA
ENDBRANCH   9  12
ENDBRANCH   7  10
ENDBRANCH   1   7
BRANCH   4  18
ATOM     18  C   UNL     1      48.131   6.736  14.208  0.00  0.00    +0.000 C 
BRANCH  18  19
ATOM     19  N   UNL     1      48.018   6.361  15.600  0.00  0.00    +0.000 N 
ATOM     20  C   UNL     1      49.109   6.150  16.399  0.00  0.00    +0.000 C 
ATOM     21  O   UNL     1      50.256   6.251  15.973  0.00  0.00    +0.000 OA
ATOM     22  H   UNL     1      47.096   6.064  15.905  0.00  0.00    +0.000 HD
BRANCH  20  23
ATOM     23  C   UNL     1      48.842   5.867  17.817  0.00  0.00    +0.000 A 
ATOM     24  C   UNL     1      49.107   4.602  18.324  0.00  0.00    +0.000 A 
ATOM     25  S   UNL     1      48.780   4.447  19.991  0.00  0.00    +0.000 S 
ATOM     26  C   UNL     1      48.230   6.053  20.087  0.00  0.00    +0.000 A 
ATOM     27  N   UNL     1      47.767   6.564  21.260  0.00  0.00    +0.000 NA
ATOM     28  C   UNL     1      47.346   7.784  21.184  0.00  0.00    +0.000 A 
ATOM     29  N   UNL     1      47.361   8.542  20.042  0.00  0.00    +0.000 N 
ATOM     30  C   UNL     1      47.873   8.087  18.850  0.00  0.00    +0.000 A 
ATOM     31  O   UNL     1      47.958   8.824  17.873  0.00  0.00    +0.000 OA
ATOM     32  C   UNL     1      48.321   6.708  18.870  0.00  0.00    +0.000 A 
ATOM     33  H   UNL     1      47.042   9.499  20.052  0.00  0.00    +0.000 HD
ENDBRANCH  20  23
ENDBRANCH  18  19
ENDBRANCH   4  18
TORSDOF 6
ENDMDL
MODEL 3
REMARK VINA RESULT:    -7.147      4.825      9.775
REMARK INTER + INTRA:         -10.706
REMARK INTER:                  -9.946
REMARK INTRA:                  -0.759
REMARK UNBOUND:                -1.052
REMARK  Name = 
REMARK  6 active torsions:
REMARK  status: ('A' for Active; 'I' for Inactive)
REMARK    1  A    between atoms: C_2  and  C_25
REMARK    2  A    between atoms: N_3  and  C_4
REMARK    3  A    between atoms: C_4  and  C_5
REMARK    4  A    between atoms: C_8  and  C_9
REMARK    5  A    between atoms: C_9  and  N_10
REMARK    6  A    between atoms: C_11  and  C_13
REMARK                            x       y       z     vdW  Elec       q    Type
REMARK                         _______ _______ _______ _____ _____    ______ ____
ROOT
ATOM      1  C   UNL     1      51.511   3.015  17.777  0.00  0.00    +0.000 A 
ATOM      2  C   UNL     1      50.810   2.029  17.079  0.00  0.00    +0.000 A 
ATOM      3  C   UNL     1      49.451   2.191  16.826  0.00  0.00    +0.000 A 
ATOM      4  C   UNL     1      48.808   3.330  17.303  0.00  0.00    +0.000 A 
ATOM      5  N   UNL     1      49.466   4.299  17.991  0.00  0.00    +0.000 NA
ATOM      6  C   UNL     1      50.790   4.121  18.207  0.00  0.00    +0.000 A 
ENDROOT
BRANCH   1   7
ATOM      7  C   UNL     1      52.982   2.904  18.025  0.00  0.00    +0.000 C 
BRANCH   7  10
ATOM      8  O   UNL     1      54.620   1.119  16.689  0.00  0.00    +0.000 OA
ATOM      9  C   UNL     1      54.200   0.802  17.797  0.00  0.00    +0.000 C 
ATOM     10  N   UNL     1      53.385   1.623  18.550  0.00  0.00    +0.000 N 
ATOM     11  H   UNL     1      53.055   1.283  19.450  0.00  0.00    +0.000 HD
BRANCH   9  12
ATOM     12  C   UNL     1      54.558  -0.511  18.391  0.00  0.00    +0.000 A 
ATOM     13  C   UNL     1      54.834  -1.582  17.551  0.00  0.00    +0.000 A 
ATOM     14  N   UNL     1      55.173  -2.810  18.021  0.00  0.00    +0.000 NA
ATOM     15  C   UNL     1      55.223  -2.913  19.368  0.00  0.00    +0.000 A 
ATOM     16  C   UNL     1      54.945  -1.843  20.209  0.00  0.00    +0.000 A 
ATOM     17  N   UNL     1      54.605  -0.613  19.750  0.00  0.00    +0.000 NA
ENDBRANCH   9  12
ENDBRANCH   7  10
ENDBRANCH   1   7
BRANCH   4  18
ATOM     18  C   UNL     1      47.333   3.533  17.056  0.00  0.00    +0.000 C 
BRANCH  18  19
ATOM     19  N   UNL     1      47.073   4.538  16.051  0.00  0.00    +0.000 N 
ATOM     20  C   UNL     1      47.070   4.260  14.711  0.00  0.00    +0.000 C 
ATOM     21  O   UNL     1      47.307   3.134  14.281  0.00  0.00    +0.000 OA
ATOM     22  H   UNL     1      47.093   5.501  16.373  0.00  0.00    +0.000 HD
BRANCH  20  23
ATOM     23  C   UNL     1      46.697   5.360  13.810  0.00  0.00    +0.000 A 
ATOM     24  C   UNL     1      47.564   6.431  13.641  0.00  0.00    +0.000 A 
ATOM     25  S   UNL     1      47.003   7.603  12.537  0.00  0.00    +0.000 S 
ATOM     26  C   UNL     1      45.559   6.744  12.276  0.00  0.00    +0.000 A 
ATOM     27  N   UNL     1      44.600   7.226  11.439  0.00  0.00    +0.000 NA
ATOM     28  C   UNL     1      43.539   6.492  11.362  0.00  0.00    +0.000 A 
ATOM     29  N   UNL     1      43.358   5.313  12.036  0.00  0.00    +0.000 N 
ATOM     30  C   UNL     1      44.321   4.760  12.845  0.00  0.00    +0.000 A 
ATOM     31  O   UNL     1      44.162   3.656  13.358  0.00  0.00    +0.000 OA
ATOM     32  C   UNL     1      45.517   5.565  13.001  0.00  0.00    +0.000 A 
ATOM     33  H   UNL     1      42.515   4.771  11.914  0.00  0.00    +0.000 HD
ENDBRANCH  20  23
ENDBRANCH  18  19
ENDBRANCH   4  18
TORSDOF 6
ENDMDL
MODEL 4
REMARK VINA RESULT:    -7.100      1.468      1.730
REMARK INTER + INTRA:         -10.642
REMARK INTER:                  -9.673
REMARK INTRA:                  -0.970
REMARK UNBOUND:                -1.052
REMARK  Name = 
REMARK  6 active torsions:
REMARK  status: ('A' for Active; 'I' for Inactive)
REMARK    1  A    between atoms: C_2  and  C_25
REMARK    2  A    between atoms: N_3  and  C_4
REMARK    3  A    between atoms: C_4  and  C_5
REMARK    4  A    between atoms: C_8  and  C_9
REMARK    5  A    between atoms: C_9  and  N_10
REMARK    6  A    between atoms: C_11  and  C_13
REMARK                            x       y       z     vdW  Elec       q    Type
REMARK                         _______ _______ _______ _____ _____    ______ ____
ROOT
ATOM      1  C   UNL     1      45.089   6.144  11.218  0.00  0.00    +0.000 A 
ATOM      2  C   UNL     1      46.225   5.659  11.868  0.00  0.00    +0.000 A 
ATOM      3  C   UNL     1      46.961   6.499  12.699  0.00  0.00    +0.000 A 
ATOM      4  C   UNL     1      46.561   7.824  12.841  0.00  0.00    +0.000 A 
ATOM      5  N   UNL     1      45.463   8.322  12.214  0.00  0.00    +0.000 NA
ATOM      6  C   UNL     1      44.759   7.477  11.426  0.00  0.00    +0.000 A 
ENDROOT
BRANCH   1   7
ATOM      7  C   UNL     1      44.241   5.260  10.358  0.00  0.00    +0.000 C 
BRANCH   7  10
ATOM      8  O   UNL     1      44.623   2.540  10.025  0.00  0.00    +0.000 OA
ATOM      9  C   UNL     1      45.097   3.299   9.186  0.00  0.00    +0.000 C 
ATOM     10  N   UNL     1      44.955   4.670   9.253  0.00  0.00    +0.000 N 
ATOM     11  H   UNL     1      45.397   5.238   8.535  0.00  0.00    +0.000 HD
BRANCH   9  12
ATOM     12  C   UNL     1      45.863   2.762   8.032  0.00  0.00    +0.000 A 
ATOM     13  C   UNL     1      46.350   1.463   8.088  0.00  0.00    +0.000 A 
ATOM     14  N   UNL     1      47.053   0.903   7.071  0.00  0.00    +0.000 NA
ATOM     15  C   UNL     1      47.244   1.703   5.998  0.00  0.00    +0.000 A 
ATOM     16  C   UNL     1      46.758   3.003   5.942  0.00  0.00    +0.000 A 
ATOM     17  N   UNL     1      46.055   3.572   6.952  0.00  0.00    +0.000 NA
ENDBRANCH   9  12
ENDBRANCH   7  10
ENDBRANCH   1   7
BRANCH   4  18
ATOM     18  C   UNL     1      47.341   8.767  13.725  0.00  0.00    +0.000 C 
BRANCH  18  19
ATOM     19  N   UNL     1      47.637   8.194  15.019  0.00  0.00    +0.000 N 
ATOM     20  C   UNL     1      48.703   8.595  15.779  0.00  0.00    +0.000 C 
ATOM     21  O   UNL     1      49.486   9.459  15.394  0.00  0.00    +0.000 OA
ATOM     22  H   UNL     1      47.137   7.341  15.251  0.00  0.00    +0.000 HD
BRANCH  20  23
ATOM     23  C   UNL     1      48.825   7.992  17.114  0.00  0.00    +0.000 A 
ATOM     24  C   UNL     1      48.998   8.812  18.221  0.00  0.00    +0.000 A 
ATOM     25  S   UNL     1      49.084   7.964  19.698  0.00  0.00    +0.000 S 
ATOM     26  C   UNL     1      48.938   6.465  18.908  0.00  0.00    +0.000 A 
ATOM     27  N   UNL     1      48.968   5.299  19.609  0.00  0.00    +0.000 NA
ATOM     28  C   UNL     1      48.884   4.234  18.881  0.00  0.00    +0.000 A 
ATOM     29  N   UNL     1      48.759   4.233  17.516  0.00  0.00    +0.000 N 
ATOM     30  C   UNL     1      48.666   5.385  16.773  0.00  0.00    +0.000 A 
ATOM     31  O   UNL     1      48.459   5.347  15.565  0.00  0.00    +0.000 OA
ATOM     32  C   UNL     1      48.797   6.611  17.538  0.00  0.00    +0.000 A 
ATOM     33  H   UNL     1      48.672   3.367  17.005  0.00  0.00    +0.000 HD
ENDBRANCH  20  23
ENDBRANCH  18  19
ENDBRANCH   4  18
TORSDOF 6
ENDMDL
MODEL 5
REMARK VINA RESULT:    -7.013      4.102      7.121
REMARK INTER + INTRA:         -10.524
REMARK INTER:                  -9.561
REMARK INTRA:                  -0.963
REMARK UNBOUND:                -1.052
REMARK  Name = 
REMARK  6 active torsions:
REMARK  status: ('A' for Active; 'I' for Inactive)
REMARK    1  A    between atoms: C_2  and  C_25
REMARK    2  A    between atoms: N_3  and  C_4
REMARK    3  A    between atoms: C_4  and  C_5
REMARK    4  A    between atoms: C_8  and  C_9
REMARK    5  A    between atoms: C_9  and  N_10
REMARK    6  A    between atoms: C_11  and  C_13
REMARK                            x       y       z     vdW  Elec       q    Type
REMARK                         _______ _______ _______ _____ _____    ______ ____
ROOT
ATOM      1  C   UNL     1      44.900   9.084  11.833  0.00  0.00    +0.000 A 
ATOM      2  C   UNL     1      44.294   7.946  11.297  0.00  0.00    +0.000 A 
ATOM      3  C   UNL     1      44.713   6.681  11.700  0.00  0.00    +0.000 A 
ATOM      4  C   UNL     1      45.757   6.577  12.615  0.00  0.00    +0.000 A 
ATOM      5  N   UNL     1      46.368   7.669  13.145  0.00  0.00    +0.000 NA
ATOM      6  C   UNL     1      45.927   8.885  12.747  0.00  0.00    +0.000 A 
ENDROOT
BRANCH   1   7
ATOM      7  C   UNL     1      44.445  10.461  11.466  0.00  0.00    +0.000 C 
BRANCH   7  10
ATOM      8  O   UNL     1      41.952  10.410  10.267  0.00  0.00    +0.000 OA
ATOM      9  C   UNL     1      42.029  10.803  11.426  0.00  0.00    +0.000 C 
ATOM     10  N   UNL     1      43.223  10.859  12.119  0.00  0.00    +0.000 N 
ATOM     11  H   UNL     1      43.214  11.219  13.069  0.00  0.00    +0.000 HD
BRANCH   9  12
ATOM     12  C   UNL     1      40.813  11.248  12.154  0.00  0.00    +0.000 A 
ATOM     13  C   UNL     1      39.566  10.832  11.706  0.00  0.00    +0.000 A 
ATOM     14  N   UNL     1      38.412  11.192  12.323  0.00  0.00    +0.000 NA
ATOM     15  C   UNL     1      38.566  11.987  13.406  0.00  0.00    +0.000 A 
ATOM     16  C   UNL     1      39.813  12.405  13.853  0.00  0.00    +0.000 A 
ATOM     17  N   UNL     1      40.972  12.050  13.245  0.00  0.00    +0.000 NA
ENDBRANCH   9  12
ENDBRANCH   7  10
ENDBRANCH   1   7
BRANCH   4  18
ATOM     18  C   UNL     1      46.244   5.222  13.065  0.00  0.00    +0.000 C 
BRANCH  18  19
ATOM     19  N   UNL     1      46.760   5.240  14.416  0.00  0.00    +0.000 N 
ATOM     20  C   UNL     1      47.310   4.137  15.012  0.00  0.00    +0.000 C 
ATOM     21  O   UNL     1      47.383   3.056  14.435  0.00  0.00    +0.000 OA
ATOM     22  H   UNL     1      46.512   6.052  14.973  0.00  0.00    +0.000 HD
BRANCH  20  23
ATOM     23  C   UNL     1      47.879   4.328  16.354  0.00  0.00    +0.000 A 
ATOM     24  C   UNL     1      47.507   3.473  17.383  0.00  0.00    +0.000 A 
ATOM     25  S   UNL     1      48.283   3.803  18.865  0.00  0.00    +0.000 S 
ATOM     26  C   UNL     1      49.112   5.129  18.198  0.00  0.00    +0.000 A 
ATOM     27  N   UNL     1      49.946   5.888  18.960  0.00  0.00    +0.000 NA
ATOM     28  C   UNL     1      50.482   6.885  18.337  0.00  0.00    +0.000 A 
ATOM     29  N   UNL     1      50.269   7.182  17.016  0.00  0.00    +0.000 N 
ATOM     30  C   UNL     1      49.483   6.411  16.194  0.00  0.00    +0.000 A 
ATOM     31  O   UNL     1      49.391   6.651  14.995  0.00  0.00    +0.000 OA
ATOM     32  C   UNL     1      48.823   5.301  16.855  0.00  0.00    +0.000 A 
ATOM     33  H   UNL     1      50.738   7.961  16.579  0.00  0.00    +0.000 HD
ENDBRANCH  20  23
ENDBRANCH  18  19
ENDBRANCH   4  18
TORSDOF 6
ENDMDL
MODEL 6
REMARK VINA RESULT:    -6.770      4.211      6.579
REMARK INTER + INTRA:         -10.196
REMARK INTER:                  -9.526
REMARK INTRA:                  -0.670
REMARK UNBOUND:                -1.052
REMARK  Name = 
REMARK  6 active torsions:
REMARK  status: ('A' for Active; 'I' for Inactive)
REMARK    1  A    between atoms: C_2  and  C_25
REMARK    2  A    between atoms: N_3  and  C_4
REMARK    3  A    between atoms: C_4  and  C_5
REMARK    4  A    between atoms: C_8  and  C_9
REMARK    5  A    between atoms: C_9  and  N_10
REMARK    6  A    between atoms: C_11  and  C_13
REMARK                            x       y       z     vdW  Elec       q    Type
REMARK                         _______ _______ _______ _____ _____    ______ ____
ROOT
ATOM      1  C   UNL     1      45.170   7.477  11.909  0.00  0.00    +0.000 A 
ATOM      2  C   UNL     1      44.341   6.361  12.036  0.00  0.00    +0.000 A 
ATOM      3  C   UNL     1      44.732   5.294  12.841  0.00  0.00    +0.000 A 
ATOM      4  C   UNL     1      45.965   5.352  13.483  0.00  0.00    +0.000 A 
ATOM      5  N   UNL     1      46.793   6.423  13.369  0.00  0.00    +0.000 NA
ATOM      6  C   UNL     1      46.378   7.452  12.594  0.00  0.00    +0.000 A 
ENDROOT
BRANCH   1   7
ATOM      7  C   UNL     1      44.764   8.667  11.097  0.00  0.00    +0.000 C 
BRANCH   7  10
ATOM      8  O   UNL     1      43.273  10.443   9.589  0.00  0.00    +0.000 OA
ATOM      9  C   UNL     1      42.874  10.161  10.714  0.00  0.00    +0.000 C 
ATOM     10  N   UNL     1      43.538   9.280  11.544  0.00  0.00    +0.000 N 
ATOM     11  H   UNL     1      43.162   9.114  12.473  0.00  0.00    +0.000 HD
BRANCH   9  12
ATOM     12  C   UNL     1      41.629  10.772  11.247  0.00  0.00    +0.000 A 
ATOM     13  C   UNL     1      40.413  10.457  10.655  0.00  0.00    +0.000 A 
ATOM     14  N   UNL     1      39.234  10.971  11.091  0.00  0.00    +0.000 NA
ATOM     15  C   UNL     1      39.332  11.812  12.145  0.00  0.00    +0.000 A 
ATOM     16  C   UNL     1      40.548  12.129  12.736  0.00  0.00    +0.000 A 
ATOM     17  N   UNL     1      41.731  11.621  12.309  0.00  0.00    +0.000 NA
ENDBRANCH   9  12
ENDBRANCH   7  10
ENDBRANCH   1   7
BRANCH   4  18
ATOM     18  C   UNL     1      46.426   4.208  14.354  0.00  0.00    +0.000 C 
BRANCH  18  19
ATOM     19  N   UNL     1      47.389   4.623  15.349  0.00  0.00    +0.000 N 
ATOM     20  C   UNL     1      47.397   4.124  16.623  0.00  0.00    +0.000 C 
ATOM     21  O   UNL     1      46.569   3.300  17.003  0.00  0.00    +0.000 OA
ATOM     22  H   UNL     1      47.933   5.450  15.120  0.00  0.00    +0.000 HD
BRANCH  20  23
ATOM     23  C   UNL     1      48.493   4.566  17.498  0.00  0.00    +0.000 A 
ATOM     24  C   UNL     1      48.373   5.763  18.192  0.00  0.00    +0.000 A 
ATOM     25  S   UNL     1      49.710   6.115  19.191  0.00  0.00    +0.000 S 
ATOM     26  C   UNL     1      50.519   4.703  18.697  0.00  0.00    +0.000 A 
ATOM     27  N   UNL     1      51.761   4.408  19.168  0.00  0.00    +0.000 NA
ATOM     28  C   UNL     1      52.274   3.326  18.684  0.00  0.00    +0.000 A 
ATOM     29  N   UNL     1      51.649   2.505  17.781  0.00  0.00    +0.000 N 
ATOM     30  C   UNL     1      50.374   2.732  17.323  0.00  0.00    +0.000 A 
ATOM     31  O   UNL     1      49.810   1.926  16.590  0.00  0.00    +0.000 OA
ATOM     32  C   UNL     1      49.767   3.958  17.804  0.00  0.00    +0.000 A 
ATOM     33  H   UNL     1      52.093   1.658  17.459  0.00  0.00    +0.000 HD
ENDBRANCH  20  23
ENDBRANCH  18  19
ENDBRANCH   4  18
TORSDOF 6
ENDMDL
MODEL 7
REMARK VINA RESULT:    -6.740      1.491      1.884
REMARK INTER + INTRA:         -10.156
REMARK INTER:                  -9.314
REMARK INTRA:                  -0.841
REMARK UNBOUND:                -1.052
REMARK  Name = 
REMARK  6 active torsions:
REMARK  status: ('A' for Active; 'I' for Inactive)
REMARK    1  A    between atoms: C_2  and  C_25
REMARK    2  A    between atoms: N_3  and  C_4
REMARK    3  A    between atoms: C_4  and  C_5
REMARK    4  A    between atoms: C_8  and  C_9
REMARK    5  A    between atoms: C_9  and  N_10
REMARK    6  A    between atoms: C_11  and  C_13
REMARK                            x       y       z     vdW  Elec       q    Type
REMARK                         _______ _______ _______ _____ _____    ______ ____
ROOT
ATOM      1  C   UNL     1      44.748   5.383  10.900  0.00  0.00    +0.000 A 
ATOM      2  C   UNL     1      45.937   6.032  10.563  0.00  0.00    +0.000 A 
ATOM      3  C   UNL     1      46.553   6.875  11.485  0.00  0.00    +0.000 A 
ATOM      4  C   UNL     1      45.947   7.076  12.722  0.00  0.00    +0.000 A 
ATOM      5  N   UNL     1      44.787   6.462  13.070  0.00  0.00    +0.000 NA
ATOM      6  C   UNL     1      44.221   5.635  12.160  0.00  0.00    +0.000 A 
ENDROOT
BRANCH   1   7
ATOM      7  C   UNL     1      44.082   4.429   9.959  0.00  0.00    +0.000 C 
BRANCH   7  10
ATOM      8  O   UNL     1      45.272   1.967   9.536  0.00  0.00    +0.000 OA
ATOM      9  C   UNL     1      45.439   2.843   8.694  0.00  0.00    +0.000 C 
ATOM     10  N   UNL     1      44.883   4.102   8.805  0.00  0.00    +0.000 N 
ATOM     11  H   UNL     1      45.086   4.786   8.081  0.00  0.00    +0.000 HD
BRANCH   9  12
ATOM     12  C   UNL     1      46.269   2.584   7.490  0.00  0.00    +0.000 A 
ATOM     13  C   UNL     1      46.999   1.404   7.412  0.00  0.00    +0.000 A 
ATOM     14  N   UNL     1      47.774   1.096   6.341  0.00  0.00    +0.000 NA
ATOM     15  C   UNL     1      47.784   2.022   5.356  0.00  0.00    +0.000 A 
ATOM     16  C   UNL     1      47.057   3.203   5.435  0.00  0.00    +0.000 A 
ATOM     17  N   UNL     1      46.279   3.520   6.499  0.00  0.00    +0.000 NA
ENDBRANCH   9  12
ENDBRANCH   7  10
ENDBRANCH   1   7
BRANCH   4  18
ATOM     18  C   UNL     1      46.581   7.992  13.741  0.00  0.00    +0.000 C 
BRANCH  18  19
ATOM     19  N   UNL     1      47.840   7.483  14.236  0.00  0.00    +0.000 N 
ATOM     20  C   UNL     1      48.561   8.115  15.212  0.00  0.00    +0.000 C 
ATOM     21  O   UNL     1      48.184   9.169  15.717  0.00  0.00    +0.000 OA
ATOM     22  H   UNL     1      48.266   6.744  13.684  0.00  0.00    +0.000 HD
BRANCH  20  23
ATOM     23  C   UNL     1      49.775   7.433  15.683  0.00  0.00    +0.000 A 
ATOM     24  C   UNL     1      51.021   7.948  15.351  0.00  0.00    +0.000 A 
ATOM     25  S   UNL     1      52.326   7.064  16.003  0.00  0.00    +0.000 S 
ATOM     26  C   UNL     1      51.274   5.934  16.717  0.00  0.00    +0.000 A 
ATOM     27  N   UNL     1      51.759   4.874  17.418  0.00  0.00    +0.000 NA
ATOM     28  C   UNL     1      50.852   4.074  17.875  0.00  0.00    +0.000 A 
ATOM     29  N   UNL     1      49.504   4.249  17.703  0.00  0.00    +0.000 N 
ATOM     30  C   UNL     1      48.967   5.334  17.053  0.00  0.00    +0.000 A 
ATOM     31  O   UNL     1      47.754   5.508  17.001  0.00  0.00    +0.000 OA
ATOM     32  C   UNL     1      49.944   6.242  16.484  0.00  0.00    +0.000 A 
ATOM     33  H   UNL     1      48.842   3.602  18.107  0.00  0.00    +0.000 HD
ENDBRANCH  20  23
ENDBRANCH  18  19
ENDBRANCH   4  18
TORSDOF 6
ENDMDL
MODEL 8
REMARK VINA RESULT:    -6.603      4.916      9.607
REMARK INTER + INTRA:          -9.971
REMARK INTER:                  -8.955
REMARK INTRA:                  -1.016
REMARK UNBOUND:                -1.052
REMARK  Name = 
REMARK  6 active torsions:
REMARK  status: ('A' for Active; 'I' for Inactive)
REMARK    1  A    between atoms: C_2  and  C_25
REMARK    2  A    between atoms: N_3  and  C_4
REMARK    3  A    between atoms: C_4  and  C_5
REMARK    4  A    between atoms: C_8  and  C_9
REMARK    5  A    between atoms: C_9  and  N_10
REMARK    6  A    between atoms: C_11  and  C_13
REMARK                            x       y       z     vdW  Elec       q    Type
REMARK                         _______ _______ _______ _____ _____    ______ ____
ROOT
ATOM      1  C   UNL     1      51.470   2.908  17.813  0.00  0.00    +0.000 A 
ATOM      2  C   UNL     1      50.744   1.941  17.114  0.00  0.00    +0.000 A 
ATOM      3  C   UNL     1      49.397   2.155  16.832  0.00  0.00    +0.000 A 
ATOM      4  C   UNL     1      48.792   3.325  17.282  0.00  0.00    +0.000 A 
ATOM      5  N   UNL     1      49.476   4.276  17.970  0.00  0.00    +0.000 NA
ATOM      6  C   UNL     1      50.787   4.048  18.214  0.00  0.00    +0.000 A 
ENDROOT
BRANCH   1   7
ATOM      7  C   UNL     1      52.931   2.741  18.091  0.00  0.00    +0.000 C 
BRANCH   7  10
ATOM      8  O   UNL     1      54.871   1.401  16.643  0.00  0.00    +0.000 OA
ATOM      9  C   UNL     1      54.297   0.795  17.542  0.00  0.00    +0.000 C 
ATOM     10  N   UNL     1      53.322   1.374  18.330  0.00  0.00    +0.000 N 
ATOM     11  H   UNL     1      52.872   0.803  19.040  0.00  0.00    +0.000 HD
BRANCH   9  12
ATOM     12  C   UNL     1      54.634  -0.622  17.830  0.00  0.00    +0.000 A 
ATOM     13  C   UNL     1      54.714  -1.045  19.151  0.00  0.00    +0.000 A 
ATOM     14  N   UNL     1      55.011  -2.325  19.490  0.00  0.00    +0.000 NA
ATOM     15  C   UNL     1      55.223  -3.160  18.448  0.00  0.00    +0.000 A 
ATOM     16  C   UNL     1      55.145  -2.737  17.127  0.00  0.00    +0.000 A 
ATOM     17  N   UNL     1      54.849  -1.461  16.777  0.00  0.00    +0.000 NA
ENDBRANCH   9  12
ENDBRANCH   7  10
ENDBRANCH   1   7
BRANCH   4  18
ATOM     18  C   UNL     1      47.332   3.584  17.004  0.00  0.00    +0.000 C 
BRANCH  18  19
ATOM     19  N   UNL     1      47.132   4.595  15.990  0.00  0.00    +0.000 N 
ATOM     20  C   UNL     1      47.101   4.305  14.652  0.00  0.00    +0.000 C 
ATOM     21  O   UNL     1      47.260   3.162  14.232  0.00  0.00    +0.000 OA
ATOM     22  H   UNL     1      47.218   5.558  16.302  0.00  0.00    +0.000 HD
BRANCH  20  23
ATOM     23  C   UNL     1      46.795   5.419  13.743  0.00  0.00    +0.000 A 
ATOM     24  C   UNL     1      45.622   5.393  13.001  0.00  0.00    +0.000 A 
ATOM     25  S   UNL     1      45.395   6.773  12.025  0.00  0.00    +0.000 S 
ATOM     26  C   UNL     1      46.880   7.436  12.524  0.00  0.00    +0.000 A 
ATOM     27  N   UNL     1      47.316   8.626  12.030  0.00  0.00    +0.000 NA
ATOM     28  C   UNL     1      48.475   8.995  12.465  0.00  0.00    +0.000 A 
ATOM     29  N   UNL     1      49.231   8.285  13.362  0.00  0.00    +0.000 N 
ATOM     30  C   UNL     1      48.806   7.109  13.931  0.00  0.00    +0.000 A 
ATOM     31  O   UNL     1      49.465   6.550  14.802  0.00  0.00    +0.000 OA
ATOM     32  C   UNL     1      47.527   6.629  13.445  0.00  0.00    +0.000 A 
ATOM     33  H   UNL     1      50.119   8.639  13.684  0.00  0.00    +0.000 HD
ENDBRANCH  20  23
ENDBRANCH  18  19
ENDBRANCH   4  18
TORSDOF 6
ENDMDL
MODEL 9
REMARK VINA RESULT:    -6.403      4.530     10.735
REMARK INTER + INTRA:          -9.701
REMARK INTER:                  -8.960
REMARK INTRA:                  -0.741
REMARK UNBOUND:                -1.052
REMARK  Name = 
REMARK  6 active torsions:
REMARK  status: ('A' for Active; 'I' for Inactive)
REMARK    1  A    between atoms: C_2  and  C_25
REMARK    2  A    between atoms: N_3  and  C_4
REMARK    3  A    between atoms: C_4  and  C_5
REMARK    4  A    between atoms: C_8  and  C_9
REMARK    5  A    between atoms: C_9  and  N_10
REMARK    6  A    between atoms: C_11  and  C_13
REMARK                            x       y       z     vdW  Elec       q    Type
REMARK                         _______ _______ _______ _____ _____    ______ ____
ROOT
ATOM      1  C   UNL     1      48.039   5.492  20.253  0.00  0.00    +0.000 A 
ATOM      2  C   UNL     1      48.951   4.525  19.827  0.00  0.00    +0.000 A 
ATOM      3  C   UNL     1      48.808   3.941  18.571  0.00  0.00    +0.000 A 
ATOM      4  C   UNL     1      47.732   4.317  17.773  0.00  0.00    +0.000 A 
ATOM      5  N   UNL     1      46.827   5.250  18.167  0.00  0.00    +0.000 NA
ATOM      6  C   UNL     1      47.002   5.812  19.385  0.00  0.00    +0.000 A 
ENDROOT
BRANCH   1   7
ATOM      7  C   UNL     1      48.186   6.183  21.572  0.00  0.00    +0.000 C 
BRANCH   7  10
ATOM      8  O   UNL     1      49.460   8.594  21.104  0.00  0.00    +0.000 OA
ATOM      9  C   UNL     1      48.266   8.614  21.385  0.00  0.00    +0.000 C 
ATOM     10  N   UNL     1      47.535   7.468  21.628  0.00  0.00    +0.000 N 
ATOM     11  H   UNL     1      46.555   7.564  21.881  0.00  0.00    +0.000 HD
BRANCH   9  12
ATOM     12  C   UNL     1      47.536   9.904  21.481  0.00  0.00    +0.000 A 
ATOM     13  C   UNL     1      46.212   9.904  21.899  0.00  0.00    +0.000 A 
ATOM     14  N   UNL     1      45.483  11.044  22.016  0.00  0.00    +0.000 NA
ATOM     15  C   UNL     1      46.142  12.180  21.696  0.00  0.00    +0.000 A 
ATOM     16  C   UNL     1      47.466  12.181  21.275  0.00  0.00    +0.000 A 
ATOM     17  N   UNL     1      48.203  11.048  21.155  0.00  0.00    +0.000 NA
ENDBRANCH   9  12
ENDBRANCH   7  10
ENDBRANCH   1   7
BRANCH   4  18
ATOM     18  C   UNL     1      47.539   3.696  16.410  0.00  0.00    +0.000 C 
BRANCH  18  19
ATOM     19  N   UNL     1      46.960   4.616  15.459  0.00  0.00    +0.000 N 
ATOM     20  C   UNL     1      46.766   4.295  14.143  0.00  0.00    +0.000 C 
ATOM     21  O   UNL     1      47.092   3.203  13.686  0.00  0.00    +0.000 OA
ATOM     22  H   UNL     1      46.889   5.583  15.765  0.00  0.00    +0.000 HD
BRANCH  20  23
ATOM     23  C   UNL     1      46.079   5.296  13.314  0.00  0.00    +0.000 A 
ATOM     24  C   UNL     1      46.722   6.488  13.007  0.00  0.00    +0.000 A 
ATOM     25  S   UNL     1      45.809   7.525  12.008  0.00  0.00    +0.000 S 
ATOM     26  C   UNL     1      44.501   6.439  11.984  0.00  0.00    +0.000 A 
ATOM     27  N   UNL     1      43.356   6.737  11.313  0.00  0.00    +0.000 NA
ATOM     28  C   UNL     1      42.430   5.841  11.408  0.00  0.00    +0.000 A 
ATOM     29  N   UNL     1      42.554   4.666  12.103  0.00  0.00    +0.000 N 
ATOM     30  C   UNL     1      43.710   4.297  12.746  0.00  0.00    +0.000 A 
ATOM     31  O   UNL     1      43.817   3.196  13.277  0.00  0.00    +0.000 OA
ATOM     32  C   UNL     1      44.768   5.287  12.706  0.00  0.00    +0.000 A 
ATOM     33  H   UNL     1      41.802   3.993  12.118  0.00  0.00    +0.000 HD
ENDBRANCH  20  23
ENDBRANCH  18  19
ENDBRANCH   4  18
TORSDOF 6
ENDMDL
