MODEL 1
REMARK VINA RESULT:    -8.442      0.000      0.000
REMARK INTER + INTRA:         -11.710
REMARK INTER:                 -11.156
REMARK INTRA:                  -0.554
REMARK UNBOUND:                -0.554
REMARK  Name = 
REMARK  6 active torsions:
REMARK  status: ('A' for Active; 'I' for Inactive)
REMARK    1  A    between atoms: N_1  and  C_2
REMARK    2  A    between atoms: C_5  and  O_6
REMARK    3  A    between atoms: O_6  and  C_7
REMARK    4  A    between atoms: C_10  and  C_11
REMARK    5  A    between atoms: C_11  and  N_12
REMARK    6  A    between atoms: C_13  and  C_15
REMARK                            x       y       z     vdW  Elec       q    Type
REMARK                         _______ _______ _______ _____ _____    ______ ____
ROOT
ATOM      1  C   UNL     1      44.604   4.174  10.000  0.00  0.00    +0.000 A 
ATOM      2  C   UNL     1      45.598   5.056   9.603  0.00  0.00    +0.000 A 
ATOM      3  C   UNL     1      45.915   6.117  10.446  0.00  0.00    +0.000 A 
ATOM      4  C   UNL     1      45.231   6.269  11.654  0.00  0.00    +0.000 A 
ATOM      5  C   UNL     1      44.284   5.304  11.979  0.00  0.00    +0.000 A 
ATOM      6  N   UNL     1      43.962   4.261  11.188  0.00  0.00    +0.000 NA
ENDROOT
BRANCH   1   7
ATOM      7  O   UNL     1      44.306   3.139   9.122  0.00  0.00    +0.000 OA
BRANCH   7  11
ATOM      8  C   UNL     1      47.251   1.840   6.443  0.00  0.00    +0.000 A 
ATOM      9  C   UNL     1      46.950   1.062   7.561  0.00  0.00    +0.000 A 
ATOM     10  C   UNL     1      45.950   1.456   8.457  0.00  0.00    +0.000 A 
ATOM     11  C   UNL     1      45.303   2.682   8.289  0.00  0.00    +0.000 A 
ATOM     12  C   UNL     1      45.618   3.479   7.190  0.00  0.00    +0.000 A 
ATOM     13  C   UNL     1      46.606   3.070   6.287  0.00  0.00    +0.000 A 
BRANCH   8  14
ATOM     14  N   UNL     1      48.337   1.502   5.626  0.00  0.00    +0.000 N 
ATOM     15  H   UNL     1      49.180   2.030   5.830  0.00  0.00    +0.000 HD
ATOM     16  H   UNL     1      48.510   0.504   5.566  0.00  0.00    +0.000 HD
ENDBRANCH   8  14
ENDBRANCH   7  11
ENDBRANCH   1   7
BRANCH   4  17
ATOM     17  C   UNL     1      45.528   7.398  12.592  0.00  0.00    +0.000 C 
BRANCH  17  18
ATOM     18  N   UNL     1      46.324   6.954  13.705  0.00  0.00    +0.000 N 
ATOM     19  C   UNL     1      47.693   6.909  13.672  0.00  0.00    +0.000 C 
ATOM     20  O   UNL     1      48.339   7.276  12.695  0.00  0.00    +0.000 OA
ATOM     21  H   UNL     1      45.835   6.456  14.440  0.00  0.00    +0.000 HD
BRANCH  19  22
ATOM     22  C   UNL     1      48.350   6.471  14.911  0.00  0.00    +0.000 A 
ATOM     23  C   UNL     1      49.387   7.224  15.444  0.00  0.00    +0.000 A 
ATOM     24  S   UNL     1      49.982   6.619  16.922  0.00  0.00    +0.000 S 
ATOM     25  C   UNL     1      48.910   5.298  16.878  0.00  0.00    +0.000 A 
ATOM     26  N   UNL     1      48.905   4.366  17.867  0.00  0.00    +0.000 NA
ATOM     27  C   UNL     1      48.074   3.395  17.684  0.00  0.00    +0.000 A 
ATOM     28  N   UNL     1      47.241   3.275  16.602  0.00  0.00    +0.000 N 
ATOM     29  C   UNL     1      47.162   4.226  15.614  0.00  0.00    +0.000 A 
ATOM     30  O   UNL     1      46.325   4.149  14.721  0.00  0.00    +0.000 OA
ATOM     31  C   UNL     1      48.101   5.324  15.755  0.00  0.00    +0.000 A 
ATOM     32  H   UNL     1      46.599   2.500  16.527  0.00  0.00    +0.000 HD
ENDBRANCH  19  22
ENDBRANCH  17  18
ENDBRANCH   4  17
TORSDOF 6
ENDMDL
MODEL 2
REMARK VINA RESULT:    -8.311      3.049      3.723
REMARK INTER + INTRA:         -11.538
REMARK INTER:                 -10.476
REMARK INTRA:                  -1.062
REMARK UNBOUND:                -0.554
REMARK  Name = 
REMARK  6 active torsions:
REMARK  status: ('A' for Active; 'I' for Inactive)
REMARK    1  A    between atoms: N_1  and  C_2
REMARK    2  A    between atoms: C_5  and  O_6
REMARK    3  A    between atoms: O_6  and  C_7
REMARK    4  A    between atoms: C_10  and  C_11
REMARK    5  A    between atoms: C_11  and  N_12
REMARK    6  A    between atoms: C_13  and  C_15
REMARK                            x       y       z     vdW  Elec       q    Type
REMARK                         _______ _______ _______ _____ _____    ______ ____
ROOT
ATOM      1  C   UNL     1      44.265   3.179  10.275  0.00  0.00    +0.000 A 
ATOM      2  C   UNL     1      45.032   3.106  11.429  0.00  0.00    +0.000 A 
ATOM      3  C   UNL     1      44.964   4.162  12.335  0.00  0.00    +0.000 A 
ATOM      4  C   UNL     1      44.140   5.255  12.062  0.00  0.00    +0.000 A 
ATOM      5  C   UNL     1      43.377   5.209  10.900  0.00  0.00    +0.000 A 
ATOM      6  N   UNL     1      43.415   4.197  10.009  0.00  0.00    +0.000 NA
ENDROOT
BRANCH   1   7
ATOM      7  O   UNL     1      44.374   2.114   9.390  0.00  0.00    +0.000 OA
BRANCH   7  11
ATOM      8  C   UNL     1      47.377   2.306   6.477  0.00  0.00    +0.000 A 
ATOM      9  C   UNL     1      47.210   1.132   7.213  0.00  0.00    +0.000 A 
ATOM     10  C   UNL     1      46.196   1.030   8.171  0.00  0.00    +0.000 A 
ATOM     11  C   UNL     1      45.395   2.136   8.466  0.00  0.00    +0.000 A 
ATOM     12  C   UNL     1      45.575   3.320   7.755  0.00  0.00    +0.000 A 
ATOM     13  C   UNL     1      46.579   3.411   6.784  0.00  0.00    +0.000 A 
BRANCH   8  14
ATOM     14  N   UNL     1      48.472   2.441   5.615  0.00  0.00    +0.000 N 
ATOM     15  H   UNL     1      48.487   3.322   5.110  0.00  0.00    +0.000 HD
ATOM     16  H   UNL     1      49.364   2.228   6.048  0.00  0.00    +0.000 HD
ENDBRANCH   8  14
ENDBRANCH   7  11
ENDBRANCH   1   7
BRANCH   4  17
ATOM     17  C   UNL     1      44.038   6.419  12.998  0.00  0.00    +0.000 C 
BRANCH  17  18
ATOM     18  N   UNL     1      45.227   7.230  12.953  0.00  0.00    +0.000 N 
ATOM     19  C   UNL     1      45.408   8.238  12.043  0.00  0.00    +0.000 C 
ATOM     20  O   UNL     1      44.549   8.543  11.221  0.00  0.00    +0.000 OA
ATOM     21  H   UNL     1      46.029   6.883  13.466  0.00  0.00    +0.000 HD
BRANCH  19  22
ATOM     22  C   UNL     1      46.662   8.993  12.165  0.00  0.00    +0.000 A 
ATOM     23  C   UNL     1      46.643  10.378  12.079  0.00  0.00    +0.000 A 
ATOM     24  S   UNL     1      48.169  11.099  12.320  0.00  0.00    +0.000 S 
ATOM     25  C   UNL     1      48.920   9.583  12.496  0.00  0.00    +0.000 A 
ATOM     26  N   UNL     1      50.258   9.485  12.722  0.00  0.00    +0.000 NA
ATOM     27  C   UNL     1      50.702   8.274  12.790  0.00  0.00    +0.000 A 
ATOM     28  N   UNL     1      49.928   7.151  12.659  0.00  0.00    +0.000 N 
ATOM     29  C   UNL     1      48.564   7.200  12.500  0.00  0.00    +0.000 A 
ATOM     30  O   UNL     1      47.885   6.179  12.504  0.00  0.00    +0.000 OA
ATOM     31  C   UNL     1      48.018   8.540  12.383  0.00  0.00    +0.000 A 
ATOM     32  H   UNL     1      50.333   6.231  12.742  0.00  0.00    +0.000 HD
ENDBRANCH  19  22
ENDBRANCH  17  18
ENDBRANCH   4  17
TORSDOF 6
ENDMDL
MODEL 3
REMARK VINA RESULT:    -7.902      2.815      4.743
REMARK INTER + INTRA:         -10.997
REMARK INTER:                 -10.114
REMARK INTRA:                  -0.883
REMARK UNBOUND:                -0.554
REMARK  Name = 
REMARK  6 active torsions:
REMARK  status: ('A' for Active; 'I' for Inactive)
REMARK    1  A    between atoms: N_1  and  C_2
REMARK    2  A    between atoms: C_5  and  O_6
REMARK    3  A    between atoms: O_6  and  C_7
REMARK    4  A    between atoms: C_10  and  C_11
REMARK    5  A    between atoms: C_11  and  N_12
REMARK    6  A    between atoms: C_13  and  C_15
REMARK                            x       y       z     vdW  Elec       q    Type
REMARK                         _______ _______ _______ _____ _____    ______ ____
ROOT
ATOM      1  C   UNL     1      46.818   1.907   7.360  0.00  0.00    +0.000 A 
ATOM      2  C   UNL     1      46.772   3.281   7.172  0.00  0.00    +0.000 A 
ATOM      3  C   UNL     1      45.869   4.022   7.930  0.00  0.00    +0.000 A 
ATOM      4  C   UNL     1      45.040   3.372   8.846  0.00  0.00    +0.000 A 
ATOM      5  C   UNL     1      45.198   1.998   8.992  0.00  0.00    +0.000 A 
ATOM      6  N   UNL     1      46.069   1.256   8.278  0.00  0.00    +0.000 NA
ENDROOT
BRANCH   1   7
ATOM      7  O   UNL     1      47.720   1.204   6.571  0.00  0.00    +0.000 OA
BRANCH   7  11
ATOM      8  C   UNL     1      46.402  -0.773   3.122  0.00  0.00    +0.000 A 
ATOM      9  C   UNL     1      46.527   0.616   3.111  0.00  0.00    +0.000 A 
ATOM     10  C   UNL     1      46.994   1.300   4.238  0.00  0.00    +0.000 A 
ATOM     11  C   UNL     1      47.254   0.605   5.422  0.00  0.00    +0.000 A 
ATOM     12  C   UNL     1      47.103  -0.779   5.450  0.00  0.00    +0.000 A 
ATOM     13  C   UNL     1      46.655  -1.461   4.313  0.00  0.00    +0.000 A 
BRANCH   8  14
ATOM     14  N   UNL     1      45.814  -1.433   2.036  0.00  0.00    +0.000 N 
ATOM     15  H   UNL     1      44.825  -1.234   1.925  0.00  0.00    +0.000 HD
ATOM     16  H   UNL     1      46.329  -1.332   1.168  0.00  0.00    +0.000 HD
ENDBRANCH   8  14
ENDBRANCH   7  11
ENDBRANCH   1   7
BRANCH   4  17
ATOM     17  C   UNL     1      44.046   4.121   9.680  0.00  0.00    +0.000 C 
BRANCH  17  18
ATOM     18  N   UNL     1      44.644   5.280  10.287  0.00  0.00    +0.000 N 
ATOM     19  C   UNL     1      43.984   6.075  11.187  0.00  0.00    +0.000 C 
ATOM     20  O   UNL     1      42.840   5.833  11.563  0.00  0.00    +0.000 OA
ATOM     21  H   UNL     1      45.493   5.628   9.857  0.00  0.00    +0.000 HD
BRANCH  19  22
ATOM     22  C   UNL     1      44.757   7.194  11.741  0.00  0.00    +0.000 A 
ATOM     23  C   UNL     1      44.433   8.497  11.389  0.00  0.00    +0.000 A 
ATOM     24  S   UNL     1      45.377   9.675  12.182  0.00  0.00    +0.000 S 
ATOM     25  C   UNL     1      46.289   8.484  12.986  0.00  0.00    +0.000 A 
ATOM     26  N   UNL     1      47.294   8.826  13.835  0.00  0.00    +0.000 NA
ATOM     27  C   UNL     1      47.931   7.823  14.341  0.00  0.00    +0.000 A 
ATOM     28  N   UNL     1      47.650   6.508  14.079  0.00  0.00    +0.000 N 
ATOM     29  C   UNL     1      46.602   6.114  13.283  0.00  0.00    +0.000 A 
ATOM     30  O   UNL     1      46.303   4.931  13.162  0.00  0.00    +0.000 OA
ATOM     31  C   UNL     1      45.872   7.205  12.662  0.00  0.00    +0.000 A 
ATOM     32  H   UNL     1      48.175   5.768  14.522  0.00  0.00    +0.000 HD
ENDBRANCH  19  22
ENDBRANCH  17  18
ENDBRANCH   4  17
TORSDOF 6
ENDMDL
MODEL 4
REMARK VINA RESULT:    -7.855      1.220      1.462
REMARK INTER + INTRA:         -10.935
REMARK INTER:                 -10.135
REMARK INTRA:                  -0.800
REMARK UNBOUND:                -0.554
REMARK  Name = 
REMARK  6 active torsions:
REMARK  status: ('A' for Active; 'I' for Inactive)
REMARK    1  A    between atoms: N_1  and  C_2
REMARK    2  A    between atoms: C_5  and  O_6
REMARK    3  A    between atoms: O_6  and  C_7
REMARK    4  A    between atoms: C_10  and  C_11
REMARK    5  A    between atoms: C_11  and  N_12
REMARK    6  A    between atoms: C_13  and  C_15
REMARK                            x       y       z     vdW  Elec       q    Type
REMARK                         _______ _______ _______ _____ _____    ______ ____
ROOT
ATOM      1  C   UNL     1      44.854   5.411  10.730  0.00  0.00    +0.000 A 
ATOM      2  C   UNL     1      45.833   4.867  11.549  0.00  0.00    +0.000 A 
ATOM      3  C   UNL     1      46.516   5.715  12.416  0.00  0.00    +0.000 A 
ATOM      4  C   UNL     1      46.205   7.076  12.438  0.00  0.00    +0.000 A 
ATOM      5  C   UNL     1      45.175   7.513  11.611  0.00  0.00    +0.000 A 
ATOM      6  N   UNL     1      44.491   6.714  10.768  0.00  0.00    +0.000 NA
ENDROOT
BRANCH   1   7
ATOM      7  O   UNL     1      44.209   4.534   9.868  0.00  0.00    +0.000 OA
BRANCH   7  11
ATOM      8  C   UNL     1      46.534   2.027   7.448  0.00  0.00    +0.000 A 
ATOM      9  C   UNL     1      45.753   1.471   8.461  0.00  0.00    +0.000 A 
ATOM     10  C   UNL     1      44.943   2.281   9.265  0.00  0.00    +0.000 A 
ATOM     11  C   UNL     1      44.978   3.669   9.120  0.00  0.00    +0.000 A 
ATOM     12  C   UNL     1      45.777   4.235   8.130  0.00  0.00    +0.000 A 
ATOM     13  C   UNL     1      46.570   3.418   7.315  0.00  0.00    +0.000 A 
BRANCH   8  14
ATOM     14  N   UNL     1      47.434   1.225   6.736  0.00  0.00    +0.000 N 
ATOM     15  H   UNL     1      48.330   1.670   6.567  0.00  0.00    +0.000 HD
ATOM     16  H   UNL     1      47.531   0.287   7.110  0.00  0.00    +0.000 HD
ENDBRANCH   8  14
ENDBRANCH   7  11
ENDBRANCH   1   7
BRANCH   4  17
ATOM     17  C   UNL     1      46.916   8.033  13.346  0.00  0.00    +0.000 C 
BRANCH  17  18
ATOM     18  N   UNL     1      47.405   7.367  14.524  0.00  0.00    +0.000 N 
ATOM     19  C   UNL     1      48.679   6.873  14.627  0.00  0.00    +0.000 C 
ATOM     20  O   UNL     1      49.506   6.995  13.727  0.00  0.00    +0.000 OA
ATOM     21  H   UNL     1      46.707   7.067  15.195  0.00  0.00    +0.000 HD
BRANCH  19  22
ATOM     22  C   UNL     1      49.026   6.260  15.916  0.00  0.00    +0.000 A 
ATOM     23  C   UNL     1      50.046   6.804  16.684  0.00  0.00    +0.000 A 
ATOM     24  S   UNL     1      50.265   6.021  18.183  0.00  0.00    +0.000 S 
ATOM     25  C   UNL     1      49.039   4.893  17.836  0.00  0.00    +0.000 A 
ATOM     26  N   UNL     1      48.717   3.913  18.723  0.00  0.00    +0.000 NA
ATOM     27  C   UNL     1      47.802   3.101  18.312  0.00  0.00    +0.000 A 
ATOM     28  N   UNL     1      47.174   3.182  17.097  0.00  0.00    +0.000 N 
ATOM     29  C   UNL     1      47.417   4.193  16.200  0.00  0.00    +0.000 A 
ATOM     30  O   UNL     1      46.755   4.306  15.172  0.00  0.00    +0.000 OA
ATOM     31  C   UNL     1      48.463   5.117  16.598  0.00  0.00    +0.000 A 
ATOM     32  H   UNL     1      46.450   2.525  16.843  0.00  0.00    +0.000 HD
ENDBRANCH  19  22
ENDBRANCH  17  18
ENDBRANCH   4  17
TORSDOF 6
ENDMDL
MODEL 5
REMARK VINA RESULT:    -7.766      3.308      5.065
REMARK INTER + INTRA:         -10.817
REMARK INTER:                 -10.138
REMARK INTRA:                  -0.680
REMARK UNBOUND:                -0.554
REMARK  Name = 
REMARK  6 active torsions:
REMARK  status: ('A' for Active; 'I' for Inactive)
REMARK    1  A    between atoms: N_1  and  C_2
REMARK    2  A    between atoms: C_5  and  O_6
REMARK    3  A    between atoms: O_6  and  C_7
REMARK    4  A    between atoms: C_10  and  C_11
REMARK    5  A    between atoms: C_11  and  N_12
REMARK    6  A    between atoms: C_13  and  C_15
REMARK                            x       y       z     vdW  Elec       q    Type
REMARK                         _______ _______ _______ _____ _____    ______ ____
ROOT
ATOM      1  C   UNL     1      44.454   3.310  10.284  0.00  0.00    +0.000 A 
ATOM      2  C   UNL     1      45.131   3.212  11.491  0.00  0.00    +0.000 A 
ATOM      3  C   UNL     1      45.060   4.284  12.378  0.00  0.00    +0.000 A 
ATOM      4  C   UNL     1      44.322   5.418  12.033  0.00  0.00    +0.000 A 
ATOM      5  C   UNL     1      43.644   5.397  10.820  0.00  0.00    +0.000 A 
ATOM      6  N   UNL     1      43.686   4.372   9.945  0.00  0.00    +0.000 NA
ENDROOT
BRANCH   1   7
ATOM      7  O   UNL     1      44.565   2.227   9.422  0.00  0.00    +0.000 OA
BRANCH   7  11
ATOM      8  C   UNL     1      47.503   2.299   6.437  0.00  0.00    +0.000 A 
ATOM      9  C   UNL     1      46.709   3.428   6.646  0.00  0.00    +0.000 A 
ATOM     10  C   UNL     1      45.740   3.442   7.655  0.00  0.00    +0.000 A 
ATOM     11  C   UNL     1      45.495   2.292   8.408  0.00  0.00    +0.000 A 
ATOM     12  C   UNL     1      46.264   1.152   8.187  0.00  0.00    +0.000 A 
ATOM     13  C   UNL     1      47.245   1.149   7.188  0.00  0.00    +0.000 A 
BRANCH   8  14
ATOM     14  N   UNL     1      48.377   2.250   5.345  0.00  0.00    +0.000 N 
ATOM     15  H   UNL     1      47.913   2.076   4.459  0.00  0.00    +0.000 HD
ATOM     16  H   UNL     1      49.019   3.034   5.299  0.00  0.00    +0.000 HD
ENDBRANCH   8  14
ENDBRANCH   7  11
ENDBRANCH   1   7
BRANCH   4  17
ATOM     17  C   UNL     1      44.222   6.601  12.946  0.00  0.00    +0.000 C 
BRANCH  17  18
ATOM     18  N   UNL     1      45.045   7.687  12.484  0.00  0.00    +0.000 N 
ATOM     19  C   UNL     1      46.340   7.868  12.892  0.00  0.00    +0.000 C 
ATOM     20  O   UNL     1      46.902   7.092  13.660  0.00  0.00    +0.000 OA
ATOM     21  H   UNL     1      44.565   8.451  12.021  0.00  0.00    +0.000 HD
BRANCH  19  22
ATOM     22  C   UNL     1      47.049   9.004  12.288  0.00  0.00    +0.000 A 
ATOM     23  C   UNL     1      48.414   8.916  12.051  0.00  0.00    +0.000 A 
ATOM     24  S   UNL     1      49.063  10.289  11.275  0.00  0.00    +0.000 S 
ATOM     25  C   UNL     1      47.553  11.072  11.275  0.00  0.00    +0.000 A 
ATOM     26  N   UNL     1      47.410  12.319  10.751  0.00  0.00    +0.000 NA
ATOM     27  C   UNL     1      46.221  12.811  10.858  0.00  0.00    +0.000 A 
ATOM     28  N   UNL     1      45.159  12.167  11.436  0.00  0.00    +0.000 N 
ATOM     29  C   UNL     1      45.239  10.882  11.915  0.00  0.00    +0.000 A 
ATOM     30  O   UNL     1      44.243  10.289  12.319  0.00  0.00    +0.000 OA
ATOM     31  C   UNL     1      46.564  10.293  11.850  0.00  0.00    +0.000 A 
ATOM     32  H   UNL     1      44.248  12.599  11.471  0.00  0.00    +0.000 HD
ENDBRANCH  19  22
ENDBRANCH  17  18
ENDBRANCH   4  17
TORSDOF 6
ENDMDL
MODEL 6
REMARK VINA RESULT:    -7.555      3.050      5.304
REMARK INTER + INTRA:         -10.538
REMARK INTER:                  -9.874
REMARK INTRA:                  -0.663
REMARK UNBOUND:                -0.554
REMARK  Name = 
REMARK  6 active torsions:
REMARK  status: ('A' for Active; 'I' for Inactive)
REMARK    1  A    between atoms: N_1  and  C_2
REMARK    2  A    between atoms: C_5  and  O_6
REMARK    3  A    between atoms: O_6  and  C_7
REMARK    4  A    between atoms: C_10  and  C_11
REMARK    5  A    between atoms: C_11  and  N_12
REMARK    6  A    between atoms: C_13  and  C_15
REMARK                            x       y       z     vdW  Elec       q    Type
REMARK                         _______ _______ _______ _____ _____    ______ ____
ROOT
ATOM      1  C   UNL     1      46.802   1.856   6.435  0.00  0.00    +0.000 A 
ATOM      2  C   UNL     1      46.385   3.171   6.588  0.00  0.00    +0.000 A 
ATOM      3  C   UNL     1      45.670   3.507   7.734  0.00  0.00    +0.000 A 
ATOM      4  C   UNL     1      45.391   2.526   8.688  0.00  0.00    +0.000 A 
ATOM      5  C   UNL     1      45.894   1.250   8.461  0.00  0.00    +0.000 A 
ATOM      6  N   UNL     1      46.596   0.896   7.365  0.00  0.00    +0.000 NA
ENDROOT
BRANCH   1   7
ATOM      7  O   UNL     1      47.497   1.558   5.269  0.00  0.00    +0.000 OA
BRANCH   7  11
ATOM      8  C   UNL     1      46.079  -1.489   2.770  0.00  0.00    +0.000 A 
ATOM      9  C   UNL     1      45.820  -0.157   2.443  0.00  0.00    +0.000 A 
ATOM     10  C   UNL     1      46.307   0.882   3.244  0.00  0.00    +0.000 A 
ATOM     11  C   UNL     1      46.983   0.594   4.431  0.00  0.00    +0.000 A 
ATOM     12  C   UNL     1      47.221  -0.734   4.779  0.00  0.00    +0.000 A 
ATOM     13  C   UNL     1      46.749  -1.769   3.964  0.00  0.00    +0.000 A 
BRANCH   8  14
ATOM     14  N   UNL     1      45.480  -2.519   2.035  0.00  0.00    +0.000 N 
ATOM     15  H   UNL     1      45.441  -2.339   1.037  0.00  0.00    +0.000 HD
ATOM     16  H   UNL     1      45.846  -3.441   2.249  0.00  0.00    +0.000 HD
ENDBRANCH   8  14
ENDBRANCH   7  11
ENDBRANCH   1   7
BRANCH   4  17
ATOM     17  C   UNL     1      44.618   2.834   9.933  0.00  0.00    +0.000 C 
BRANCH  17  18
ATOM     18  N   UNL     1      45.167   3.975  10.618  0.00  0.00    +0.000 N 
ATOM     19  C   UNL     1      45.249   4.057  11.983  0.00  0.00    +0.000 C 
ATOM     20  O   UNL     1      44.888   3.143  12.719  0.00  0.00    +0.000 OA
ATOM     21  H   UNL     1      45.282   4.819  10.068  0.00  0.00    +0.000 HD
BRANCH  19  22
ATOM     22  C   UNL     1      45.876   5.274  12.515  0.00  0.00    +0.000 A 
ATOM     23  C   UNL     1      47.023   5.176  13.290  0.00  0.00    +0.000 A 
ATOM     24  S   UNL     1      47.664   6.685  13.758  0.00  0.00    +0.000 S 
ATOM     25  C   UNL     1      46.401   7.524  12.986  0.00  0.00    +0.000 A 
ATOM     26  N   UNL     1      46.343   8.882  13.012  0.00  0.00    +0.000 NA
ATOM     27  C   UNL     1      45.308   9.385  12.426  0.00  0.00    +0.000 A 
ATOM     28  N   UNL     1      44.328   8.652  11.809  0.00  0.00    +0.000 N 
ATOM     29  C   UNL     1      44.380   7.284  11.697  0.00  0.00    +0.000 A 
ATOM     30  O   UNL     1      43.550   6.666  11.039  0.00  0.00    +0.000 OA
ATOM     31  C   UNL     1      45.508   6.665  12.370  0.00  0.00    +0.000 A 
ATOM     32  H   UNL     1      43.553   9.107  11.350  0.00  0.00    +0.000 HD
ENDBRANCH  19  22
ENDBRANCH  17  18
ENDBRANCH   4  17
TORSDOF 6
ENDMDL
MODEL 7
REMARK VINA RESULT:    -7.443      3.311      8.119
REMARK INTER + INTRA:         -10.390
REMARK INTER:                  -9.660
REMARK INTRA:                  -0.730
REMARK UNBOUND:                -0.554
REMARK  Name = 
REMARK  6 active torsions:
REMARK  status: ('A' for Active; 'I' for Inactive)
REMARK    1  A    between atoms: N_1  and  C_2
REMARK    2  A    between atoms: C_5  and  O_6
REMARK    3  A    between atoms: O_6  and  C_7
REMARK    4  A    between atoms: C_10  and  C_11
REMARK    5  A    between atoms: C_11  and  N_12
REMARK    6  A    between atoms: C_13  and  C_15
REMARK                            x       y       z     vdW  Elec       q    Type
REMARK                         _______ _______ _______ _____ _____    ______ ____
ROOT
ATOM      1  C   UNL     1      49.673   5.744  16.709  0.00  0.00    +0.000 A 
ATOM      2  C   UNL     1      50.457   6.740  16.145  0.00  0.00    +0.000 A 
ATOM      3  C   UNL     1      50.029   7.324  14.956  0.00  0.00    +0.000 A 
ATOM      4  C   UNL     1      48.839   6.895  14.365  0.00  0.00    +0.000 A 
ATOM      5  C   UNL     1      48.104   5.923  15.035  0.00  0.00    +0.000 A 
ATOM      6  N   UNL     1      48.489   5.346  16.191  0.00  0.00    +0.000 NA
ENDROOT
BRANCH   1   7
ATOM      7  O   UNL     1      50.144   5.176  17.886  0.00  0.00    +0.000 OA
BRANCH   7  11
ATOM      8  C   UNL     1      52.148   1.504  17.671  0.00  0.00    +0.000 A 
ATOM      9  C   UNL     1      52.841   2.641  18.090  0.00  0.00    +0.000 A 
ATOM     10  C   UNL     1      52.190   3.874  18.200  0.00  0.00    +0.000 A 
ATOM     11  C   UNL     1      50.857   4.000  17.804  0.00  0.00    +0.000 A 
ATOM     12  C   UNL     1      50.166   2.876  17.357  0.00  0.00    +0.000 A 
ATOM     13  C   UNL     1      50.817   1.640  17.268  0.00  0.00    +0.000 A 
BRANCH   8  14
ATOM     14  N   UNL     1      52.839   0.307  17.443  0.00  0.00    +0.000 N 
ATOM     15  H   UNL     1      53.023   0.125  16.462  0.00  0.00    +0.000 HD
ATOM     16  H   UNL     1      53.664   0.194  18.021  0.00  0.00    +0.000 HD
ENDBRANCH   8  14
ENDBRANCH   7  11
ENDBRANCH   1   7
BRANCH   4  17
ATOM     17  C   UNL     1      48.339   7.483  13.081  0.00  0.00    +0.000 C 
BRANCH  17  18
ATOM     18  N   UNL     1      47.550   6.531  12.344  0.00  0.00    +0.000 N 
ATOM     19  C   UNL     1      46.355   6.850  11.754  0.00  0.00    +0.000 C 
ATOM     20  O   UNL     1      45.889   7.985  11.786  0.00  0.00    +0.000 OA
ATOM     21  H   UNL     1      47.790   5.555  12.468  0.00  0.00    +0.000 HD
BRANCH  19  22
ATOM     22  C   UNL     1      45.702   5.769  11.006  0.00  0.00    +0.000 A 
ATOM     23  C   UNL     1      45.852   5.698   9.627  0.00  0.00    +0.000 A 
ATOM     24  S   UNL     1      45.096   4.339   8.926  0.00  0.00    +0.000 S 
ATOM     25  C   UNL     1      44.497   3.825  10.433  0.00  0.00    +0.000 A 
ATOM     26  N   UNL     1      43.740   2.700  10.540  0.00  0.00    +0.000 NA
ATOM     27  C   UNL     1      43.315   2.452  11.734  0.00  0.00    +0.000 A 
ATOM     28  N   UNL     1      43.583   3.225  12.833  0.00  0.00    +0.000 N 
ATOM     29  C   UNL     1      44.398   4.330  12.787  0.00  0.00    +0.000 A 
ATOM     30  O   UNL     1      44.714   4.932  13.807  0.00  0.00    +0.000 OA
ATOM     31  C   UNL     1      44.877   4.672  11.459  0.00  0.00    +0.000 A 
ATOM     32  H   UNL     1      43.236   2.966  13.745  0.00  0.00    +0.000 HD
ENDBRANCH  19  22
ENDBRANCH  17  18
ENDBRANCH   4  17
TORSDOF 6
ENDMDL
MODEL 8
REMARK VINA RESULT:    -7.358      3.869      6.085
REMARK INTER + INTRA:         -10.278
REMARK INTER:                  -9.369
REMARK INTRA:                  -0.909
REMARK UNBOUND:                -0.554
REMARK  Name = 
REMARK  6 active torsions:
REMARK  status: ('A' for Active; 'I' for Inactive)
REMARK    1  A    between atoms: N_1  and  C_2
REMARK    2  A    between atoms: C_5  and  O_6
REMARK    3  A    between atoms: O_6  and  C_7
REMARK    4  A    between atoms: C_10  and  C_11
REMARK    5  A    between atoms: C_11  and  N_12
REMARK    6  A    between atoms: C_13  and  C_15
REMARK                            x       y       z     vdW  Elec       q    Type
REMARK                         _______ _______ _______ _____ _____    ______ ____
ROOT
ATOM      1  C   UNL     1      46.968   4.230  14.499  0.00  0.00    +0.000 A 
ATOM      2  C   UNL     1      47.540   5.481  14.315  0.00  0.00    +0.000 A 
ATOM      3  C   UNL     1      48.276   6.031  15.361  0.00  0.00    +0.000 A 
ATOM      4  C   UNL     1      48.416   5.322  16.556  0.00  0.00    +0.000 A 
ATOM      5  C   UNL     1      47.842   4.058  16.622  0.00  0.00    +0.000 A 
ATOM      6  N   UNL     1      47.132   3.495  15.623  0.00  0.00    +0.000 NA
ENDROOT
BRANCH   1   7
ATOM      7  O   UNL     1      46.228   3.724  13.438  0.00  0.00    +0.000 OA
BRANCH   7  11
ATOM      8  C   UNL     1      43.366   6.140  11.563  0.00  0.00    +0.000 A 
ATOM      9  C   UNL     1      44.696   6.204  11.147  0.00  0.00    +0.000 A 
ATOM     10  C   UNL     1      45.668   5.387  11.735  0.00  0.00    +0.000 A 
ATOM     11  C   UNL     1      45.332   4.561  12.810  0.00  0.00    +0.000 A 
ATOM     12  C   UNL     1      44.011   4.513  13.250  0.00  0.00    +0.000 A 
ATOM     13  C   UNL     1      43.039   5.318  12.645  0.00  0.00    +0.000 A 
BRANCH   8  14
ATOM     14  N   UNL     1      42.430   7.051  11.057  0.00  0.00    +0.000 N 
ATOM     15  H   UNL     1      41.477   6.859  11.349  0.00  0.00    +0.000 HD
ATOM     16  H   UNL     1      42.689   8.022  11.192  0.00  0.00    +0.000 HD
ENDBRANCH   8  14
ENDBRANCH   7  11
ENDBRANCH   1   7
BRANCH   4  17
ATOM     17  C   UNL     1      49.189   5.874  17.714  0.00  0.00    +0.000 C 
BRANCH  17  18
ATOM     18  N   UNL     1      50.269   4.997  18.084  0.00  0.00    +0.000 N 
ATOM     19  C   UNL     1      51.519   5.078  17.529  0.00  0.00    +0.000 C 
ATOM     20  O   UNL     1      51.815   5.931  16.697  0.00  0.00    +0.000 OA
ATOM     21  H   UNL     1      50.016   4.164  18.603  0.00  0.00    +0.000 HD
BRANCH  19  22
ATOM     22  C   UNL     1      52.514   4.133  18.053  0.00  0.00    +0.000 A 
ATOM     23  C   UNL     1      53.618   4.610  18.747  0.00  0.00    +0.000 A 
ATOM     24  S   UNL     1      54.630   3.379  19.353  0.00  0.00    +0.000 S 
ATOM     25  C   UNL     1      53.657   2.164  18.664  0.00  0.00    +0.000 A 
ATOM     26  N   UNL     1      53.975   0.849  18.804  0.00  0.00    +0.000 NA
ATOM     27  C   UNL     1      53.176   0.038  18.193  0.00  0.00    +0.000 A 
ATOM     28  N   UNL     1      52.084   0.423  17.460  0.00  0.00    +0.000 N 
ATOM     29  C   UNL     1      51.686   1.733  17.349  0.00  0.00    +0.000 A 
ATOM     30  O   UNL     1      50.639   2.035  16.785  0.00  0.00    +0.000 OA
ATOM     31  C   UNL     1      52.569   2.690  17.990  0.00  0.00    +0.000 A 
ATOM     32  H   UNL     1      51.487  -0.262  17.022  0.00  0.00    +0.000 HD
ENDBRANCH  19  22
ENDBRANCH  17  18
ENDBRANCH   4  17
TORSDOF 6
ENDMDL
MODEL 9
REMARK VINA RESULT:    -7.292      1.989      2.638
REMARK INTER + INTRA:         -10.191
REMARK INTER:                  -9.122
REMARK INTRA:                  -1.069
REMARK UNBOUND:                -0.554
REMARK  Name = 
REMARK  6 active torsions:
REMARK  status: ('A' for Active; 'I' for Inactive)
REMARK    1  A    between atoms: N_1  and  C_2
REMARK    2  A    between atoms: C_5  and  O_6
REMARK    3  A    between atoms: O_6  and  C_7
REMARK    4  A    between atoms: C_10  and  C_11
REMARK    5  A    between atoms: C_11  and  N_12
REMARK    6  A    between atoms: C_13  and  C_15
REMARK                            x       y       z     vdW  Elec       q    Type
REMARK                         _______ _______ _______ _____ _____    ______ ____
ROOT
ATOM      1  C   UNL     1      44.846   5.734  11.292  0.00  0.00    +0.000 A 
ATOM      2  C   UNL     1      45.895   5.336  12.110  0.00  0.00    +0.000 A 
ATOM      3  C   UNL     1      46.603   6.316  12.799  0.00  0.00    +0.000 A 
ATOM      4  C   UNL     1      46.249   7.659  12.650  0.00  0.00    +0.000 A 
ATOM      5  C   UNL     1      45.155   7.947  11.843  0.00  0.00    +0.000 A 
ATOM      6  N   UNL     1      44.444   7.020  11.170  0.00  0.00    +0.000 NA
ENDROOT
BRANCH   1   7
ATOM      7  O   UNL     1      44.177   4.727  10.609  0.00  0.00    +0.000 OA
BRANCH   7  11
ATOM      8  C   UNL     1      46.289   2.462   7.790  0.00  0.00    +0.000 A 
ATOM      9  C   UNL     1      46.298   3.854   7.697  0.00  0.00    +0.000 A 
ATOM     10  C   UNL     1      45.626   4.637   8.642  0.00  0.00    +0.000 A 
ATOM     11  C   UNL     1      44.862   4.028   9.640  0.00  0.00    +0.000 A 
ATOM     12  C   UNL     1      44.824   2.638   9.722  0.00  0.00    +0.000 A 
ATOM     13  C   UNL     1      45.514   1.860   8.785  0.00  0.00    +0.000 A 
BRANCH   8  14
ATOM     14  N   UNL     1      46.855   1.688   6.769  0.00  0.00    +0.000 N 
ATOM     15  H   UNL     1      46.416   1.824   5.864  0.00  0.00    +0.000 HD
ATOM     16  H   UNL     1      47.867   1.748   6.723  0.00  0.00    +0.000 HD
ENDBRANCH   8  14
ENDBRANCH   7  11
ENDBRANCH   1   7
BRANCH   4  17
ATOM     17  C   UNL     1      46.985   8.752  13.362  0.00  0.00    +0.000 C 
BRANCH  17  18
ATOM     18  N   UNL     1      47.341   8.355  14.699  0.00  0.00    +0.000 N 
ATOM     19  C   UNL     1      48.292   9.004  15.442  0.00  0.00    +0.000 C 
ATOM     20  O   UNL     1      48.887   9.995  15.027  0.00  0.00    +0.000 OA
ATOM     21  H   UNL     1      47.031   7.437  14.995  0.00  0.00    +0.000 HD
BRANCH  19  22
ATOM     22  C   UNL     1      48.500   8.493  16.803  0.00  0.00    +0.000 A 
ATOM     23  C   UNL     1      48.393   9.355  17.886  0.00  0.00    +0.000 A 
ATOM     24  S   UNL     1      48.585   8.585  19.395  0.00  0.00    +0.000 S 
ATOM     25  C   UNL     1      48.871   7.080  18.654  0.00  0.00    +0.000 A 
ATOM     26  N   UNL     1      49.122   5.970  19.397  0.00  0.00    +0.000 NA
ATOM     27  C   UNL     1      49.366   4.907  18.705  0.00  0.00    +0.000 A 
ATOM     28  N   UNL     1      49.376   4.853  17.336  0.00  0.00    +0.000 N 
ATOM     29  C   UNL     1      49.061   5.931  16.545  0.00  0.00    +0.000 A 
ATOM     30  O   UNL     1      48.963   5.822  15.327  0.00  0.00    +0.000 OA
ATOM     31  C   UNL     1      48.811   7.162  17.274  0.00  0.00    +0.000 A 
ATOM     32  H   UNL     1      49.555   3.985  16.853  0.00  0.00    +0.000 HD
ENDBRANCH  19  22
ENDBRANCH  17  18
ENDBRANCH   4  17
TORSDOF 6
ENDMDL
