MODEL 1
REMARK VINA RESULT:    -7.847      0.000      0.000
REMARK INTER + INTRA:         -12.112
REMARK INTER:                 -11.059
REMARK INTRA:                  -1.053
REMARK UNBOUND:                -1.053
REMARK  Name = 
REMARK  9 active torsions:
REMARK  status: ('A' for Active; 'I' for Inactive)
REMARK    1  A    between atoms: C_1  and  C_2
REMARK    2  A    between atoms: C_6  and  C_7
REMARK    3  A    between atoms: C_7  and  O_8
REMARK    4  A    between atoms: O_8  and  C_9
REMARK    5  A    between atoms: C_9  and  C_10
REMARK    6  A    between atoms: C_13  and  C_14
REMARK    7  A    between atoms: C_14  and  N_15
REMARK    8  A    between atoms: N_15  and  C_16
REMARK    9  A    between atoms: C_17  and  C_19
REMARK                            x       y       z     vdW  Elec       q    Type
REMARK                         _______ _______ _______ _____ _____    ______ ____
ROOT
ATOM      1  C   UNL     1      44.697   4.031  12.759  0.00  0.00    +0.000 A 
ATOM      2  C   UNL     1      44.608   5.418  12.779  0.00  0.00    +0.000 A 
ATOM      3  N   UNL     1      45.619   6.228  13.180  0.00  0.00    +0.000 NA
ATOM      4  C   UNL     1      46.767   5.601  13.547  0.00  0.00    +0.000 A 
ATOM      5  C   UNL     1      46.853   4.209  13.549  0.00  0.00    +0.000 A 
ATOM      6  N   UNL     1      45.824   3.399  13.179  0.00  0.00    +0.000 NA
ENDROOT
BRANCH   1   7
ATOM      7  C   UNL     1      43.543   3.216  12.226  0.00  0.00    +0.000 C 
BRANCH   7   8
ATOM      8  O   UNL     1      43.904   2.686  10.948  0.00  0.00    +0.000 OA
BRANCH   8   9
ATOM      9  C   UNL     1      44.025   3.696   9.949  0.00  0.00    +0.000 C 
BRANCH   9  15
ATOM     10  C   UNL     1      46.762   0.116   7.698  0.00  0.00    +0.000 C 
ATOM     11  C   UNL     1      46.423   1.570   7.856  0.00  0.00    +0.000 A 
ATOM     12  C   UNL     1      47.078   2.548   7.102  0.00  0.00    +0.000 A 
ATOM     13  C   UNL     1      46.749   3.894   7.264  0.00  0.00    +0.000 A 
ATOM     14  C   UNL     1      45.763   4.274   8.177  0.00  0.00    +0.000 A 
ATOM     15  C   UNL     1      45.079   3.310   8.932  0.00  0.00    +0.000 A 
ATOM     16  C   UNL     1      45.432   1.961   8.771  0.00  0.00    +0.000 A 
ENDBRANCH   9  15
ENDBRANCH   8   9
ENDBRANCH   7   8
ENDBRANCH   1   7
BRANCH   4  17
ATOM     17  C   UNL     1      47.958   6.468  13.891  0.00  0.00    +0.000 C 
BRANCH  17  18
ATOM     18  N   UNL     1      48.081   7.647  13.038  0.00  0.00    +0.000 N 
ATOM     19  C   UNL     1      48.471   7.428  11.652  0.00  0.00    +0.000 C 
ATOM     20  C   UNL     1      47.930   8.906  13.627  0.00  0.00    +0.000 C 
ATOM     21  O   UNL     1      47.685   9.005  14.832  0.00  0.00    +0.000 OA
BRANCH  20  22
ATOM     22  C   UNL     1      48.011  10.110  12.792  0.00  0.00    +0.000 A 
ATOM     23  C   UNL     1      49.170  10.836  12.566  0.00  0.00    +0.000 A 
ATOM     24  S   UNL     1      48.972  12.154  11.502  0.00  0.00    +0.000 S 
ATOM     25  C   UNL     1      47.364  11.712  11.188  0.00  0.00    +0.000 A 
ATOM     26  N   UNL     1      46.644  12.361  10.241  0.00  0.00    +0.000 NA
ATOM     27  C   UNL     1      45.460  11.876  10.059  0.00  0.00    +0.000 A 
ATOM     28  N   UNL     1      44.920  10.839  10.777  0.00  0.00    +0.000 N 
ATOM     29  C   UNL     1      45.564  10.238  11.841  0.00  0.00    +0.000 A 
ATOM     30  O   UNL     1      44.970   9.485  12.598  0.00  0.00    +0.000 OA
ATOM     31  C   UNL     1      46.950  10.653  11.978  0.00  0.00    +0.000 A 
ATOM     32  H   UNL     1      43.962  10.560  10.633  0.00  0.00    +0.000 HD
ENDBRANCH  20  22
ENDBRANCH  17  18
ENDBRANCH   4  17
TORSDOF 7
ENDMDL
MODEL 2
REMARK VINA RESULT:    -7.579      3.801      5.513
REMARK INTER + INTRA:         -11.734
REMARK INTER:                 -10.680
REMARK INTRA:                  -1.054
REMARK UNBOUND:                -1.053
REMARK  Name = 
REMARK  9 active torsions:
REMARK  status: ('A' for Active; 'I' for Inactive)
REMARK    1  A    between atoms: C_1  and  C_2
REMARK    2  A    between atoms: C_6  and  C_7
REMARK    3  A    between atoms: C_7  and  O_8
REMARK    4  A    between atoms: O_8  and  C_9
REMARK    5  A    between atoms: C_9  and  C_10
REMARK    6  A    between atoms: C_13  and  C_14
REMARK    7  A    between atoms: C_14  and  N_15
REMARK    8  A    between atoms: N_15  and  C_16
REMARK    9  A    between atoms: C_17  and  C_19
REMARK                            x       y       z     vdW  Elec       q    Type
REMARK                         _______ _______ _______ _____ _____    ______ ____
ROOT
ATOM      1  C   UNL     1      45.626   4.898  12.821  0.00  0.00    +0.000 A 
ATOM      2  C   UNL     1      46.601   4.398  13.678  0.00  0.00    +0.000 A 
ATOM      3  N   UNL     1      47.722   5.082  14.017  0.00  0.00    +0.000 NA
ATOM      4  C   UNL     1      47.838   6.326  13.484  0.00  0.00    +0.000 A 
ATOM      5  C   UNL     1      46.873   6.822  12.607  0.00  0.00    +0.000 A 
ATOM      6  N   UNL     1      45.767   6.119  12.242  0.00  0.00    +0.000 NA
ENDROOT
BRANCH   1   7
ATOM      7  C   UNL     1      44.376   4.092  12.562  0.00  0.00    +0.000 C 
BRANCH   7   8
ATOM      8  O   UNL     1      44.007   4.243  11.188  0.00  0.00    +0.000 OA
BRANCH   8   9
ATOM      9  C   UNL     1      43.967   3.002  10.489  0.00  0.00    +0.000 C 
BRANCH   9  15
ATOM     10  C   UNL     1      47.005   0.487   7.356  0.00  0.00    +0.000 C 
ATOM     11  C   UNL     1      46.431   1.794   7.821  0.00  0.00    +0.000 A 
ATOM     12  C   UNL     1      46.800   2.999   7.215  0.00  0.00    +0.000 A 
ATOM     13  C   UNL     1      46.256   4.203   7.663  0.00  0.00    +0.000 A 
ATOM     14  C   UNL     1      45.338   4.214   8.716  0.00  0.00    +0.000 A 
ATOM     15  C   UNL     1      44.939   3.017   9.328  0.00  0.00    +0.000 A 
ATOM     16  C   UNL     1      45.507   1.814   8.878  0.00  0.00    +0.000 A 
ENDBRANCH   9  15
ENDBRANCH   8   9
ENDBRANCH   7   8
ENDBRANCH   1   7
BRANCH   4  17
ATOM     17  C   UNL     1      49.014   7.168  13.925  0.00  0.00    +0.000 C 
BRANCH  17  18
ATOM     18  N   UNL     1      48.923   7.606  15.316  0.00  0.00    +0.000 N 
ATOM     19  C   UNL     1      48.104   8.779  15.592  0.00  0.00    +0.000 C 
ATOM     20  C   UNL     1      49.709   6.949  16.267  0.00  0.00    +0.000 C 
ATOM     21  O   UNL     1      50.445   6.017  15.932  0.00  0.00    +0.000 OA
BRANCH  20  22
ATOM     22  C   UNL     1      49.616   7.339  17.678  0.00  0.00    +0.000 A 
ATOM     23  C   UNL     1      50.271   8.423  18.242  0.00  0.00    +0.000 A 
ATOM     24  S   UNL     1      49.923   8.667  19.893  0.00  0.00    +0.000 S 
ATOM     25  C   UNL     1      48.767   7.424  19.876  0.00  0.00    +0.000 A 
ATOM     26  N   UNL     1      47.987   7.194  20.960  0.00  0.00    +0.000 NA
ATOM     27  C   UNL     1      47.106   6.265  20.783  0.00  0.00    +0.000 A 
ATOM     28  N   UNL     1      46.976   5.516  19.642  0.00  0.00    +0.000 N 
ATOM     29  C   UNL     1      47.835   5.621  18.565  0.00  0.00    +0.000 A 
ATOM     30  O   UNL     1      47.836   4.788  17.671  0.00  0.00    +0.000 OA
ATOM     31  C   UNL     1      48.741   6.753  18.665  0.00  0.00    +0.000 A 
ATOM     32  H   UNL     1      46.315   4.756  19.600  0.00  0.00    +0.000 HD
ENDBRANCH  20  22
ENDBRANCH  17  18
ENDBRANCH   4  17
TORSDOF 7
ENDMDL
MODEL 3
REMARK VINA RESULT:    -7.446      2.951      4.970
REMARK INTER + INTRA:         -11.546
REMARK INTER:                 -10.531
REMARK INTRA:                  -1.014
REMARK UNBOUND:                -1.053
REMARK  Name = 
REMARK  9 active torsions:
REMARK  status: ('A' for Active; 'I' for Inactive)
REMARK    1  A    between atoms: C_1  and  C_2
REMARK    2  A    between atoms: C_6  and  C_7
REMARK    3  A    between atoms: C_7  and  O_8
REMARK    4  A    between atoms: O_8  and  C_9
REMARK    5  A    between atoms: C_9  and  C_10
REMARK    6  A    between atoms: C_13  and  C_14
REMARK    7  A    between atoms: C_14  and  N_15
REMARK    8  A    between atoms: N_15  and  C_16
REMARK    9  A    between atoms: C_17  and  C_19
REMARK                            x       y       z     vdW  Elec       q    Type
REMARK                         _______ _______ _______ _____ _____    ______ ____
ROOT
ATOM      1  C   UNL     1      44.088   5.614  12.077  0.00  0.00    +0.000 A 
ATOM      2  C   UNL     1      44.973   5.369  13.121  0.00  0.00    +0.000 A 
ATOM      3  N   UNL     1      45.954   6.231  13.488  0.00  0.00    +0.000 NA
ATOM      4  C   UNL     1      46.017   7.389  12.781  0.00  0.00    +0.000 A 
ATOM      5  C   UNL     1      45.145   7.627  11.719  0.00  0.00    +0.000 A 
ATOM      6  N   UNL     1      44.184   6.745  11.332  0.00  0.00    +0.000 NA
ENDROOT
BRANCH   1   7
ATOM      7  C   UNL     1      42.981   4.627  11.791  0.00  0.00    +0.000 C 
BRANCH   7   8
ATOM      8  O   UNL     1      43.179   4.079  10.485  0.00  0.00    +0.000 OA
BRANCH   8   9
ATOM      9  C   UNL     1      44.046   2.948  10.489  0.00  0.00    +0.000 C 
BRANCH   9  15
ATOM     10  C   UNL     1      47.069   0.558   7.246  0.00  0.00    +0.000 C 
ATOM     11  C   UNL     1      46.482   1.843   7.751  0.00  0.00    +0.000 A 
ATOM     12  C   UNL     1      46.820   3.068   7.167  0.00  0.00    +0.000 A 
ATOM     13  C   UNL     1      46.264   4.252   7.652  0.00  0.00    +0.000 A 
ATOM     14  C   UNL     1      45.366   4.223   8.721  0.00  0.00    +0.000 A 
ATOM     15  C   UNL     1      44.997   3.006   9.311  0.00  0.00    +0.000 A 
ATOM     16  C   UNL     1      45.577   1.824   8.824  0.00  0.00    +0.000 A 
ENDBRANCH   9  15
ENDBRANCH   8   9
ENDBRANCH   7   8
ENDBRANCH   1   7
BRANCH   4  17
ATOM     17  C   UNL     1      47.021   8.428  13.230  0.00  0.00    +0.000 C 
BRANCH  17  18
ATOM     18  N   UNL     1      48.289   7.854  13.672  0.00  0.00    +0.000 N 
ATOM     19  C   UNL     1      48.956   6.932  12.762  0.00  0.00    +0.000 C 
ATOM     20  C   UNL     1      48.721   8.131  14.972  0.00  0.00    +0.000 C 
ATOM     21  O   UNL     1      48.049   8.855  15.712  0.00  0.00    +0.000 OA
BRANCH  20  22
ATOM     22  C   UNL     1      50.007   7.600  15.436  0.00  0.00    +0.000 A 
ATOM     23  C   UNL     1      51.219   8.267  15.336  0.00  0.00    +0.000 A 
ATOM     24  S   UNL     1      52.537   7.427  16.018  0.00  0.00    +0.000 S 
ATOM     25  C   UNL     1      51.510   6.209  16.605  0.00  0.00    +0.000 A 
ATOM     26  N   UNL     1      51.992   5.232  17.411  0.00  0.00    +0.000 NA
ATOM     27  C   UNL     1      51.088   4.414  17.840  0.00  0.00    +0.000 A 
ATOM     28  N   UNL     1      49.762   4.458  17.490  0.00  0.00    +0.000 N 
ATOM     29  C   UNL     1      49.252   5.350  16.567  0.00  0.00    +0.000 A 
ATOM     30  O   UNL     1      48.128   5.214  16.108  0.00  0.00    +0.000 OA
ATOM     31  C   UNL     1      50.204   6.378  16.179  0.00  0.00    +0.000 A 
ATOM     32  H   UNL     1      49.125   3.742  17.803  0.00  0.00    +0.000 HD
ENDBRANCH  20  22
ENDBRANCH  17  18
ENDBRANCH   4  17
TORSDOF 7
ENDMDL
MODEL 4
REMARK VINA RESULT:    -7.066      5.415      7.848
REMARK INTER + INTRA:         -11.011
REMARK INTER:                 -10.154
REMARK INTRA:                  -0.857
REMARK UNBOUND:                -1.053
REMARK  Name = 
REMARK  9 active torsions:
REMARK  status: ('A' for Active; 'I' for Inactive)
REMARK    1  A    between atoms: C_1  and  C_2
REMARK    2  A    between atoms: C_6  and  C_7
REMARK    3  A    between atoms: C_7  and  O_8
REMARK    4  A    between atoms: O_8  and  C_9
REMARK    5  A    between atoms: C_9  and  C_10
REMARK    6  A    between atoms: C_13  and  C_14
REMARK    7  A    between atoms: C_14  and  N_15
REMARK    8  A    between atoms: N_15  and  C_16
REMARK    9  A    between atoms: C_17  and  C_19
REMARK                            x       y       z     vdW  Elec       q    Type
REMARK                         _______ _______ _______ _____ _____    ______ ____
ROOT
ATOM      1  C   UNL     1      47.087   5.180  14.034  0.00  0.00    +0.000 A 
ATOM      2  C   UNL     1      47.769   6.392  14.025  0.00  0.00    +0.000 A 
ATOM      3  N   UNL     1      48.430   6.887  15.102  0.00  0.00    +0.000 NA
ATOM      4  C   UNL     1      48.414   6.107  16.214  0.00  0.00    +0.000 A 
ATOM      5  C   UNL     1      47.713   4.901  16.232  0.00  0.00    +0.000 A 
ATOM      6  N   UNL     1      47.022   4.425  15.161  0.00  0.00    +0.000 NA
ENDROOT
BRANCH   1   7
ATOM      7  C   UNL     1      46.443   4.677  12.764  0.00  0.00    +0.000 C 
BRANCH   7   8
ATOM      8  O   UNL     1      46.275   5.778  11.866  0.00  0.00    +0.000 OA
BRANCH   8   9
ATOM      9  C   UNL     1      45.045   5.718  11.148  0.00  0.00    +0.000 C 
BRANCH   9  15
ATOM     10  C   UNL     1      46.462   3.694   6.758  0.00  0.00    +0.000 C 
ATOM     11  C   UNL     1      45.715   3.567   8.054  0.00  0.00    +0.000 A 
ATOM     12  C   UNL     1      45.015   2.398   8.370  0.00  0.00    +0.000 A 
ATOM     13  C   UNL     1      44.327   2.299   9.580  0.00  0.00    +0.000 A 
ATOM     14  C   UNL     1      44.333   3.364  10.484  0.00  0.00    +0.000 A 
ATOM     15  C   UNL     1      45.044   4.539  10.198  0.00  0.00    +0.000 A 
ATOM     16  C   UNL     1      45.718   4.631   8.970  0.00  0.00    +0.000 A 
ENDBRANCH   9  15
ENDBRANCH   8   9
ENDBRANCH   7   8
ENDBRANCH   1   7
BRANCH   4  17
ATOM     17  C   UNL     1      49.233   6.565  17.400  0.00  0.00    +0.000 C 
BRANCH  17  18
ATOM     18  N   UNL     1      50.489   5.836  17.552  0.00  0.00    +0.000 N 
ATOM     19  C   UNL     1      51.549   6.130  16.597  0.00  0.00    +0.000 C 
ATOM     20  C   UNL     1      50.555   4.831  18.522  0.00  0.00    +0.000 C 
ATOM     21  O   UNL     1      49.578   4.585  19.233  0.00  0.00    +0.000 OA
BRANCH  20  22
ATOM     22  C   UNL     1      51.813   4.104  18.726  0.00  0.00    +0.000 A 
ATOM     23  C   UNL     1      52.847   4.529  19.546  0.00  0.00    +0.000 A 
ATOM     24  S   UNL     1      54.160   3.445  19.634  0.00  0.00    +0.000 S 
ATOM     25  C   UNL     1      53.330   2.299  18.696  0.00  0.00    +0.000 A 
ATOM     26  N   UNL     1      53.849   1.062  18.502  0.00  0.00    +0.000 NA
ATOM     27  C   UNL     1      53.080   0.271  17.829  0.00  0.00    +0.000 A 
ATOM     28  N   UNL     1      51.869   0.626  17.291  0.00  0.00    +0.000 N 
ATOM     29  C   UNL     1      51.364   1.911  17.347  0.00  0.00    +0.000 A 
ATOM     30  O   UNL     1      50.405   2.245  16.666  0.00  0.00    +0.000 OA
ATOM     31  C   UNL     1      52.125   2.788  18.221  0.00  0.00    +0.000 A 
ATOM     32  H   UNL     1      51.355  -0.020  16.713  0.00  0.00    +0.000 HD
ENDBRANCH  20  22
ENDBRANCH  17  18
ENDBRANCH   4  17
TORSDOF 7
ENDMDL
MODEL 5
REMARK VINA RESULT:    -6.635      4.304      6.062
REMARK INTER + INTRA:         -10.403
REMARK INTER:                  -9.478
REMARK INTRA:                  -0.925
REMARK UNBOUND:                -1.053
REMARK  Name = 
REMARK  9 active torsions:
REMARK  status: ('A' for Active; 'I' for Inactive)
REMARK    1  A    between atoms: C_1  and  C_2
REMARK    2  A    between atoms: C_6  and  C_7
REMARK    3  A    between atoms: C_7  and  O_8
REMARK    4  A    between atoms: O_8  and  C_9
REMARK    5  A    between atoms: C_9  and  C_10
REMARK    6  A    between atoms: C_13  and  C_14
REMARK    7  A    between atoms: C_14  and  N_15
REMARK    8  A    between atoms: N_15  and  C_16
REMARK    9  A    between atoms: C_17  and  C_19
REMARK                            x       y       z     vdW  Elec       q    Type
REMARK                         _______ _______ _______ _____ _____    ______ ____
ROOT
ATOM      1  C   UNL     1      45.681   6.144  12.250  0.00  0.00    +0.000 A 
ATOM      2  C   UNL     1      45.859   7.516  12.395  0.00  0.00    +0.000 A 
ATOM      3  N   UNL     1      46.849   8.067  13.141  0.00  0.00    +0.000 NA
ATOM      4  C   UNL     1      47.697   7.189  13.737  0.00  0.00    +0.000 A 
ATOM      5  C   UNL     1      47.507   5.813  13.612  0.00  0.00    +0.000 A 
ATOM      6  N   UNL     1      46.492   5.264  12.891  0.00  0.00    +0.000 NA
ENDROOT
BRANCH   1   7
ATOM      7  C   UNL     1      44.595   5.626  11.338  0.00  0.00    +0.000 C 
BRANCH   7   8
ATOM      8  O   UNL     1      44.811   4.231  11.110  0.00  0.00    +0.000 OA
BRANCH   8   9
ATOM      9  C   UNL     1      44.148   3.755   9.941  0.00  0.00    +0.000 C 
BRANCH   9  15
ATOM     10  C   UNL     1      46.709   0.046   7.692  0.00  0.00    +0.000 C 
ATOM     11  C   UNL     1      46.418   1.512   7.827  0.00  0.00    +0.000 A 
ATOM     12  C   UNL     1      47.078   2.454   7.031  0.00  0.00    +0.000 A 
ATOM     13  C   UNL     1      46.794   3.813   7.172  0.00  0.00    +0.000 A 
ATOM     14  C   UNL     1      45.848   4.242   8.106  0.00  0.00    +0.000 A 
ATOM     15  C   UNL     1      45.159   3.316   8.902  0.00  0.00    +0.000 A 
ATOM     16  C   UNL     1      45.467   1.953   8.762  0.00  0.00    +0.000 A 
ENDBRANCH   9  15
ENDBRANCH   8   9
ENDBRANCH   7   8
ENDBRANCH   1   7
BRANCH   4  17
ATOM     17  C   UNL     1      48.882   7.760  14.484  0.00  0.00    +0.000 C 
BRANCH  17  18
ATOM     18  N   UNL     1      48.650   7.895  15.920  0.00  0.00    +0.000 N 
ATOM     19  C   UNL     1      48.081   9.152  16.387  0.00  0.00    +0.000 C 
ATOM     20  C   UNL     1      49.090   6.867  16.759  0.00  0.00    +0.000 C 
ATOM     21  O   UNL     1      49.644   5.871  16.286  0.00  0.00    +0.000 OA
BRANCH  20  22
ATOM     22  C   UNL     1      48.841   6.953  18.202  0.00  0.00    +0.000 A 
ATOM     23  C   UNL     1      47.746   6.401  18.849  0.00  0.00    +0.000 A 
ATOM     24  S   UNL     1      47.756   6.610  20.541  0.00  0.00    +0.000 S 
ATOM     25  C   UNL     1      49.299   7.315  20.486  0.00  0.00    +0.000 A 
ATOM     26  N   UNL     1      49.962   7.612  21.631  0.00  0.00    +0.000 NA
ATOM     27  C   UNL     1      51.152   8.078  21.441  0.00  0.00    +0.000 A 
ATOM     28  N   UNL     1      51.711   8.323  20.213  0.00  0.00    +0.000 N 
ATOM     29  C   UNL     1      51.024   8.165  19.024  0.00  0.00    +0.000 A 
ATOM     30  O   UNL     1      51.466   8.607  17.974  0.00  0.00    +0.000 OA
ATOM     31  C   UNL     1      49.742   7.502  19.188  0.00  0.00    +0.000 A 
ATOM     32  H   UNL     1      52.617   8.758  20.139  0.00  0.00    +0.000 HD
ENDBRANCH  20  22
ENDBRANCH  17  18
ENDBRANCH   4  17
TORSDOF 7
ENDMDL
MODEL 6
REMARK VINA RESULT:    -6.578      3.652      5.731
REMARK INTER + INTRA:         -10.324
REMARK INTER:                 -10.526
REMARK INTRA:                   0.202
REMARK UNBOUND:                -1.053
REMARK  Name = 
REMARK  9 active torsions:
REMARK  status: ('A' for Active; 'I' for Inactive)
REMARK    1  A    between atoms: C_1  and  C_2
REMARK    2  A    between atoms: C_6  and  C_7
REMARK    3  A    between atoms: C_7  and  O_8
REMARK    4  A    between atoms: O_8  and  C_9
REMARK    5  A    between atoms: C_9  and  C_10
REMARK    6  A    between atoms: C_13  and  C_14
REMARK    7  A    between atoms: C_14  and  N_15
REMARK    8  A    between atoms: N_15  and  C_16
REMARK    9  A    between atoms: C_17  and  C_19
REMARK                            x       y       z     vdW  Elec       q    Type
REMARK                         _______ _______ _______ _____ _____    ______ ____
ROOT
ATOM      1  C   UNL     1      45.463   3.378   8.310  0.00  0.00    +0.000 A 
ATOM      2  C   UNL     1      45.501   4.652   8.866  0.00  0.00    +0.000 A 
ATOM      3  N   UNL     1      45.127   4.923  10.142  0.00  0.00    +0.000 NA
ATOM      4  C   UNL     1      44.725   3.855  10.879  0.00  0.00    +0.000 A 
ATOM      5  C   UNL     1      44.664   2.580  10.317  0.00  0.00    +0.000 A 
ATOM      6  N   UNL     1      45.007   2.318   9.026  0.00  0.00    +0.000 NA
ENDROOT
BRANCH   1   7
ATOM      7  C   UNL     1      45.970   3.163   6.904  0.00  0.00    +0.000 C 
BRANCH   7   8
ATOM      8  O   UNL     1      47.356   2.815   6.963  0.00  0.00    +0.000 OA
BRANCH   8   9
ATOM      9  C   UNL     1      47.575   1.409   6.877  0.00  0.00    +0.000 C 
BRANCH   9  15
ATOM     10  C   UNL     1      46.475  -2.500   3.897  0.00  0.00    +0.000 C 
ATOM     11  C   UNL     1      46.625  -1.017   4.073  0.00  0.00    +0.000 A 
ATOM     12  C   UNL     1      46.390  -0.138   3.012  0.00  0.00    +0.000 A 
ATOM     13  C   UNL     1      46.536   1.238   3.195  0.00  0.00    +0.000 A 
ATOM     14  C   UNL     1      46.914   1.747   4.440  0.00  0.00    +0.000 A 
ATOM     15  C   UNL     1      47.137   0.887   5.525  0.00  0.00    +0.000 A 
ATOM     16  C   UNL     1      47.003  -0.496   5.321  0.00  0.00    +0.000 A 
ENDBRANCH   9  15
ENDBRANCH   8   9
ENDBRANCH   7   8
ENDBRANCH   1   7
BRANCH   4  17
ATOM     17  C   UNL     1      44.408   4.093  12.338  0.00  0.00    +0.000 C 
BRANCH  17  18
ATOM     18  N   UNL     1      45.341   5.008  12.991  0.00  0.00    +0.000 N 
ATOM     19  C   UNL     1      45.012   6.427  12.961  0.00  0.00    +0.000 C 
ATOM     20  C   UNL     1      46.533   4.484  13.498  0.00  0.00    +0.000 C 
ATOM     21  O   UNL     1      46.774   3.278  13.404  0.00  0.00    +0.000 OA
BRANCH  20  22
ATOM     22  C   UNL     1      47.476   5.369  14.192  0.00  0.00    +0.000 A 
ATOM     23  C   UNL     1      48.195   6.387  13.586  0.00  0.00    +0.000 A 
ATOM     24  S   UNL     1      49.166   7.290  14.657  0.00  0.00    +0.000 S 
ATOM     25  C   UNL     1      48.546   6.448  15.994  0.00  0.00    +0.000 A 
ATOM     26  N   UNL     1      48.870   6.825  17.255  0.00  0.00    +0.000 NA
ATOM     27  C   UNL     1      48.272   6.142  18.175  0.00  0.00    +0.000 A 
ATOM     28  N   UNL     1      47.427   5.086  17.943  0.00  0.00    +0.000 N 
ATOM     29  C   UNL     1      47.177   4.581  16.682  0.00  0.00    +0.000 A 
ATOM     30  O   UNL     1      46.612   3.508  16.530  0.00  0.00    +0.000 OA
ATOM     31  C   UNL     1      47.708   5.413  15.616  0.00  0.00    +0.000 A 
ATOM     32  H   UNL     1      47.054   4.550  18.710  0.00  0.00    +0.000 HD
ENDBRANCH  20  22
ENDBRANCH  17  18
ENDBRANCH   4  17
TORSDOF 7
ENDMDL
MODEL 7
REMARK VINA RESULT:    -6.571      5.069      7.173
REMARK INTER + INTRA:         -10.313
REMARK INTER:                  -9.290
REMARK INTRA:                  -1.023
REMARK UNBOUND:                -1.053
REMARK  Name = 
REMARK  9 active torsions:
REMARK  status: ('A' for Active; 'I' for Inactive)
REMARK    1  A    between atoms: C_1  and  C_2
REMARK    2  A    between atoms: C_6  and  C_7
REMARK    3  A    between atoms: C_7  and  O_8
REMARK    4  A    between atoms: O_8  and  C_9
REMARK    5  A    between atoms: C_9  and  C_10
REMARK    6  A    between atoms: C_13  and  C_14
REMARK    7  A    between atoms: C_14  and  N_15
REMARK    8  A    between atoms: N_15  and  C_16
REMARK    9  A    between atoms: C_17  and  C_19
REMARK                            x       y       z     vdW  Elec       q    Type
REMARK                         _______ _______ _______ _____ _____    ______ ____
ROOT
ATOM      1  C   UNL     1      47.297   5.436  13.702  0.00  0.00    +0.000 A 
ATOM      2  C   UNL     1      46.947   4.151  14.104  0.00  0.00    +0.000 A 
ATOM      3  N   UNL     1      47.276   3.629  15.312  0.00  0.00    +0.000 NA
ATOM      4  C   UNL     1      47.963   4.454  16.144  0.00  0.00    +0.000 A 
ATOM      5  C   UNL     1      48.335   5.735  15.735  0.00  0.00    +0.000 A 
ATOM      6  N   UNL     1      48.032   6.243  14.509  0.00  0.00    +0.000 NA
ENDROOT
BRANCH   1   7
ATOM      7  C   UNL     1      46.821   5.955  12.366  0.00  0.00    +0.000 C 
BRANCH   7   8
ATOM      8  O   UNL     1      45.391   5.903  12.335  0.00  0.00    +0.000 OA
BRANCH   8   9
ATOM      9  C   UNL     1      44.864   6.077  11.022  0.00  0.00    +0.000 C 
BRANCH   9  15
ATOM     10  C   UNL     1      46.321   3.521   6.934  0.00  0.00    +0.000 C 
ATOM     11  C   UNL     1      45.608   3.540   8.254  0.00  0.00    +0.000 A 
ATOM     12  C   UNL     1      44.987   2.391   8.755  0.00  0.00    +0.000 A 
ATOM     13  C   UNL     1      44.329   2.430   9.984  0.00  0.00    +0.000 A 
ATOM     14  C   UNL     1      44.287   3.613  10.725  0.00  0.00    +0.000 A 
ATOM     15  C   UNL     1      44.918   4.774  10.253  0.00  0.00    +0.000 A 
ATOM     16  C   UNL     1      45.562   4.725   9.007  0.00  0.00    +0.000 A 
ENDBRANCH   9  15
ENDBRANCH   8   9
ENDBRANCH   7   8
ENDBRANCH   1   7
BRANCH   4  17
ATOM     17  C   UNL     1      48.251   3.954  17.542  0.00  0.00    +0.000 C 
BRANCH  17  18
ATOM     18  N   UNL     1      49.676   3.912  17.859  0.00  0.00    +0.000 N 
ATOM     19  C   UNL     1      50.426   2.750  17.398  0.00  0.00    +0.000 C 
ATOM     20  C   UNL     1      50.202   4.919  18.673  0.00  0.00    +0.000 C 
ATOM     21  O   UNL     1      49.475   5.822  19.095  0.00  0.00    +0.000 OA
BRANCH  20  22
ATOM     22  C   UNL     1      51.636   4.926  18.982  0.00  0.00    +0.000 A 
ATOM     23  C   UNL     1      52.200   4.383  20.125  0.00  0.00    +0.000 A 
ATOM     24  S   UNL     1      53.901   4.485  20.182  0.00  0.00    +0.000 S 
ATOM     25  C   UNL     1      53.956   5.125  18.610  0.00  0.00    +0.000 A 
ATOM     26  N   UNL     1      55.143   5.321  17.988  0.00  0.00    +0.000 NA
ATOM     27  C   UNL     1      55.034   5.747  16.773  0.00  0.00    +0.000 A 
ATOM     28  N   UNL     1      53.847   6.043  16.151  0.00  0.00    +0.000 N 
ATOM     29  C   UNL     1      52.623   5.989  16.790  0.00  0.00    +0.000 A 
ATOM     30  O   UNL     1      51.623   6.477  16.285  0.00  0.00    +0.000 OA
ATOM     31  C   UNL     1      52.691   5.373  18.104  0.00  0.00    +0.000 A 
ATOM     32  H   UNL     1      53.839   6.443  15.226  0.00  0.00    +0.000 HD
ENDBRANCH  20  22
ENDBRANCH  17  18
ENDBRANCH   4  17
TORSDOF 7
ENDMDL
MODEL 8
REMARK VINA RESULT:    -6.307      3.721      8.026
REMARK INTER + INTRA:          -9.941
REMARK INTER:                  -8.842
REMARK INTRA:                  -1.099
REMARK UNBOUND:                -1.053
REMARK  Name = 
REMARK  9 active torsions:
REMARK  status: ('A' for Active; 'I' for Inactive)
REMARK    1  A    between atoms: C_1  and  C_2
REMARK    2  A    between atoms: C_6  and  C_7
REMARK    3  A    between atoms: C_7  and  O_8
REMARK    4  A    between atoms: O_8  and  C_9
REMARK    5  A    between atoms: C_9  and  C_10
REMARK    6  A    between atoms: C_13  and  C_14
REMARK    7  A    between atoms: C_14  and  N_15
REMARK    8  A    between atoms: N_15  and  C_16
REMARK    9  A    between atoms: C_17  and  C_19
REMARK                            x       y       z     vdW  Elec       q    Type
REMARK                         _______ _______ _______ _____ _____    ______ ____
ROOT
ATOM      1  C   UNL     1      49.835   9.123  15.742  0.00  0.00    +0.000 A 
ATOM      2  C   UNL     1      48.449   9.059  15.835  0.00  0.00    +0.000 A 
ATOM      3  N   UNL     1      47.634   8.903  14.762  0.00  0.00    +0.000 NA
ATOM      4  C   UNL     1      48.255   8.785  13.560  0.00  0.00    +0.000 A 
ATOM      5  C   UNL     1      49.644   8.872  13.462  0.00  0.00    +0.000 A 
ATOM      6  N   UNL     1      50.457   9.062  14.536  0.00  0.00    +0.000 NA
ENDROOT
BRANCH   1   7
ATOM      7  C   UNL     1      50.663   9.222  17.001  0.00  0.00    +0.000 C 
BRANCH   7   8
ATOM      8  O   UNL     1      50.252   8.193  17.905  0.00  0.00    +0.000 OA
BRANCH   8   9
ATOM      9  C   UNL     1      50.993   6.987  17.738  0.00  0.00    +0.000 C 
BRANCH   9  15
ATOM     10  C   UNL     1      50.328   2.020  17.230  0.00  0.00    +0.000 C 
ATOM     11  C   UNL     1      49.744   3.377  17.493  0.00  0.00    +0.000 A 
ATOM     12  C   UNL     1      48.376   3.539  17.732  0.00  0.00    +0.000 A 
ATOM     13  C   UNL     1      47.851   4.809  17.973  0.00  0.00    +0.000 A 
ATOM     14  C   UNL     1      48.688   5.927  17.980  0.00  0.00    +0.000 A 
ATOM     15  C   UNL     1      50.067   5.789  17.763  0.00  0.00    +0.000 A 
ATOM     16  C   UNL     1      50.578   4.507  17.504  0.00  0.00    +0.000 A 
ENDBRANCH   9  15
ENDBRANCH   8   9
ENDBRANCH   7   8
ENDBRANCH   1   7
BRANCH   4  17
ATOM     17  C   UNL     1      47.392   8.497  12.352  0.00  0.00    +0.000 C 
BRANCH  17  18
ATOM     18  N   UNL     1      46.873   7.132  12.325  0.00  0.00    +0.000 N 
ATOM     19  C   UNL     1      47.770   6.069  12.760  0.00  0.00    +0.000 C 
ATOM     20  C   UNL     1      45.602   6.920  11.782  0.00  0.00    +0.000 C 
ATOM     21  O   UNL     1      44.941   7.870  11.354  0.00  0.00    +0.000 OA
BRANCH  20  22
ATOM     22  C   UNL     1      45.035   5.567  11.772  0.00  0.00    +0.000 A 
ATOM     23  C   UNL     1      44.335   4.997  12.824  0.00  0.00    +0.000 A 
ATOM     24  S   UNL     1      43.741   3.432  12.502  0.00  0.00    +0.000 S 
ATOM     25  C   UNL     1      44.270   3.519  10.891  0.00  0.00    +0.000 A 
ATOM     26  N   UNL     1      43.955   2.539  10.009  0.00  0.00    +0.000 NA
ATOM     27  C   UNL     1      44.362   2.768   8.804  0.00  0.00    +0.000 A 
ATOM     28  N   UNL     1      45.099   3.860   8.421  0.00  0.00    +0.000 N 
ATOM     29  C   UNL     1      45.559   4.813   9.309  0.00  0.00    +0.000 A 
ATOM     30  O   UNL     1      46.398   5.636   8.977  0.00  0.00    +0.000 OA
ATOM     31  C   UNL     1      44.997   4.670  10.642  0.00  0.00    +0.000 A 
ATOM     32  H   UNL     1      45.447   3.938   7.478  0.00  0.00    +0.000 HD
ENDBRANCH  20  22
ENDBRANCH  17  18
ENDBRANCH   4  17
TORSDOF 7
ENDMDL
MODEL 9
REMARK VINA RESULT:    -6.176      3.957      7.811
REMARK INTER + INTRA:          -9.757
REMARK INTER:                  -8.672
REMARK INTRA:                  -1.085
REMARK UNBOUND:                -1.053
REMARK  Name = 
REMARK  9 active torsions:
REMARK  status: ('A' for Active; 'I' for Inactive)
REMARK    1  A    between atoms: C_1  and  C_2
REMARK    2  A    between atoms: C_6  and  C_7
REMARK    3  A    between atoms: C_7  and  O_8
REMARK    4  A    between atoms: O_8  and  C_9
REMARK    5  A    between atoms: C_9  and  C_10
REMARK    6  A    between atoms: C_13  and  C_14
REMARK    7  A    between atoms: C_14  and  N_15
REMARK    8  A    between atoms: N_15  and  C_16
REMARK    9  A    between atoms: C_17  and  C_19
REMARK                            x       y       z     vdW  Elec       q    Type
REMARK                         _______ _______ _______ _____ _____    ______ ____
ROOT
ATOM      1  C   UNL     1      51.665   6.920  16.105  0.00  0.00    +0.000 A 
ATOM      2  C   UNL     1      52.186   7.916  15.287  0.00  0.00    +0.000 A 
ATOM      3  N   UNL     1      51.468   8.545  14.323  0.00  0.00    +0.000 NA
ATOM      4  C   UNL     1      50.170   8.159  14.208  0.00  0.00    +0.000 A 
ATOM      5  C   UNL     1      49.652   7.144  15.012  0.00  0.00    +0.000 A 
ATOM      6  N   UNL     1      50.385   6.492  15.955  0.00  0.00    +0.000 NA
ENDROOT
BRANCH   1   7
ATOM      7  C   UNL     1      52.522   6.331  17.201  0.00  0.00    +0.000 C 
BRANCH   7   8
ATOM      8  O   UNL     1      51.741   6.236  18.395  0.00  0.00    +0.000 OA
BRANCH   8   9
ATOM      9  C   UNL     1      51.841   4.957  19.017  0.00  0.00    +0.000 C 
BRANCH   9  15
ATOM     10  C   UNL     1      47.328   3.365  17.446  0.00  0.00    +0.000 C 
ATOM     11  C   UNL     1      48.813   3.155  17.525  0.00  0.00    +0.000 A 
ATOM     12  C   UNL     1      49.413   2.034  16.943  0.00  0.00    +0.000 A 
ATOM     13  C   UNL     1      50.795   1.856  17.028  0.00  0.00    +0.000 A 
ATOM     14  C   UNL     1      51.587   2.796  17.692  0.00  0.00    +0.000 A 
ATOM     15  C   UNL     1      51.010   3.937  18.268  0.00  0.00    +0.000 A 
ATOM     16  C   UNL     1      49.617   4.095  18.189  0.00  0.00    +0.000 A 
ENDBRANCH   9  15
ENDBRANCH   8   9
ENDBRANCH   7   8
ENDBRANCH   1   7
BRANCH   4  17
ATOM     17  C   UNL     1      49.302   8.912  13.225  0.00  0.00    +0.000 C 
BRANCH  17  18
ATOM     18  N   UNL     1      48.272   8.081  12.609  0.00  0.00    +0.000 N 
ATOM     19  C   UNL     1      48.639   7.350  11.403  0.00  0.00    +0.000 C 
ATOM     20  C   UNL     1      46.980   8.128  13.141  0.00  0.00    +0.000 C 
ATOM     21  O   UNL     1      46.733   8.845  14.115  0.00  0.00    +0.000 OA
BRANCH  20  22
ATOM     22  C   UNL     1      45.929   7.279  12.569  0.00  0.00    +0.000 A 
ATOM     23  C   UNL     1      44.977   7.708  11.658  0.00  0.00    +0.000 A 
ATOM     24  S   UNL     1      43.921   6.482  11.121  0.00  0.00    +0.000 S 
ATOM     25  C   UNL     1      44.793   5.301  11.973  0.00  0.00    +0.000 A 
ATOM     26  N   UNL     1      44.491   3.987  11.833  0.00  0.00    +0.000 NA
ATOM     27  C   UNL     1      45.279   3.197  12.484  0.00  0.00    +0.000 A 
ATOM     28  N   UNL     1      46.302   3.608  13.300  0.00  0.00    +0.000 N 
ATOM     29  C   UNL     1      46.559   4.936  13.580  0.00  0.00    +0.000 A 
ATOM     30  O   UNL     1      47.319   5.258  14.482  0.00  0.00    +0.000 OA
ATOM     31  C   UNL     1      45.795   5.854  12.753  0.00  0.00    +0.000 A 
ATOM     32  H   UNL     1      46.830   2.939  13.838  0.00  0.00    +0.000 HD
ENDBRANCH  20  22
ENDBRANCH  17  18
ENDBRANCH   4  17
TORSDOF 7
ENDMDL
