MODEL 1
REMARK VINA RESULT:    -7.257      0.000      0.000
REMARK INTER + INTRA:         -10.459
REMARK INTER:                  -9.378
REMARK INTRA:                  -1.081
REMARK UNBOUND:                -1.081
REMARK  Name = 
REMARK  5 active torsions:
REMARK  status: ('A' for Active; 'I' for Inactive)
REMARK    1  A    between atoms: C_2  and  C_5
REMARK    2  A    between atoms: C_10  and  N_11
REMARK    3  A    between atoms: N_11  and  C_12
REMARK    4  A    between atoms: C_12  and  C_13
REMARK    5  A    between atoms: C_17  and  C_18
REMARK                            x       y       z     vdW  Elec       q    Type
REMARK                         _______ _______ _______ _____ _____    ______ ____
ROOT
ATOM      1  C   UNL     1      44.326   7.032  11.542  0.00  0.00    +0.000 C 
ENDROOT
BRANCH   1   2
ATOM      2  C   UNL     1      44.190   5.539  11.303  0.00  0.00    +0.000 A 
ATOM      3  C   UNL     1      43.324   4.787  12.093  0.00  0.00    +0.000 A 
ATOM      4  C   UNL     1      43.137   3.445  11.789  0.00  0.00    +0.000 A 
ATOM      5  C   UNL     1      43.820   2.888  10.713  0.00  0.00    +0.000 A 
ATOM      6  C   UNL     1      44.682   3.685   9.961  0.00  0.00    +0.000 A 
ATOM      7  N   UNL     1      44.871   4.997  10.258  0.00  0.00    +0.000 NA
BRANCH   6   8
ATOM      8  C   UNL     1      45.444   3.171   8.809  0.00  0.00    +0.000 A 
ATOM      9  C   UNL     1      45.892   4.026   7.797  0.00  0.00    +0.000 A 
ATOM     10  N   UNL     1      46.632   3.646   6.723  0.00  0.00    +0.000 NA
ATOM     11  C   UNL     1      46.941   2.333   6.636  0.00  0.00    +0.000 A 
ATOM     12  C   UNL     1      46.534   1.392   7.566  0.00  0.00    +0.000 A 
ATOM     13 CL   UNL     1      46.956  -0.263   7.389  0.00  0.00    +0.000 Cl
ATOM     14  C   UNL     1      45.777   1.815   8.657  0.00  0.00    +0.000 A 
ENDBRANCH   6   8
ENDBRANCH   1   2
BRANCH   1  15
ATOM     15  N   UNL     1      45.061   7.370  12.767  0.00  0.00    +0.000 N 
ATOM     16  H   UNL     1      44.548   7.921  13.442  0.00  0.00    +0.000 HD
BRANCH  15  22
ATOM     17  C   UNL     1      47.281   6.398  13.165  0.00  0.00    +0.000 A 
ATOM     18  C   UNL     1      48.666   6.547  13.042  0.00  0.00    +0.000 A 
ATOM     19  N   UNL     1      49.286   7.636  12.549  0.00  0.00    +0.000 NA
ATOM     20  C   UNL     1      48.491   8.632  12.131  0.00  0.00    +0.000 A 
ATOM     21  C   UNL     1      47.104   8.580  12.199  0.00  0.00    +0.000 A 
ATOM     22  C   UNL     1      46.457   7.462  12.751  0.00  0.00    +0.000 A 
BRANCH  17  24
ATOM     23  F   UNL     1      46.683   4.104  12.828  0.00  0.00    +0.000 F 
ATOM     24  C   UNL     1      46.773   5.116  13.741  0.00  0.00    +0.000 C 
ATOM     25  F   UNL     1      45.530   5.215  14.289  0.00  0.00    +0.000 F 
ATOM     26  F   UNL     1      47.577   4.628  14.732  0.00  0.00    +0.000 F 
ENDBRANCH  17  24
ENDBRANCH  15  22
ENDBRANCH   1  15
TORSDOF 5
ENDMDL
MODEL 2
REMARK VINA RESULT:    -6.927      2.008      2.516
REMARK INTER + INTRA:         -10.032
REMARK INTER:                  -8.956
REMARK INTRA:                  -1.076
REMARK UNBOUND:                -1.081
REMARK  Name = 
REMARK  5 active torsions:
REMARK  status: ('A' for Active; 'I' for Inactive)
REMARK    1  A    between atoms: C_2  and  C_5
REMARK    2  A    between atoms: C_10  and  N_11
REMARK    3  A    between atoms: N_11  and  C_12
REMARK    4  A    between atoms: C_12  and  C_13
REMARK    5  A    between atoms: C_17  and  C_18
REMARK                            x       y       z     vdW  Elec       q    Type
REMARK                         _______ _______ _______ _____ _____    ______ ____
ROOT
ATOM      1  C   UNL     1      45.955   4.663  14.036  0.00  0.00    +0.000 C 
ENDROOT
BRANCH   1   2
ATOM      2  C   UNL     1      45.005   4.525  12.860  0.00  0.00    +0.000 A 
ATOM      3  C   UNL     1      43.680   4.931  12.989  0.00  0.00    +0.000 A 
ATOM      4  C   UNL     1      42.857   4.893  11.871  0.00  0.00    +0.000 A 
ATOM      5  C   UNL     1      43.374   4.447  10.659  0.00  0.00    +0.000 A 
ATOM      6  C   UNL     1      44.706   4.044  10.588  0.00  0.00    +0.000 A 
ATOM      7  N   UNL     1      45.513   4.076  11.681  0.00  0.00    +0.000 NA
BRANCH   6   8
ATOM      8  C   UNL     1      45.328   3.556   9.345  0.00  0.00    +0.000 A 
ATOM      9  C   UNL     1      45.658   4.434   8.307  0.00  0.00    +0.000 A 
ATOM     10  N   UNL     1      46.267   4.078   7.146  0.00  0.00    +0.000 NA
ATOM     11  C   UNL     1      46.560   2.768   6.994  0.00  0.00    +0.000 A 
ATOM     12  C   UNL     1      46.260   1.806   7.942  0.00  0.00    +0.000 A 
ATOM     13 CL   UNL     1      46.654   0.156   7.680  0.00  0.00    +0.000 Cl
ATOM     14  C   UNL     1      45.636   2.204   9.124  0.00  0.00    +0.000 A 
ENDBRANCH   6   8
ENDBRANCH   1   2
BRANCH   1  15
ATOM     15  N   UNL     1      47.300   5.117  13.661  0.00  0.00    +0.000 N 
ATOM     16  H   UNL     1      47.945   4.385  13.392  0.00  0.00    +0.000 HD
BRANCH  15  22
ATOM     17  C   UNL     1      47.590   7.554  13.579  0.00  0.00    +0.000 A 
ATOM     18  C   UNL     1      48.078   8.699  14.216  0.00  0.00    +0.000 A 
ATOM     19  N   UNL     1      48.753   8.708  15.382  0.00  0.00    +0.000 NA
ATOM     20  C   UNL     1      48.939   7.515  15.967  0.00  0.00    +0.000 A 
ATOM     21  C   UNL     1      48.485   6.320  15.424  0.00  0.00    +0.000 A 
ATOM     22  C   UNL     1      47.817   6.305  14.188  0.00  0.00    +0.000 A 
BRANCH  17  24
ATOM     23  F   UNL     1      47.091   8.955  11.702  0.00  0.00    +0.000 F 
ATOM     24  C   UNL     1      46.866   7.740  12.285  0.00  0.00    +0.000 C 
ATOM     25  F   UNL     1      45.512   7.642  12.395  0.00  0.00    +0.000 F 
ATOM     26  F   UNL     1      47.229   6.822  11.342  0.00  0.00    +0.000 F 
ENDBRANCH  17  24
ENDBRANCH  15  22
ENDBRANCH   1  15
TORSDOF 5
ENDMDL
MODEL 3
REMARK VINA RESULT:    -6.758      3.030      3.799
REMARK INTER + INTRA:          -9.814
REMARK INTER:                  -9.061
REMARK INTRA:                  -0.753
REMARK UNBOUND:                -1.081
REMARK  Name = 
REMARK  5 active torsions:
REMARK  status: ('A' for Active; 'I' for Inactive)
REMARK    1  A    between atoms: C_2  and  C_5
REMARK    2  A    between atoms: C_10  and  N_11
REMARK    3  A    between atoms: N_11  and  C_12
REMARK    4  A    between atoms: C_12  and  C_13
REMARK    5  A    between atoms: C_17  and  C_18
REMARK                            x       y       z     vdW  Elec       q    Type
REMARK                         _______ _______ _______ _____ _____    ______ ____
ROOT
ATOM      1  C   UNL     1      45.531   7.318  12.763  0.00  0.00    +0.000 C 
ENDROOT
BRANCH   1   2
ATOM      2  C   UNL     1      44.818   6.117  12.168  0.00  0.00    +0.000 A 
ATOM      3  C   UNL     1      43.584   5.723  12.676  0.00  0.00    +0.000 A 
ATOM      4  C   UNL     1      42.902   4.688  12.049  0.00  0.00    +0.000 A 
ATOM      5  C   UNL     1      43.470   4.072  10.938  0.00  0.00    +0.000 A 
ATOM      6  C   UNL     1      44.713   4.502  10.477  0.00  0.00    +0.000 A 
ATOM      7  N   UNL     1      45.385   5.511  11.090  0.00  0.00    +0.000 NA
BRANCH   6   8
ATOM      8  C   UNL     1      45.383   3.900   9.310  0.00  0.00    +0.000 A 
ATOM      9  C   UNL     1      45.911   4.695   8.288  0.00  0.00    +0.000 A 
ATOM     10  N   UNL     1      46.578   4.229   7.200  0.00  0.00    +0.000 NA
ATOM     11  C   UNL     1      46.722   2.888   7.108  0.00  0.00    +0.000 A 
ATOM     12  C   UNL     1      46.222   2.002   8.047  0.00  0.00    +0.000 A 
ATOM     13 CL   UNL     1      46.435   0.309   7.863  0.00  0.00    +0.000 Cl
ATOM     14  C   UNL     1      45.544   2.513   9.153  0.00  0.00    +0.000 A 
ENDBRANCH   6   8
ENDBRANCH   1   2
BRANCH   1  15
ATOM     15  N   UNL     1      44.768   8.568  12.668  0.00  0.00    +0.000 N 
ATOM     16  H   UNL     1      43.773   8.481  12.832  0.00  0.00    +0.000 HD
BRANCH  15  22
ATOM     17  C   UNL     1      44.386  10.274  10.944  0.00  0.00    +0.000 A 
ATOM     18  C   UNL     1      44.905  11.362  10.235  0.00  0.00    +0.000 A 
ATOM     19  N   UNL     1      46.156  11.842  10.363  0.00  0.00    +0.000 NA
ATOM     20  C   UNL     1      46.939  11.225  11.261  0.00  0.00    +0.000 A 
ATOM     21  C   UNL     1      46.517  10.144  12.024  0.00  0.00    +0.000 A 
ATOM     22  C   UNL     1      45.225   9.616  11.862  0.00  0.00    +0.000 A 
BRANCH  17  24
ATOM     23  F   UNL     1      42.757   8.532  10.724  0.00  0.00    +0.000 F 
ATOM     24  C   UNL     1      42.971   9.880  10.665  0.00  0.00    +0.000 C 
ATOM     25  F   UNL     1      42.529  10.259   9.434  0.00  0.00    +0.000 F 
ATOM     26  F   UNL     1      42.089  10.418  11.558  0.00  0.00    +0.000 F 
ENDBRANCH  17  24
ENDBRANCH  15  22
ENDBRANCH   1  15
TORSDOF 5
ENDMDL
MODEL 4
REMARK VINA RESULT:    -6.741      3.806      7.178
REMARK INTER + INTRA:          -9.792
REMARK INTER:                  -9.357
REMARK INTRA:                  -0.435
REMARK UNBOUND:                -1.081
REMARK  Name = 
REMARK  5 active torsions:
REMARK  status: ('A' for Active; 'I' for Inactive)
REMARK    1  A    between atoms: C_2  and  C_5
REMARK    2  A    between atoms: C_10  and  N_11
REMARK    3  A    between atoms: N_11  and  C_12
REMARK    4  A    between atoms: C_12  and  C_13
REMARK    5  A    between atoms: C_17  and  C_18
REMARK                            x       y       z     vdW  Elec       q    Type
REMARK                         _______ _______ _______ _____ _____    ______ ____
ROOT
ATOM      1  C   UNL     1      45.476   7.199  11.606  0.00  0.00    +0.000 C 
ENDROOT
BRANCH   1   2
ATOM      2  C   UNL     1      46.803   7.063  12.330  0.00  0.00    +0.000 A 
ATOM      3  C   UNL     1      47.917   7.762  11.872  0.00  0.00    +0.000 A 
ATOM      4  C   UNL     1      49.093   7.705  12.609  0.00  0.00    +0.000 A 
ATOM      5  C   UNL     1      49.128   6.950  13.777  0.00  0.00    +0.000 A 
ATOM      6  C   UNL     1      47.986   6.263  14.185  0.00  0.00    +0.000 A 
ATOM      7  N   UNL     1      46.836   6.313  13.464  0.00  0.00    +0.000 NA
BRANCH   6   8
ATOM      8  C   UNL     1      47.944   5.440  15.407  0.00  0.00    +0.000 A 
ATOM      9  C   UNL     1      47.109   4.321  15.497  0.00  0.00    +0.000 A 
ATOM     10  N   UNL     1      47.035   3.486  16.567  0.00  0.00    +0.000 NA
ATOM     11  C   UNL     1      47.828   3.781  17.620  0.00  0.00    +0.000 A 
ATOM     12  C   UNL     1      48.676   4.874  17.653  0.00  0.00    +0.000 A 
ATOM     13 CL   UNL     1      49.651   5.194  19.029  0.00  0.00    +0.000 Cl
ATOM     14  C   UNL     1      48.730   5.711  16.539  0.00  0.00    +0.000 A 
ENDBRANCH   6   8
ENDBRANCH   1   2
BRANCH   1  15
ATOM     15  N   UNL     1      45.284   6.216  10.532  0.00  0.00    +0.000 N 
ATOM     16  H   UNL     1      45.272   6.596   9.595  0.00  0.00    +0.000 HD
BRANCH  15  22
ATOM     17  C   UNL     1      44.676   3.920   9.910  0.00  0.00    +0.000 A 
ATOM     18  C   UNL     1      44.019   2.740  10.276  0.00  0.00    +0.000 A 
ATOM     19  N   UNL     1      43.312   2.568  11.409  0.00  0.00    +0.000 NA
ATOM     20  C   UNL     1      43.266   3.617  12.244  0.00  0.00    +0.000 A 
ATOM     21  C   UNL     1      43.893   4.829  11.981  0.00  0.00    +0.000 A 
ATOM     22  C   UNL     1      44.597   5.023  10.781  0.00  0.00    +0.000 A 
BRANCH  17  24
ATOM     23  F   UNL     1      46.202   2.827   8.422  0.00  0.00    +0.000 F 
ATOM     24  C   UNL     1      45.411   3.926   8.609  0.00  0.00    +0.000 C 
ATOM     25  F   UNL     1      46.241   4.994   8.453  0.00  0.00    +0.000 F 
ATOM     26  F   UNL     1      44.573   3.946   7.531  0.00  0.00    +0.000 F 
ENDBRANCH  17  24
ENDBRANCH  15  22
ENDBRANCH   1  15
TORSDOF 5
ENDMDL
MODEL 5
REMARK VINA RESULT:    -6.736      3.198      5.060
REMARK INTER + INTRA:          -9.785
REMARK INTER:                  -8.967
REMARK INTRA:                  -0.818
REMARK UNBOUND:                -1.081
REMARK  Name = 
REMARK  5 active torsions:
REMARK  status: ('A' for Active; 'I' for Inactive)
REMARK    1  A    between atoms: C_2  and  C_5
REMARK    2  A    between atoms: C_10  and  N_11
REMARK    3  A    between atoms: N_11  and  C_12
REMARK    4  A    between atoms: C_12  and  C_13
REMARK    5  A    between atoms: C_17  and  C_18
REMARK                            x       y       z     vdW  Elec       q    Type
REMARK                         _______ _______ _______ _____ _____    ______ ____
ROOT
ATOM      1  C   UNL     1      48.774   6.937  14.598  0.00  0.00    +0.000 C 
ENDROOT
BRANCH   1   2
ATOM      2  C   UNL     1      47.536   7.165  13.750  0.00  0.00    +0.000 A 
ATOM      3  C   UNL     1      47.210   8.452  13.332  0.00  0.00    +0.000 A 
ATOM      4  C   UNL     1      46.133   8.624  12.472  0.00  0.00    +0.000 A 
ATOM      5  C   UNL     1      45.408   7.511  12.056  0.00  0.00    +0.000 A 
ATOM      6  C   UNL     1      45.774   6.246  12.513  0.00  0.00    +0.000 A 
ATOM      7  N   UNL     1      46.824   6.074  13.358  0.00  0.00    +0.000 NA
BRANCH   6   8
ATOM      8  C   UNL     1      45.056   5.019  12.123  0.00  0.00    +0.000 A 
ATOM      9  C   UNL     1      44.287   4.305  13.048  0.00  0.00    +0.000 A 
ATOM     10  N   UNL     1      43.563   3.190  12.767  0.00  0.00    +0.000 NA
ATOM     11  C   UNL     1      43.612   2.742  11.493  0.00  0.00    +0.000 A 
ATOM     12  C   UNL     1      44.356   3.354  10.499  0.00  0.00    +0.000 A 
ATOM     13 CL   UNL     1      44.378   2.727   8.901  0.00  0.00    +0.000 Cl
ATOM     14  C   UNL     1      45.086   4.497  10.819  0.00  0.00    +0.000 A 
ENDBRANCH   6   8
ENDBRANCH   1   2
BRANCH   1  15
ATOM     15  N   UNL     1      48.480   6.589  15.993  0.00  0.00    +0.000 N 
ATOM     16  H   UNL     1      47.976   7.292  16.518  0.00  0.00    +0.000 HD
BRANCH  15  22
ATOM     17  C   UNL     1      48.823   4.479  17.201  0.00  0.00    +0.000 A 
ATOM     18  C   UNL     1      49.734   3.612  17.813  0.00  0.00    +0.000 A 
ATOM     19  N   UNL     1      51.053   3.848  17.950  0.00  0.00    +0.000 NA
ATOM     20  C   UNL     1      51.506   4.999  17.434  0.00  0.00    +0.000 A 
ATOM     21  C   UNL     1      50.687   5.923  16.796  0.00  0.00    +0.000 A 
ATOM     22  C   UNL     1      49.305   5.698  16.688  0.00  0.00    +0.000 A 
BRANCH  17  24
ATOM     23  F   UNL     1      47.184   2.780  17.607  0.00  0.00    +0.000 F 
ATOM     24  C   UNL     1      47.393   4.049  17.144  0.00  0.00    +0.000 C 
ATOM     25  F   UNL     1      46.866   4.061  15.888  0.00  0.00    +0.000 F 
ATOM     26  F   UNL     1      46.574   4.840  17.897  0.00  0.00    +0.000 F 
ENDBRANCH  17  24
ENDBRANCH  15  22
ENDBRANCH   1  15
TORSDOF 5
ENDMDL
MODEL 6
REMARK VINA RESULT:    -6.702      3.702      5.856
REMARK INTER + INTRA:          -9.742
REMARK INTER:                  -8.724
REMARK INTRA:                  -1.018
REMARK UNBOUND:                -1.081
REMARK  Name = 
REMARK  5 active torsions:
REMARK  status: ('A' for Active; 'I' for Inactive)
REMARK    1  A    between atoms: C_2  and  C_5
REMARK    2  A    between atoms: C_10  and  N_11
REMARK    3  A    between atoms: N_11  and  C_12
REMARK    4  A    between atoms: C_12  and  C_13
REMARK    5  A    between atoms: C_17  and  C_18
REMARK                            x       y       z     vdW  Elec       q    Type
REMARK                         _______ _______ _______ _____ _____    ______ ____
ROOT
ATOM      1  C   UNL     1      49.263   7.500  15.622  0.00  0.00    +0.000 C 
ENDROOT
BRANCH   1   2
ATOM      2  C   UNL     1      48.718   7.362  14.212  0.00  0.00    +0.000 A 
ATOM      3  C   UNL     1      49.373   7.982  13.152  0.00  0.00    +0.000 A 
ATOM      4  C   UNL     1      48.917   7.757  11.860  0.00  0.00    +0.000 A 
ATOM      5  C   UNL     1      47.819   6.926  11.660  0.00  0.00    +0.000 A 
ATOM      6  C   UNL     1      47.195   6.338  12.758  0.00  0.00    +0.000 A 
ATOM      7  N   UNL     1      47.635   6.560  14.024  0.00  0.00    +0.000 NA
BRANCH   6   8
ATOM      8  C   UNL     1      46.026   5.450  12.631  0.00  0.00    +0.000 A 
ATOM      9  C   UNL     1      46.126   4.079  12.891  0.00  0.00    +0.000 A 
ATOM     10  N   UNL     1      45.095   3.196  12.838  0.00  0.00    +0.000 NA
ATOM     11  C   UNL     1      43.888   3.696  12.493  0.00  0.00    +0.000 A 
ATOM     12  C   UNL     1      43.674   5.030  12.192  0.00  0.00    +0.000 A 
ATOM     13 CL   UNL     1      42.114   5.597  11.754  0.00  0.00    +0.000 Cl
ATOM     14  C   UNL     1      44.753   5.911  12.258  0.00  0.00    +0.000 A 
ENDBRANCH   6   8
ENDBRANCH   1   2
BRANCH   1  15
ATOM     15  N   UNL     1      48.658   6.572  16.585  0.00  0.00    +0.000 N 
ATOM     16  H   UNL     1      47.950   6.972  17.186  0.00  0.00    +0.000 HD
BRANCH  15  22
ATOM     17  C   UNL     1      48.749   4.235  17.335  0.00  0.00    +0.000 A 
ATOM     18  C   UNL     1      49.552   3.154  17.711  0.00  0.00    +0.000 A 
ATOM     19  N   UNL     1      50.895   3.187  17.813  0.00  0.00    +0.000 NA
ATOM     20  C   UNL     1      51.484   4.352  17.505  0.00  0.00    +0.000 A 
ATOM     21  C   UNL     1      50.778   5.482  17.109  0.00  0.00    +0.000 A 
ATOM     22  C   UNL     1      49.375   5.461  17.042  0.00  0.00    +0.000 A 
BRANCH  17  24
ATOM     23  F   UNL     1      46.738   4.184  16.034  0.00  0.00    +0.000 F 
ATOM     24  C   UNL     1      47.272   4.011  17.280  0.00  0.00    +0.000 C 
ATOM     25  F   UNL     1      46.561   4.842  18.092  0.00  0.00    +0.000 F 
ATOM     26  F   UNL     1      46.917   2.744  17.644  0.00  0.00    +0.000 F 
ENDBRANCH  17  24
ENDBRANCH  15  22
ENDBRANCH   1  15
TORSDOF 5
ENDMDL
MODEL 7
REMARK VINA RESULT:    -6.663      3.610      6.948
REMARK INTER + INTRA:          -9.691
REMARK INTER:                  -8.810
REMARK INTRA:                  -0.881
REMARK UNBOUND:                -1.081
REMARK  Name = 
REMARK  5 active torsions:
REMARK  status: ('A' for Active; 'I' for Inactive)
REMARK    1  A    between atoms: C_2  and  C_5
REMARK    2  A    between atoms: C_10  and  N_11
REMARK    3  A    between atoms: N_11  and  C_12
REMARK    4  A    between atoms: C_12  and  C_13
REMARK    5  A    between atoms: C_17  and  C_18
REMARK                            x       y       z     vdW  Elec       q    Type
REMARK                         _______ _______ _______ _____ _____    ______ ____
ROOT
ATOM      1  C   UNL     1      45.859   7.075  11.166  0.00  0.00    +0.000 C 
ENDROOT
BRANCH   1   2
ATOM      2  C   UNL     1      47.082   7.046  12.065  0.00  0.00    +0.000 A 
ATOM      3  C   UNL     1      48.192   7.824  11.748  0.00  0.00    +0.000 A 
ATOM      4  C   UNL     1      49.258   7.862  12.638  0.00  0.00    +0.000 A 
ATOM      5  C   UNL     1      49.192   7.120  13.813  0.00  0.00    +0.000 A 
ATOM      6  C   UNL     1      48.059   6.351  14.076  0.00  0.00    +0.000 A 
ATOM      7  N   UNL     1      47.017   6.308  13.205  0.00  0.00    +0.000 NA
BRANCH   6   8
ATOM      8  C   UNL     1      47.913   5.536  15.294  0.00  0.00    +0.000 A 
ATOM      9  C   UNL     1      47.105   4.394  15.309  0.00  0.00    +0.000 A 
ATOM     10  N   UNL     1      46.943   3.564  16.373  0.00  0.00    +0.000 NA
ATOM     11  C   UNL     1      47.614   3.889  17.500  0.00  0.00    +0.000 A 
ATOM     12  C   UNL     1      48.424   5.006  17.609  0.00  0.00    +0.000 A 
ATOM     13 CL   UNL     1      49.241   5.363  19.075  0.00  0.00    +0.000 Cl
ATOM     14  C   UNL     1      48.570   5.836  16.499  0.00  0.00    +0.000 A 
ENDBRANCH   6   8
ENDBRANCH   1   2
BRANCH   1  15
ATOM     15  N   UNL     1      44.989   5.902  11.312  0.00  0.00    +0.000 N 
ATOM     16  H   UNL     1      44.711   5.684  12.260  0.00  0.00    +0.000 HD
BRANCH  15  22
ATOM     17  C   UNL     1      44.333   3.660  10.554  0.00  0.00    +0.000 A 
ATOM     18  C   UNL     1      44.374   2.710   9.529  0.00  0.00    +0.000 A 
ATOM     19  N   UNL     1      45.035   2.856   8.365  0.00  0.00    +0.000 NA
ATOM     20  C   UNL     1      45.678   4.020   8.191  0.00  0.00    +0.000 A 
ATOM     21  C   UNL     1      45.692   5.033   9.142  0.00  0.00    +0.000 A 
ATOM     22  C   UNL     1      45.036   4.866  10.373  0.00  0.00    +0.000 A 
BRANCH  17  24
ATOM     23  F   UNL     1      42.488   4.153  11.999  0.00  0.00    +0.000 F 
ATOM     24  C   UNL     1      43.549   3.320  11.780  0.00  0.00    +0.000 C 
ATOM     25  F   UNL     1      44.280   3.362  12.929  0.00  0.00    +0.000 F 
ATOM     26  F   UNL     1      43.010   2.066  11.730  0.00  0.00    +0.000 F 
ENDBRANCH  17  24
ENDBRANCH  15  22
ENDBRANCH   1  15
TORSDOF 5
ENDMDL
MODEL 8
REMARK VINA RESULT:    -6.591      2.454      2.991
REMARK INTER + INTRA:          -9.598
REMARK INTER:                  -9.043
REMARK INTRA:                  -0.555
REMARK UNBOUND:                -1.081
REMARK  Name = 
REMARK  5 active torsions:
REMARK  status: ('A' for Active; 'I' for Inactive)
REMARK    1  A    between atoms: C_2  and  C_5
REMARK    2  A    between atoms: C_10  and  N_11
REMARK    3  A    between atoms: N_11  and  C_12
REMARK    4  A    between atoms: C_12  and  C_13
REMARK    5  A    between atoms: C_17  and  C_18
REMARK                            x       y       z     vdW  Elec       q    Type
REMARK                         _______ _______ _______ _____ _____    ______ ____
ROOT
ATOM      1  C   UNL     1      46.334   5.638  13.653  0.00  0.00    +0.000 C 
ENDROOT
BRANCH   1   2
ATOM      2  C   UNL     1      45.339   4.904  12.773  0.00  0.00    +0.000 A 
ATOM      3  C   UNL     1      44.016   4.771  13.185  0.00  0.00    +0.000 A 
ATOM      4  C   UNL     1      43.100   4.188  12.319  0.00  0.00    +0.000 A 
ATOM      5  C   UNL     1      43.528   3.749  11.070  0.00  0.00    +0.000 A 
ATOM      6  C   UNL     1      44.867   3.899  10.712  0.00  0.00    +0.000 A 
ATOM      7  N   UNL     1      45.766   4.465  11.559  0.00  0.00    +0.000 NA
BRANCH   6   8
ATOM      8  C   UNL     1      45.399   3.457   9.411  0.00  0.00    +0.000 A 
ATOM      9  C   UNL     1      45.617   4.366   8.371  0.00  0.00    +0.000 A 
ATOM     10  N   UNL     1      46.140   4.054   7.156  0.00  0.00    +0.000 NA
ATOM     11  C   UNL     1      46.458   2.757   6.950  0.00  0.00    +0.000 A 
ATOM     12  C   UNL     1      46.266   1.766   7.897  0.00  0.00    +0.000 A 
ATOM     13 CL   UNL     1      46.686   0.136   7.566  0.00  0.00    +0.000 Cl
ATOM     14  C   UNL     1      45.729   2.120   9.134  0.00  0.00    +0.000 A 
ENDBRANCH   6   8
ENDBRANCH   1   2
BRANCH   1  15
ATOM     15  N   UNL     1      46.807   4.850  14.797  0.00  0.00    +0.000 N 
ATOM     16  H   UNL     1      46.121   4.232  15.211  0.00  0.00    +0.000 HD
BRANCH  15  22
ATOM     17  C   UNL     1      48.442   4.532  16.602  0.00  0.00    +0.000 A 
ATOM     18  C   UNL     1      49.532   5.057  17.303  0.00  0.00    +0.000 A 
ATOM     19  N   UNL     1      50.075   6.272  17.091  0.00  0.00    +0.000 NA
ATOM     20  C   UNL     1      49.522   7.006  16.114  0.00  0.00    +0.000 A 
ATOM     21  C   UNL     1      48.445   6.573  15.352  0.00  0.00    +0.000 A 
ATOM     22  C   UNL     1      47.851   5.323  15.598  0.00  0.00    +0.000 A 
BRANCH  17  24
ATOM     23  F   UNL     1      46.664   3.122  17.368  0.00  0.00    +0.000 F 
ATOM     24  C   UNL     1      47.973   3.164  16.979  0.00  0.00    +0.000 C 
ATOM     25  F   UNL     1      48.671   2.610  18.010  0.00  0.00    +0.000 F 
ATOM     26  F   UNL     1      48.065   2.273  15.948  0.00  0.00    +0.000 F 
ENDBRANCH  17  24
ENDBRANCH  15  22
ENDBRANCH   1  15
TORSDOF 5
ENDMDL
MODEL 9
REMARK VINA RESULT:    -6.208      3.446      5.310
REMARK INTER + INTRA:          -9.104
REMARK INTER:                  -8.313
REMARK INTRA:                  -0.790
REMARK UNBOUND:                -1.081
REMARK  Name = 
REMARK  5 active torsions:
REMARK  status: ('A' for Active; 'I' for Inactive)
REMARK    1  A    between atoms: C_2  and  C_5
REMARK    2  A    between atoms: C_10  and  N_11
REMARK    3  A    between atoms: N_11  and  C_12
REMARK    4  A    between atoms: C_12  and  C_13
REMARK    5  A    between atoms: C_17  and  C_18
REMARK                            x       y       z     vdW  Elec       q    Type
REMARK                         _______ _______ _______ _____ _____    ______ ____
ROOT
ATOM      1  C   UNL     1      48.681   6.936  14.581  0.00  0.00    +0.000 C 
ENDROOT
BRANCH   1   2
ATOM      2  C   UNL     1      47.420   7.213  13.784  0.00  0.00    +0.000 A 
ATOM      3  C   UNL     1      46.952   8.519  13.658  0.00  0.00    +0.000 A 
ATOM      4  C   UNL     1      45.857   8.761  12.839  0.00  0.00    +0.000 A 
ATOM      5  C   UNL     1      45.255   7.698  12.174  0.00  0.00    +0.000 A 
ATOM      6  C   UNL     1      45.759   6.410  12.342  0.00  0.00    +0.000 A 
ATOM      7  N   UNL     1      46.827   6.168  13.147  0.00  0.00    +0.000 NA
BRANCH   6   8
ATOM      8  C   UNL     1      45.177   5.231  11.677  0.00  0.00    +0.000 A 
ATOM      9  C   UNL     1      44.508   4.244  12.407  0.00  0.00    +0.000 A 
ATOM     10  N   UNL     1      43.908   3.147  11.873  0.00  0.00    +0.000 NA
ATOM     11  C   UNL     1      43.984   3.011  10.531  0.00  0.00    +0.000 A 
ATOM     12  C   UNL     1      44.639   3.912   9.709  0.00  0.00    +0.000 A 
ATOM     13 CL   UNL     1      44.703   3.672   8.011  0.00  0.00    +0.000 Cl
ATOM     14  C   UNL     1      45.242   5.027  10.288  0.00  0.00    +0.000 A 
ENDBRANCH   6   8
ENDBRANCH   1   2
BRANCH   1  15
ATOM     15  N   UNL     1      48.438   6.688  16.007  0.00  0.00    +0.000 N 
ATOM     16  H   UNL     1      48.616   7.472  16.621  0.00  0.00    +0.000 HD
BRANCH  15  22
ATOM     17  C   UNL     1      49.685   4.964  17.234  0.00  0.00    +0.000 A 
ATOM     18  C   UNL     1      49.675   3.679  17.787  0.00  0.00    +0.000 A 
ATOM     19  N   UNL     1      48.652   2.808  17.701  0.00  0.00    +0.000 NA
ATOM     20  C   UNL     1      47.561   3.238  17.049  0.00  0.00    +0.000 A 
ATOM     21  C   UNL     1      47.464   4.498  16.474  0.00  0.00    +0.000 A 
ATOM     22  C   UNL     1      48.546   5.393  16.527  0.00  0.00    +0.000 A 
BRANCH  17  24
ATOM     23  F   UNL     1      51.911   5.138  18.099  0.00  0.00    +0.000 F 
ATOM     24  C   UNL     1      50.915   5.790  17.428  0.00  0.00    +0.000 C 
ATOM     25  F   UNL     1      50.701   6.936  18.133  0.00  0.00    +0.000 F 
ATOM     26  F   UNL     1      51.479   6.180  16.248  0.00  0.00    +0.000 F 
ENDBRANCH  17  24
ENDBRANCH  15  22
ENDBRANCH   1  15
TORSDOF 5
ENDMDL
