MODEL 1
REMARK VINA RESULT:    -8.218      0.000      0.000
REMARK INTER + INTRA:         -13.361
REMARK INTER:                 -12.061
REMARK INTRA:                  -1.300
REMARK UNBOUND:                -1.300
REMARK  Name = 
REMARK  9 active torsions:
REMARK  status: ('A' for Active; 'I' for Inactive)
REMARK    1  A    between atoms: C_1  and  C_2
REMARK    2  A    between atoms: C_2  and  C_3
REMARK    3  A    between atoms: C_3  and  N_4
REMARK    4  A    between atoms: C_3  and  C_12
REMARK    5  A    between atoms: N_4  and  C_5
REMARK    6  A    between atoms: C_5  and  C_6
REMARK    7  A    between atoms: C_15  and  C_16
REMARK    8  A    between atoms: C_16  and  N_17
REMARK    9  A    between atoms: C_18  and  C_20
REMARK                            x       y       z     vdW  Elec       q    Type
REMARK                         _______ _______ _______ _____ _____    ______ ____
ROOT
ATOM      1  C   UNL     1      45.411   4.467  12.291  0.00  0.00    +0.000 A 
ATOM      2  C   UNL     1      45.868   5.622  11.629  0.00  0.00    +0.000 A 
ATOM      3  C   UNL     1      46.842   6.447  12.202  0.00  0.00    +0.000 A 
ATOM      4  C   UNL     1      47.424   6.102  13.426  0.00  0.00    +0.000 A 
ATOM      5  C   UNL     1      46.990   4.943  14.076  0.00  0.00    +0.000 A 
ATOM      6  C   UNL     1      45.983   4.152  13.531  0.00  0.00    +0.000 A 
ENDROOT
BRANCH   1   7
ATOM      7  C   UNL     1      44.271   3.637  11.696  0.00  0.00    +0.000 C 
BRANCH   7   9
ATOM      8  C   UNL     1      42.384   5.428  11.811  0.00  0.00    +0.000 C 
ATOM      9  C   UNL     1      43.265   4.547  10.938  0.00  0.00    +0.000 C 
ENDBRANCH   7   9
BRANCH   7  10
ATOM     10  N   UNL     1      44.765   2.563  10.811  0.00  0.00    +0.000 NA
ATOM     11  H   UNL     1      44.397   1.671  11.140  0.00  0.00    +0.000 HD
BRANCH  10  12
ATOM     12  C   UNL     1      44.364   2.747   9.412  0.00  0.00    +0.000 C 
BRANCH  12  13
ATOM     13  C   UNL     1      45.518   2.630   8.456  0.00  0.00    +0.000 A 
ATOM     14  C   UNL     1      45.970   3.718   7.708  0.00  0.00    +0.000 A 
ATOM     15  C   UNL     1      47.016   3.547   6.806  0.00  0.00    +0.000 A 
ATOM     16  C   UNL     1      47.576   2.287   6.678  0.00  0.00    +0.000 A 
ATOM     17  N   UNL     1      47.164   1.207   7.374  0.00  0.00    +0.000 NA
ATOM     18  C   UNL     1      46.149   1.404   8.246  0.00  0.00    +0.000 A 
ENDBRANCH  12  13
ENDBRANCH  10  12
ENDBRANCH   7  10
ENDBRANCH   1   7
BRANCH   4  19
ATOM     19  C   UNL     1      48.467   6.967  14.079  0.00  0.00    +0.000 C 
BRANCH  19  20
ATOM     20  N   UNL     1      48.312   7.029  15.511  0.00  0.00    +0.000 N 
ATOM     21  C   UNL     1      49.290   6.629  16.384  0.00  0.00    +0.000 C 
ATOM     22  O   UNL     1      50.357   6.149  16.003  0.00  0.00    +0.000 OA
ATOM     23  H   UNL     1      47.408   7.324  15.861  0.00  0.00    +0.000 HD
BRANCH  21  24
ATOM     24  C   UNL     1      49.041   6.864  17.814  0.00  0.00    +0.000 A 
ATOM     25  C   UNL     1      48.968   8.171  18.278  0.00  0.00    +0.000 A 
ATOM     26  S   UNL     1      48.606   8.291  19.938  0.00  0.00    +0.000 S 
ATOM     27  C   UNL     1      48.591   6.600  20.112  0.00  0.00    +0.000 A 
ATOM     28  N   UNL     1      48.358   6.025  21.323  0.00  0.00    +0.000 NA
ATOM     29  C   UNL     1      48.408   4.739  21.325  0.00  0.00    +0.000 A 
ATOM     30  N   UNL     1      48.660   3.967  20.219  0.00  0.00    +0.000 N 
ATOM     31  C   UNL     1      48.844   4.496  18.964  0.00  0.00    +0.000 A 
ATOM     32  O   UNL     1      48.980   3.771  17.984  0.00  0.00    +0.000 OA
ATOM     33  C   UNL     1      48.833   5.948  18.913  0.00  0.00    +0.000 A 
ATOM     34  H   UNL     1      48.670   2.960  20.286  0.00  0.00    +0.000 HD
ENDBRANCH  21  24
ENDBRANCH  19  20
ENDBRANCH   4  19
TORSDOF 8
ENDMDL
MODEL 2
REMARK VINA RESULT:    -8.148      1.483      2.206
REMARK INTER + INTRA:         -13.259
REMARK INTER:                 -11.852
REMARK INTRA:                  -1.406
REMARK UNBOUND:                -1.300
REMARK  Name = 
REMARK  9 active torsions:
REMARK  status: ('A' for Active; 'I' for Inactive)
REMARK    1  A    between atoms: C_1  and  C_2
REMARK    2  A    between atoms: C_2  and  C_3
REMARK    3  A    between atoms: C_3  and  N_4
REMARK    4  A    between atoms: C_3  and  C_12
REMARK    5  A    between atoms: N_4  and  C_5
REMARK    6  A    between atoms: C_5  and  C_6
REMARK    7  A    between atoms: C_15  and  C_16
REMARK    8  A    between atoms: C_16  and  N_17
REMARK    9  A    between atoms: C_18  and  C_20
REMARK                            x       y       z     vdW  Elec       q    Type
REMARK                         _______ _______ _______ _____ _____    ______ ____
ROOT
ATOM      1  C   UNL     1      45.631   4.962  11.841  0.00  0.00    +0.000 A 
ATOM      2  C   UNL     1      45.905   4.403  13.104  0.00  0.00    +0.000 A 
ATOM      3  C   UNL     1      46.827   4.996  13.973  0.00  0.00    +0.000 A 
ATOM      4  C   UNL     1      47.452   6.197  13.622  0.00  0.00    +0.000 A 
ATOM      5  C   UNL     1      47.165   6.768  12.379  0.00  0.00    +0.000 A 
ATOM      6  C   UNL     1      46.289   6.149  11.493  0.00  0.00    +0.000 A 
ENDROOT
BRANCH   1   7
ATOM      7  C   UNL     1      44.700   4.240  10.864  0.00  0.00    +0.000 C 
BRANCH   7   9
ATOM      8  C   UNL     1      42.594   5.553  11.655  0.00  0.00    +0.000 C 
ATOM      9  C   UNL     1      43.248   4.199  11.415  0.00  0.00    +0.000 C 
ENDBRANCH   7   9
BRANCH   7  10
ATOM     10  N   UNL     1      44.725   4.846   9.517  0.00  0.00    +0.000 NA
ATOM     11  H   UNL     1      45.666   5.189   9.330  0.00  0.00    +0.000 HD
BRANCH  10  12
ATOM     12  C   UNL     1      44.352   3.901   8.459  0.00  0.00    +0.000 C 
BRANCH  12  13
ATOM     13  C   UNL     1      45.501   3.036   8.020  0.00  0.00    +0.000 A 
ATOM     14  C   UNL     1      46.495   3.510   7.163  0.00  0.00    +0.000 A 
ATOM     15  C   UNL     1      47.515   2.656   6.754  0.00  0.00    +0.000 A 
ATOM     16  C   UNL     1      47.505   1.349   7.213  0.00  0.00    +0.000 A 
ATOM     17  N   UNL     1      46.558   0.849   8.033  0.00  0.00    +0.000 NA
ATOM     18  C   UNL     1      45.582   1.702   8.418  0.00  0.00    +0.000 A 
ENDBRANCH  12  13
ENDBRANCH  10  12
ENDBRANCH   7  10
ENDBRANCH   1   7
BRANCH   4  19
ATOM     19  C   UNL     1      48.455   6.861  14.525  0.00  0.00    +0.000 C 
BRANCH  19  20
ATOM     20  N   UNL     1      48.216   6.572  15.917  0.00  0.00    +0.000 N 
ATOM     21  C   UNL     1      49.176   6.050  16.745  0.00  0.00    +0.000 C 
ATOM     22  O   UNL     1      50.300   5.753  16.343  0.00  0.00    +0.000 OA
ATOM     23  H   UNL     1      47.271   6.710  16.258  0.00  0.00    +0.000 HD
BRANCH  21  24
ATOM     24  C   UNL     1      48.829   5.922  18.168  0.00  0.00    +0.000 A 
ATOM     25  C   UNL     1      49.036   4.704  18.803  0.00  0.00    +0.000 A 
ATOM     26  S   UNL     1      48.655   4.724  20.464  0.00  0.00    +0.000 S 
ATOM     27  C   UNL     1      48.146   6.343  20.383  0.00  0.00    +0.000 A 
ATOM     28  N   UNL     1      47.667   6.980  21.486  0.00  0.00    +0.000 NA
ATOM     29  C   UNL     1      47.284   8.191  21.283  0.00  0.00    +0.000 A 
ATOM     30  N   UNL     1      47.345   8.835  20.073  0.00  0.00    +0.000 N 
ATOM     31  C   UNL     1      47.873   8.256  18.944  0.00  0.00    +0.000 A 
ATOM     32  O   UNL     1      47.991   8.892  17.901  0.00  0.00    +0.000 OA
ATOM     33  C   UNL     1      48.287   6.874  19.111  0.00  0.00    +0.000 A 
ATOM     34  H   UNL     1      47.041   9.794  19.984  0.00  0.00    +0.000 HD
ENDBRANCH  21  24
ENDBRANCH  19  20
ENDBRANCH   4  19
TORSDOF 8
ENDMDL
MODEL 3
REMARK VINA RESULT:    -7.588      2.397      3.023
REMARK INTER + INTRA:         -12.437
REMARK INTER:                 -11.136
REMARK INTRA:                  -1.301
REMARK UNBOUND:                -1.300
REMARK  Name = 
REMARK  9 active torsions:
REMARK  status: ('A' for Active; 'I' for Inactive)
REMARK    1  A    between atoms: C_1  and  C_2
REMARK    2  A    between atoms: C_2  and  C_3
REMARK    3  A    between atoms: C_3  and  N_4
REMARK    4  A    between atoms: C_3  and  C_12
REMARK    5  A    between atoms: N_4  and  C_5
REMARK    6  A    between atoms: C_5  and  C_6
REMARK    7  A    between atoms: C_15  and  C_16
REMARK    8  A    between atoms: C_16  and  N_17
REMARK    9  A    between atoms: C_18  and  C_20
REMARK                            x       y       z     vdW  Elec       q    Type
REMARK                         _______ _______ _______ _____ _____    ______ ____
ROOT
ATOM      1  C   UNL     1      46.013   5.114  12.457  0.00  0.00    +0.000 A 
ATOM      2  C   UNL     1      46.491   4.526  13.644  0.00  0.00    +0.000 A 
ATOM      3  C   UNL     1      47.336   5.229  14.510  0.00  0.00    +0.000 A 
ATOM      4  C   UNL     1      47.675   6.558  14.236  0.00  0.00    +0.000 A 
ATOM      5  C   UNL     1      47.185   7.152  13.071  0.00  0.00    +0.000 A 
ATOM      6  C   UNL     1      46.387   6.436  12.183  0.00  0.00    +0.000 A 
ENDROOT
BRANCH   1   7
ATOM      7  C   UNL     1      45.177   4.292  11.473  0.00  0.00    +0.000 C 
BRANCH   7   9
ATOM      8  C   UNL     1      43.091   5.010  12.858  0.00  0.00    +0.000 C 
ATOM      9  C   UNL     1      43.811   3.902  12.103  0.00  0.00    +0.000 C 
ENDBRANCH   7   9
BRANCH   7  10
ATOM     10  N   UNL     1      44.973   4.996  10.191  0.00  0.00    +0.000 NA
ATOM     11  H   UNL     1      45.875   5.330   9.853  0.00  0.00    +0.000 HD
BRANCH  10  12
ATOM     12  C   UNL     1      44.373   4.142   9.160  0.00  0.00    +0.000 C 
BRANCH  12  13
ATOM     13  C   UNL     1      45.388   3.304   8.436  0.00  0.00    +0.000 A 
ATOM     14  C   UNL     1      45.502   1.930   8.653  0.00  0.00    +0.000 A 
ATOM     15  C   UNL     1      46.487   1.206   7.987  0.00  0.00    +0.000 A 
ATOM     16  C   UNL     1      47.334   1.884   7.125  0.00  0.00    +0.000 A 
ATOM     17  N   UNL     1      47.264   3.212   6.894  0.00  0.00    +0.000 NA
ATOM     18  C   UNL     1      46.295   3.888   7.552  0.00  0.00    +0.000 A 
ENDBRANCH  12  13
ENDBRANCH  10  12
ENDBRANCH   7  10
ENDBRANCH   1   7
BRANCH   4  19
ATOM     19  C   UNL     1      48.588   7.344  15.138  0.00  0.00    +0.000 C 
BRANCH  19  20
ATOM     20  N   UNL     1      49.665   6.542  15.663  0.00  0.00    +0.000 N 
ATOM     21  C   UNL     1      49.752   6.183  16.982  0.00  0.00    +0.000 C 
ATOM     22  O   UNL     1      48.934   6.557  17.821  0.00  0.00    +0.000 OA
ATOM     23  H   UNL     1      50.411   6.300  15.020  0.00  0.00    +0.000 HD
BRANCH  21  24
ATOM     24  C   UNL     1      50.837   5.262  17.351  0.00  0.00    +0.000 A 
ATOM     25  C   UNL     1      52.045   5.788  17.792  0.00  0.00    +0.000 A 
ATOM     26  S   UNL     1      53.182   4.604  18.248  0.00  0.00    +0.000 S 
ATOM     27  C   UNL     1      52.124   3.345  17.821  0.00  0.00    +0.000 A 
ATOM     28  N   UNL     1      52.501   2.044  17.949  0.00  0.00    +0.000 NA
ATOM     29  C   UNL     1      51.620   1.190  17.558  0.00  0.00    +0.000 A 
ATOM     30  N   UNL     1      50.386   1.516  17.059  0.00  0.00    +0.000 N 
ATOM     31  C   UNL     1      49.936   2.811  16.964  0.00  0.00    +0.000 A 
ATOM     32  O   UNL     1      48.793   3.061  16.595  0.00  0.00    +0.000 OA
ATOM     33  C   UNL     1      50.906   3.818  17.359  0.00  0.00    +0.000 A 
ATOM     34  H   UNL     1      49.734   0.795  16.784  0.00  0.00    +0.000 HD
ENDBRANCH  21  24
ENDBRANCH  19  20
ENDBRANCH   4  19
TORSDOF 8
ENDMDL
MODEL 4
REMARK VINA RESULT:    -7.359      1.824      2.199
REMARK INTER + INTRA:         -12.101
REMARK INTER:                 -10.679
REMARK INTRA:                  -1.422
REMARK UNBOUND:                -1.300
REMARK  Name = 
REMARK  9 active torsions:
REMARK  status: ('A' for Active; 'I' for Inactive)
REMARK    1  A    between atoms: C_1  and  C_2
REMARK    2  A    between atoms: C_2  and  C_3
REMARK    3  A    between atoms: C_3  and  N_4
REMARK    4  A    between atoms: C_3  and  C_12
REMARK    5  A    between atoms: N_4  and  C_5
REMARK    6  A    between atoms: C_5  and  C_6
REMARK    7  A    between atoms: C_15  and  C_16
REMARK    8  A    between atoms: C_16  and  N_17
REMARK    9  A    between atoms: C_18  and  C_20
REMARK                            x       y       z     vdW  Elec       q    Type
REMARK                         _______ _______ _______ _____ _____    ______ ____
ROOT
ATOM      1  C   UNL     1      45.949   6.456  11.539  0.00  0.00    +0.000 A 
ATOM      2  C   UNL     1      45.478   7.261  12.593  0.00  0.00    +0.000 A 
ATOM      3  C   UNL     1      46.351   8.072  13.328  0.00  0.00    +0.000 A 
ATOM      4  C   UNL     1      47.705   8.140  12.985  0.00  0.00    +0.000 A 
ATOM      5  C   UNL     1      48.171   7.360  11.924  0.00  0.00    +0.000 A 
ATOM      6  C   UNL     1      47.314   6.513  11.228  0.00  0.00    +0.000 A 
ENDROOT
BRANCH   1   7
ATOM      7  C   UNL     1      44.998   5.497  10.817  0.00  0.00    +0.000 C 
BRANCH   7   9
ATOM      8  C   UNL     1      42.775   5.031  12.093  0.00  0.00    +0.000 C 
ATOM      9  C   UNL     1      43.518   5.889  11.079  0.00  0.00    +0.000 C 
ENDBRANCH   7   9
BRANCH   7  10
ATOM     10  N   UNL     1      45.266   5.430   9.367  0.00  0.00    +0.000 NA
ATOM     11  H   UNL     1      46.272   5.349   9.223  0.00  0.00    +0.000 HD
BRANCH  10  12
ATOM     12  C   UNL     1      44.606   4.293   8.716  0.00  0.00    +0.000 C 
BRANCH  12  13
ATOM     13  C   UNL     1      45.582   3.278   8.191  0.00  0.00    +0.000 A 
ATOM     14  C   UNL     1      46.533   3.600   7.221  0.00  0.00    +0.000 A 
ATOM     15  C   UNL     1      47.386   2.613   6.738  0.00  0.00    +0.000 A 
ATOM     16  C   UNL     1      47.257   1.327   7.238  0.00  0.00    +0.000 A 
ATOM     17  N   UNL     1      46.346   0.971   8.168  0.00  0.00    +0.000 NA
ATOM     18  C   UNL     1      45.533   1.952   8.622  0.00  0.00    +0.000 A 
ENDBRANCH  12  13
ENDBRANCH  10  12
ENDBRANCH   7  10
ENDBRANCH   1   7
BRANCH   4  19
ATOM     19  C   UNL     1      48.675   8.993  13.756  0.00  0.00    +0.000 C 
BRANCH  19  20
ATOM     20  N   UNL     1      49.130   8.352  14.964  0.00  0.00    +0.000 N 
ATOM     21  C   UNL     1      48.608   8.635  16.199  0.00  0.00    +0.000 C 
ATOM     22  O   UNL     1      47.739   9.489  16.367  0.00  0.00    +0.000 OA
ATOM     23  H   UNL     1      49.915   7.716  14.877  0.00  0.00    +0.000 HD
BRANCH  21  24
ATOM     24  C   UNL     1      49.083   7.816  17.325  0.00  0.00    +0.000 A 
ATOM     25  C   UNL     1      49.616   8.450  18.440  0.00  0.00    +0.000 A 
ATOM     26  S   UNL     1      50.059   7.381  19.690  0.00  0.00    +0.000 S 
ATOM     27  C   UNL     1      49.608   6.028  18.766  0.00  0.00    +0.000 A 
ATOM     28  N   UNL     1      49.757   4.767  19.257  0.00  0.00    +0.000 NA
ATOM     29  C   UNL     1      49.411   3.831  18.445  0.00  0.00    +0.000 A 
ATOM     30  N   UNL     1      48.916   4.038  17.183  0.00  0.00    +0.000 N 
ATOM     31  C   UNL     1      48.693   5.291  16.663  0.00  0.00    +0.000 A 
ATOM     32  O   UNL     1      48.167   5.437  15.564  0.00  0.00    +0.000 OA
ATOM     33  C   UNL     1      49.101   6.384  17.527  0.00  0.00    +0.000 A 
ATOM     34  H   UNL     1      48.648   3.258  16.599  0.00  0.00    +0.000 HD
ENDBRANCH  21  24
ENDBRANCH  19  20
ENDBRANCH   4  19
TORSDOF 8
ENDMDL
MODEL 5
REMARK VINA RESULT:    -7.111      3.552      8.715
REMARK INTER + INTRA:         -11.736
REMARK INTER:                  -9.922
REMARK INTRA:                  -1.815
REMARK UNBOUND:                -1.300
REMARK  Name = 
REMARK  9 active torsions:
REMARK  status: ('A' for Active; 'I' for Inactive)
REMARK    1  A    between atoms: C_1  and  C_2
REMARK    2  A    between atoms: C_2  and  C_3
REMARK    3  A    between atoms: C_3  and  N_4
REMARK    4  A    between atoms: C_3  and  C_12
REMARK    5  A    between atoms: N_4  and  C_5
REMARK    6  A    between atoms: C_5  and  C_6
REMARK    7  A    between atoms: C_15  and  C_16
REMARK    8  A    between atoms: C_16  and  N_17
REMARK    9  A    between atoms: C_18  and  C_20
REMARK                            x       y       z     vdW  Elec       q    Type
REMARK                         _______ _______ _______ _____ _____    ______ ____
ROOT
ATOM      1  C   UNL     1      48.823   8.136  16.261  0.00  0.00    +0.000 A 
ATOM      2  C   UNL     1      49.097   6.966  15.528  0.00  0.00    +0.000 A 
ATOM      3  C   UNL     1      48.946   6.932  14.137  0.00  0.00    +0.000 A 
ATOM      4  C   UNL     1      48.574   8.087  13.442  0.00  0.00    +0.000 A 
ATOM      5  C   UNL     1      48.322   9.257  14.164  0.00  0.00    +0.000 A 
ATOM      6  C   UNL     1      48.421   9.275  15.552  0.00  0.00    +0.000 A 
ENDROOT
BRANCH   1   7
ATOM      7  C   UNL     1      48.892   8.121  17.790  0.00  0.00    +0.000 C 
BRANCH   7   9
ATOM      8  C   UNL     1      47.920  10.109  19.164  0.00  0.00    +0.000 C 
ATOM      9  C   UNL     1      49.080   9.559  18.347  0.00  0.00    +0.000 C 
ENDBRANCH   7   9
BRANCH   7  10
ATOM     10  N   UNL     1      47.706   7.483  18.397  0.00  0.00    +0.000 NA
ATOM     11  H   UNL     1      47.080   7.180  17.652  0.00  0.00    +0.000 HD
BRANCH  10  12
ATOM     12  C   UNL     1      48.045   6.321  19.226  0.00  0.00    +0.000 C 
BRANCH  12  13
ATOM     13  C   UNL     1      48.100   5.042  18.440  0.00  0.00    +0.000 A 
ATOM     14  C   UNL     1      49.267   4.281  18.348  0.00  0.00    +0.000 A 
ATOM     15  C   UNL     1      49.277   3.125  17.573  0.00  0.00    +0.000 A 
ATOM     16  C   UNL     1      48.115   2.769  16.907  0.00  0.00    +0.000 A 
ATOM     17  N   UNL     1      46.970   3.480  16.961  0.00  0.00    +0.000 NA
ATOM     18  C   UNL     1      46.989   4.596  17.725  0.00  0.00    +0.000 A 
ENDBRANCH  12  13
ENDBRANCH  10  12
ENDBRANCH   7  10
ENDBRANCH   1   7
BRANCH   4  19
ATOM     19  C   UNL     1      48.392   8.088  11.949  0.00  0.00    +0.000 C 
BRANCH  19  20
ATOM     20  N   UNL     1      47.632   6.954  11.486  0.00  0.00    +0.000 N 
ATOM     21  C   UNL     1      46.263   6.948  11.429  0.00  0.00    +0.000 C 
ATOM     22  O   UNL     1      45.585   7.901  11.808  0.00  0.00    +0.000 OA
ATOM     23  H   UNL     1      48.154   6.114  11.261  0.00  0.00    +0.000 HD
BRANCH  21  24
ATOM     24  C   UNL     1      45.628   5.769  10.821  0.00  0.00    +0.000 A 
ATOM     25  C   UNL     1      45.769   5.559   9.455  0.00  0.00    +0.000 A 
ATOM     26  S   UNL     1      45.041   4.121   8.904  0.00  0.00    +0.000 S 
ATOM     27  C   UNL     1      44.463   3.754  10.459  0.00  0.00    +0.000 A 
ATOM     28  N   UNL     1      43.720   2.635  10.681  0.00  0.00    +0.000 NA
ATOM     29  C   UNL     1      43.316   2.492  11.895  0.00  0.00    +0.000 A 
ATOM     30  N   UNL     1      43.594   3.363  12.917  0.00  0.00    +0.000 N 
ATOM     31  C   UNL     1      44.386   4.475  12.757  0.00  0.00    +0.000 A 
ATOM     32  O   UNL     1      44.686   5.183  13.713  0.00  0.00    +0.000 OA
ATOM     33  C   UNL     1      44.840   4.702  11.396  0.00  0.00    +0.000 A 
ATOM     34  H   UNL     1      43.258   3.185  13.852  0.00  0.00    +0.000 HD
ENDBRANCH  21  24
ENDBRANCH  19  20
ENDBRANCH   4  19
TORSDOF 8
ENDMDL
MODEL 6
REMARK VINA RESULT:    -7.096      4.943      9.635
REMARK INTER + INTRA:         -11.714
REMARK INTER:                 -10.458
REMARK INTRA:                  -1.256
REMARK UNBOUND:                -1.300
REMARK  Name = 
REMARK  9 active torsions:
REMARK  status: ('A' for Active; 'I' for Inactive)
REMARK    1  A    between atoms: C_1  and  C_2
REMARK    2  A    between atoms: C_2  and  C_3
REMARK    3  A    between atoms: C_3  and  N_4
REMARK    4  A    between atoms: C_3  and  C_12
REMARK    5  A    between atoms: N_4  and  C_5
REMARK    6  A    between atoms: C_5  and  C_6
REMARK    7  A    between atoms: C_15  and  C_16
REMARK    8  A    between atoms: C_16  and  N_17
REMARK    9  A    between atoms: C_18  and  C_20
REMARK                            x       y       z     vdW  Elec       q    Type
REMARK                         _______ _______ _______ _____ _____    ______ ____
ROOT
ATOM      1  C   UNL     1      51.431   3.239  17.768  0.00  0.00    +0.000 A 
ATOM      2  C   UNL     1      50.703   4.417  18.022  0.00  0.00    +0.000 A 
ATOM      3  C   UNL     1      49.334   4.495  17.743  0.00  0.00    +0.000 A 
ATOM      4  C   UNL     1      48.649   3.376  17.260  0.00  0.00    +0.000 A 
ATOM      5  C   UNL     1      49.364   2.197  17.028  0.00  0.00    +0.000 A 
ATOM      6  C   UNL     1      50.736   2.136  17.255  0.00  0.00    +0.000 A 
ENDROOT
BRANCH   1   7
ATOM      7  C   UNL     1      52.946   3.208  17.980  0.00  0.00    +0.000 C 
BRANCH   7   9
ATOM      8  C   UNL     1      54.479   5.098  17.053  0.00  0.00    +0.000 C 
ATOM      9  C   UNL     1      53.510   4.648  18.135  0.00  0.00    +0.000 C 
ENDBRANCH   7   9
BRANCH   7  10
ATOM     10  N   UNL     1      53.332   2.375  19.137  0.00  0.00    +0.000 NA
ATOM     11  H   UNL     1      52.701   1.576  19.190  0.00  0.00    +0.000 HD
BRANCH  10  12
ATOM     12  C   UNL     1      54.709   1.878  19.049  0.00  0.00    +0.000 C 
BRANCH  12  13
ATOM     13  C   UNL     1      54.828   0.640  18.206  0.00  0.00    +0.000 A 
ATOM     14  C   UNL     1      55.076   0.701  16.834  0.00  0.00    +0.000 A 
ATOM     15  C   UNL     1      55.137  -0.474  16.092  0.00  0.00    +0.000 A 
ATOM     16  C   UNL     1      54.941  -1.679  16.747  0.00  0.00    +0.000 A 
ATOM     17  N   UNL     1      54.690  -1.782  18.069  0.00  0.00    +0.000 NA
ATOM     18  C   UNL     1      54.641  -0.624  18.766  0.00  0.00    +0.000 A 
ENDBRANCH  12  13
ENDBRANCH  10  12
ENDBRANCH   7  10
ENDBRANCH   1   7
BRANCH   4  19
ATOM     19  C   UNL     1      47.180   3.423  16.940  0.00  0.00    +0.000 C 
BRANCH  19  20
ATOM     20  N   UNL     1      46.867   4.413  15.940  0.00  0.00    +0.000 N 
ATOM     21  C   UNL     1      46.940   4.162  14.595  0.00  0.00    +0.000 C 
ATOM     22  O   UNL     1      47.319   3.080  14.147  0.00  0.00    +0.000 OA
ATOM     23  H   UNL     1      46.648   5.345  16.272  0.00  0.00    +0.000 HD
BRANCH  21  24
ATOM     24  C   UNL     1      46.473   5.225  13.693  0.00  0.00    +0.000 A 
ATOM     25  C   UNL     1      47.298   6.319  13.460  0.00  0.00    +0.000 A 
ATOM     26  S   UNL     1      46.658   7.435  12.343  0.00  0.00    +0.000 S 
ATOM     27  C   UNL     1      45.231   6.528  12.173  0.00  0.00    +0.000 A 
ATOM     28  N   UNL     1      44.228   6.952  11.357  0.00  0.00    +0.000 NA
ATOM     29  C   UNL     1      43.189   6.192  11.344  0.00  0.00    +0.000 A 
ATOM     30  N   UNL     1      43.062   5.034  12.068  0.00  0.00    +0.000 N 
ATOM     31  C   UNL     1      44.066   4.533  12.860  0.00  0.00    +0.000 A 
ATOM     32  O   UNL     1      43.949   3.450  13.424  0.00  0.00    +0.000 OA
ATOM     33  C   UNL     1      45.249   5.373  12.938  0.00  0.00    +0.000 A 
ATOM     34  H   UNL     1      42.223   4.474  12.001  0.00  0.00    +0.000 HD
ENDBRANCH  21  24
ENDBRANCH  19  20
ENDBRANCH   4  19
TORSDOF 8
ENDMDL
MODEL 7
REMARK VINA RESULT:    -6.987      2.633      3.454
REMARK INTER + INTRA:         -11.555
REMARK INTER:                 -10.278
REMARK INTRA:                  -1.277
REMARK UNBOUND:                -1.300
REMARK  Name = 
REMARK  9 active torsions:
REMARK  status: ('A' for Active; 'I' for Inactive)
REMARK    1  A    between atoms: C_1  and  C_2
REMARK    2  A    between atoms: C_2  and  C_3
REMARK    3  A    between atoms: C_3  and  N_4
REMARK    4  A    between atoms: C_3  and  C_12
REMARK    5  A    between atoms: N_4  and  C_5
REMARK    6  A    between atoms: C_5  and  C_6
REMARK    7  A    between atoms: C_15  and  C_16
REMARK    8  A    between atoms: C_16  and  N_17
REMARK    9  A    between atoms: C_18  and  C_20
REMARK                            x       y       z     vdW  Elec       q    Type
REMARK                         _______ _______ _______ _____ _____    ______ ____
ROOT
ATOM      1  C   UNL     1      45.773   5.246  11.866  0.00  0.00    +0.000 A 
ATOM      2  C   UNL     1      46.214   4.735  13.102  0.00  0.00    +0.000 A 
ATOM      3  C   UNL     1      47.073   5.473  13.924  0.00  0.00    +0.000 A 
ATOM      4  C   UNL     1      47.462   6.764  13.555  0.00  0.00    +0.000 A 
ATOM      5  C   UNL     1      47.008   7.284  12.340  0.00  0.00    +0.000 A 
ATOM      6  C   UNL     1      46.197   6.529  11.498  0.00  0.00    +0.000 A 
ENDROOT
BRANCH   1   7
ATOM      7  C   UNL     1      44.920   4.380  10.935  0.00  0.00    +0.000 C 
BRANCH   7   9
ATOM      8  C   UNL     1      42.645   5.408  11.678  0.00  0.00    +0.000 C 
ATOM      9  C   UNL     1      43.503   4.160  11.532  0.00  0.00    +0.000 C 
ENDBRANCH   7   9
BRANCH   7  10
ATOM     10  N   UNL     1      44.825   4.949   9.575  0.00  0.00    +0.000 NA
ATOM     11  H   UNL     1      45.746   5.284   9.295  0.00  0.00    +0.000 HD
BRANCH  10  12
ATOM     12  C   UNL     1      44.357   3.977   8.581  0.00  0.00    +0.000 C 
BRANCH  12  13
ATOM     13  C   UNL     1      45.462   3.104   8.057  0.00  0.00    +0.000 A 
ATOM     14  C   UNL     1      45.553   1.751   8.387  0.00  0.00    +0.000 A 
ATOM     15  C   UNL     1      46.619   0.995   7.907  0.00  0.00    +0.000 A 
ATOM     16  C   UNL     1      47.567   1.622   7.115  0.00  0.00    +0.000 A 
ATOM     17  N   UNL     1      47.522   2.928   6.780  0.00  0.00    +0.000 NA
ATOM     18  C   UNL     1      46.473   3.636   7.257  0.00  0.00    +0.000 A 
ENDBRANCH  12  13
ENDBRANCH  10  12
ENDBRANCH   7  10
ENDBRANCH   1   7
BRANCH   4  19
ATOM     19  C   UNL     1      48.391   7.585  14.408  0.00  0.00    +0.000 C 
BRANCH  19  20
ATOM     20  N   UNL     1      49.399   6.781  15.053  0.00  0.00    +0.000 N 
ATOM     21  C   UNL     1      49.525   6.697  16.415  0.00  0.00    +0.000 C 
ATOM     22  O   UNL     1      48.808   7.337  17.183  0.00  0.00    +0.000 OA
ATOM     23  H   UNL     1      50.071   6.320  14.451  0.00  0.00    +0.000 HD
BRANCH  21  24
ATOM     24  C   UNL     1      50.517   5.744  16.933  0.00  0.00    +0.000 A 
ATOM     25  C   UNL     1      50.079   4.525  17.438  0.00  0.00    +0.000 A 
ATOM     26  S   UNL     1      51.342   3.496  17.937  0.00  0.00    +0.000 S 
ATOM     27  C   UNL     1      52.517   4.662  17.551  0.00  0.00    +0.000 A 
ATOM     28  N   UNL     1      53.838   4.417  17.763  0.00  0.00    +0.000 NA
ATOM     29  C   UNL     1      54.620   5.393  17.460  0.00  0.00    +0.000 A 
ATOM     30  N   UNL     1      54.203   6.597  16.952  0.00  0.00    +0.000 N 
ATOM     31  C   UNL     1      52.888   6.872  16.666  0.00  0.00    +0.000 A 
ATOM     32  O   UNL     1      52.562   7.927  16.130  0.00  0.00    +0.000 OA
ATOM     33  C   UNL     1      51.958   5.815  17.023  0.00  0.00    +0.000 A 
ATOM     34  H   UNL     1      54.871   7.318  16.721  0.00  0.00    +0.000 HD
ENDBRANCH  21  24
ENDBRANCH  19  20
ENDBRANCH   4  19
TORSDOF 8
ENDMDL
MODEL 8
REMARK VINA RESULT:    -6.974      3.620      5.603
REMARK INTER + INTRA:         -11.536
REMARK INTER:                 -10.250
REMARK INTRA:                  -1.286
REMARK UNBOUND:                -1.300
REMARK  Name = 
REMARK  9 active torsions:
REMARK  status: ('A' for Active; 'I' for Inactive)
REMARK    1  A    between atoms: C_1  and  C_2
REMARK    2  A    between atoms: C_2  and  C_3
REMARK    3  A    between atoms: C_3  and  N_4
REMARK    4  A    between atoms: C_3  and  C_12
REMARK    5  A    between atoms: N_4  and  C_5
REMARK    6  A    between atoms: C_5  and  C_6
REMARK    7  A    between atoms: C_15  and  C_16
REMARK    8  A    between atoms: C_16  and  N_17
REMARK    9  A    between atoms: C_18  and  C_20
REMARK                            x       y       z     vdW  Elec       q    Type
REMARK                         _______ _______ _______ _____ _____    ______ ____
ROOT
ATOM      1  C   UNL     1      45.653   5.225  11.845  0.00  0.00    +0.000 A 
ATOM      2  C   UNL     1      46.015   4.471  12.977  0.00  0.00    +0.000 A 
ATOM      3  C   UNL     1      46.955   4.952  13.896  0.00  0.00    +0.000 A 
ATOM      4  C   UNL     1      47.509   6.226  13.733  0.00  0.00    +0.000 A 
ATOM      5  C   UNL     1      47.135   6.987  12.622  0.00  0.00    +0.000 A 
ATOM      6  C   UNL     1      46.241   6.486  11.680  0.00  0.00    +0.000 A 
ENDROOT
BRANCH   1   7
ATOM      7  C   UNL     1      44.704   4.635  10.798  0.00  0.00    +0.000 C 
BRANCH   7   9
ATOM      8  C   UNL     1      42.867   5.339  12.505  0.00  0.00    +0.000 C 
ATOM      9  C   UNL     1      43.246   5.107  11.049  0.00  0.00    +0.000 C 
ENDBRANCH   7   9
BRANCH   7  10
ATOM     10  N   UNL     1      45.123   4.960   9.419  0.00  0.00    +0.000 NA
ATOM     11  H   UNL     1      46.141   4.955   9.376  0.00  0.00    +0.000 HD
BRANCH  10  12
ATOM     12  C   UNL     1      44.607   4.009   8.428  0.00  0.00    +0.000 C 
BRANCH  12  13
ATOM     13  C   UNL     1      45.662   3.065   7.925  0.00  0.00    +0.000 A 
ATOM     14  C   UNL     1      45.727   1.737   8.349  0.00  0.00    +0.000 A 
ATOM     15  C   UNL     1      46.749   0.914   7.884  0.00  0.00    +0.000 A 
ATOM     16  C   UNL     1      47.681   1.450   7.009  0.00  0.00    +0.000 A 
ATOM     17  N   UNL     1      47.660   2.730   6.582  0.00  0.00    +0.000 NA
ATOM     18  C   UNL     1      46.653   3.505   7.047  0.00  0.00    +0.000 A 
ENDBRANCH  12  13
ENDBRANCH  10  12
ENDBRANCH   7  10
ENDBRANCH   1   7
BRANCH   4  19
ATOM     19  C   UNL     1      48.528   6.775  14.694  0.00  0.00    +0.000 C 
BRANCH  19  20
ATOM     20  N   UNL     1      49.751   7.163  14.035  0.00  0.00    +0.000 N 
ATOM     21  C   UNL     1      50.301   8.412  14.162  0.00  0.00    +0.000 C 
ATOM     22  O   UNL     1      49.764   9.304  14.817  0.00  0.00    +0.000 OA
ATOM     23  H   UNL     1      50.167   6.486  13.407  0.00  0.00    +0.000 HD
BRANCH  21  24
ATOM     24  C   UNL     1      51.612   8.628  13.534  0.00  0.00    +0.000 A 
ATOM     25  C   UNL     1      52.653   9.128  14.306  0.00  0.00    +0.000 A 
ATOM     26  S   UNL     1      54.129   9.260  13.466  0.00  0.00    +0.000 S 
ATOM     27  C   UNL     1      53.419   8.707  12.024  0.00  0.00    +0.000 A 
ATOM     28  N   UNL     1      54.151   8.603  10.881  0.00  0.00    +0.000 NA
ATOM     29  C   UNL     1      53.486   8.205   9.853  0.00  0.00    +0.000 A 
ATOM     30  N   UNL     1      52.152   7.889   9.862  0.00  0.00    +0.000 N 
ATOM     31  C   UNL     1      51.384   7.923  11.001  0.00  0.00    +0.000 A 
ATOM     32  O   UNL     1      50.215   7.549  10.989  0.00  0.00    +0.000 OA
ATOM     33  C   UNL     1      52.078   8.400  12.184  0.00  0.00    +0.000 A 
ATOM     34  H   UNL     1      51.692   7.568   9.022  0.00  0.00    +0.000 HD
ENDBRANCH  21  24
ENDBRANCH  19  20
ENDBRANCH   4  19
TORSDOF 8
ENDMDL
MODEL 9
REMARK VINA RESULT:    -6.799      3.542      8.741
REMARK INTER + INTRA:         -11.279
REMARK INTER:                  -8.999
REMARK INTRA:                  -2.280
REMARK UNBOUND:                -1.300
REMARK  Name = 
REMARK  9 active torsions:
REMARK  status: ('A' for Active; 'I' for Inactive)
REMARK    1  A    between atoms: C_1  and  C_2
REMARK    2  A    between atoms: C_2  and  C_3
REMARK    3  A    between atoms: C_3  and  N_4
REMARK    4  A    between atoms: C_3  and  C_12
REMARK    5  A    between atoms: N_4  and  C_5
REMARK    6  A    between atoms: C_5  and  C_6
REMARK    7  A    between atoms: C_15  and  C_16
REMARK    8  A    between atoms: C_16  and  N_17
REMARK    9  A    between atoms: C_18  and  C_20
REMARK                            x       y       z     vdW  Elec       q    Type
REMARK                         _______ _______ _______ _____ _____    ______ ____
ROOT
ATOM      1  C   UNL     1      49.807   7.308  18.465  0.00  0.00    +0.000 A 
ATOM      2  C   UNL     1      50.480   6.832  17.324  0.00  0.00    +0.000 A 
ATOM      3  C   UNL     1      50.071   7.201  16.037  0.00  0.00    +0.000 A 
ATOM      4  C   UNL     1      49.016   8.103  15.866  0.00  0.00    +0.000 A 
ATOM      5  C   UNL     1      48.361   8.596  16.998  0.00  0.00    +0.000 A 
ATOM      6  C   UNL     1      48.733   8.187  18.275  0.00  0.00    +0.000 A 
ENDROOT
BRANCH   1   7
ATOM      7  C   UNL     1      50.203   6.809  19.857  0.00  0.00    +0.000 C 
BRANCH   7   9
ATOM      8  C   UNL     1      49.591   8.382  21.841  0.00  0.00    +0.000 C 
ATOM      9  C   UNL     1      49.159   7.251  20.918  0.00  0.00    +0.000 C 
ENDBRANCH   7   9
BRANCH   7  10
ATOM     10  N   UNL     1      50.389   5.344  19.893  0.00  0.00    +0.000 NA
ATOM     11  H   UNL     1      50.939   5.104  20.717  0.00  0.00    +0.000 HD
BRANCH  10  12
ATOM     12  C   UNL     1      49.120   4.609  19.946  0.00  0.00    +0.000 C 
BRANCH  12  13
ATOM     13  C   UNL     1      48.683   4.107  18.598  0.00  0.00    +0.000 A 
ATOM     14  C   UNL     1      47.480   4.507  18.016  0.00  0.00    +0.000 A 
ATOM     15  C   UNL     1      47.102   3.980  16.784  0.00  0.00    +0.000 A 
ATOM     16  C   UNL     1      47.942   3.063  16.174  0.00  0.00    +0.000 A 
ATOM     17  N   UNL     1      49.108   2.643  16.706  0.00  0.00    +0.000 NA
ATOM     18  C   UNL     1      49.452   3.174  17.901  0.00  0.00    +0.000 A 
ENDBRANCH  12  13
ENDBRANCH  10  12
ENDBRANCH   7  10
ENDBRANCH   1   7
BRANCH   4  19
ATOM     19  C   UNL     1      48.542   8.517  14.500  0.00  0.00    +0.000 C 
BRANCH  19  20
ATOM     20  N   UNL     1      47.512   7.646  13.988  0.00  0.00    +0.000 N 
ATOM     21  C   UNL     1      47.780   6.564  13.191  0.00  0.00    +0.000 C 
ATOM     22  O   UNL     1      48.920   6.285  12.821  0.00  0.00    +0.000 OA
ATOM     23  H   UNL     1      46.553   7.905  14.190  0.00  0.00    +0.000 HD
BRANCH  21  24
ATOM     24  C   UNL     1      46.645   5.696  12.846  0.00  0.00    +0.000 A 
ATOM     25  C   UNL     1      46.749   4.330  13.076  0.00  0.00    +0.000 A 
ATOM     26  S   UNL     1      45.336   3.460  12.694  0.00  0.00    +0.000 S 
ATOM     27  C   UNL     1      44.551   4.867  12.153  0.00  0.00    +0.000 A 
ATOM     28  N   UNL     1      43.284   4.814  11.660  0.00  0.00    +0.000 NA
ATOM     29  C   UNL     1      42.818   5.943  11.253  0.00  0.00    +0.000 A 
ATOM     30  N   UNL     1      43.502   7.130  11.302  0.00  0.00    +0.000 N 
ATOM     31  C   UNL     1      44.760   7.247  11.842  0.00  0.00    +0.000 A 
ATOM     32  O   UNL     1      45.306   8.341  11.949  0.00  0.00    +0.000 OA
ATOM     33  C   UNL     1      45.346   5.994  12.284  0.00  0.00    +0.000 A 
ATOM     34  H   UNL     1      43.073   7.986  10.979  0.00  0.00    +0.000 HD
ENDBRANCH  21  24
ENDBRANCH  19  20
ENDBRANCH   4  19
TORSDOF 8
ENDMDL
