MODEL 1
REMARK VINA RESULT:    -7.883      0.000      0.000
REMARK INTER + INTRA:         -11.102
REMARK INTER:                 -10.187
REMARK INTRA:                  -0.915
REMARK UNBOUND:                -0.915
REMARK  Name = 
REMARK  6 active torsions:
REMARK  status: ('A' for Active; 'I' for Inactive)
REMARK    1  A    between atoms: C_1  and  C_2
REMARK    2  A    between atoms: C_2  and  N_3
REMARK    3  A    between atoms: C_2  and  C_16
REMARK    4  A    between atoms: C_4  and  C_6
REMARK    5  A    between atoms: C_19  and  O_20
REMARK    6  A    between atoms: O_20  and  C_21
REMARK                            x       y       z     vdW  Elec       q    Type
REMARK                         _______ _______ _______ _____ _____    ______ ____
ROOT
ATOM      1  C   UNL     1      43.842   2.785  10.889  0.00  0.00    +0.000 C 
ATOM      2  C   UNL     1      44.247   3.852   9.864  0.00  0.00    +0.000 C 
ENDROOT
BRANCH   2   3
ATOM      3  C   UNL     1      45.194   3.250   8.825  0.00  0.00    +0.000 A 
ATOM      4  C   UNL     1      45.498   1.887   8.854  0.00  0.00    +0.000 A 
ATOM      5  C   UNL     1      46.359   1.358   7.896  0.00  0.00    +0.000 A 
ATOM      6  C   UNL     1      46.876   2.187   6.905  0.00  0.00    +0.000 A 
ATOM      7  C   UNL     1      46.558   3.535   6.969  0.00  0.00    +0.000 A 
ATOM      8  N   UNL     1      45.734   4.084   7.900  0.00  0.00    +0.000 NA
BRANCH   6   9
ATOM      9  O   UNL     1      47.734   1.767   5.918  0.00  0.00    +0.000 OA
BRANCH   9  10
ATOM     10  C   UNL     1      47.203   1.034   4.866  0.00  0.00    +0.000 A 
ATOM     11  C   UNL     1      46.484   1.717   3.896  0.00  0.00    +0.000 A 
ATOM     12  N   UNL     1      45.947   1.100   2.813  0.00  0.00    +0.000 NA
ATOM     13  C   UNL     1      46.151  -0.236   2.753  0.00  0.00    +0.000 A 
ATOM     14  C   UNL     1      46.848  -0.924   3.732  0.00  0.00    +0.000 A 
ATOM     15  N   UNL     1      47.377  -0.311   4.813  0.00  0.00    +0.000 NA
ENDBRANCH   9  10
ENDBRANCH   6   9
ENDBRANCH   2   3
BRANCH   2  16
ATOM     16  N   UNL     1      44.868   5.014  10.497  0.00  0.00    +0.000 N 
ATOM     17  C   UNL     1      44.142   5.971  11.155  0.00  0.00    +0.000 C 
ATOM     18  O   UNL     1      42.927   5.907  11.306  0.00  0.00    +0.000 OA
ATOM     19  H   UNL     1      45.762   5.296  10.106  0.00  0.00    +0.000 HD
BRANCH  17  20
ATOM     20  C   UNL     1      44.917   7.060  11.766  0.00  0.00    +0.000 A 
ATOM     21  C   UNL     1      44.649   8.377  11.413  0.00  0.00    +0.000 A 
ATOM     22  S   UNL     1      45.610   9.514  12.245  0.00  0.00    +0.000 S 
ATOM     23  C   UNL     1      46.449   8.286  13.068  0.00  0.00    +0.000 A 
ATOM     24  N   UNL     1      47.455   8.580  13.935  0.00  0.00    +0.000 NA
ATOM     25  C   UNL     1      48.028   7.547  14.455  0.00  0.00    +0.000 A 
ATOM     26  N   UNL     1      47.683   6.247  14.199  0.00  0.00    +0.000 N 
ATOM     27  C   UNL     1      46.641   5.905  13.372  0.00  0.00    +0.000 A 
ATOM     28  O   UNL     1      46.292   4.736  13.232  0.00  0.00    +0.000 OA
ATOM     29  C   UNL     1      45.983   7.026  12.734  0.00  0.00    +0.000 A 
ATOM     30  H   UNL     1      48.161   5.485  14.656  0.00  0.00    +0.000 HD
ENDBRANCH  17  20
ENDBRANCH   2  16
TORSDOF 5
ENDMDL
MODEL 2
REMARK VINA RESULT:    -7.544      2.915      5.087
REMARK INTER + INTRA:         -10.665
REMARK INTER:                 -10.163
REMARK INTRA:                  -0.502
REMARK UNBOUND:                -0.915
REMARK  Name = 
REMARK  6 active torsions:
REMARK  status: ('A' for Active; 'I' for Inactive)
REMARK    1  A    between atoms: C_1  and  C_2
REMARK    2  A    between atoms: C_2  and  N_3
REMARK    3  A    between atoms: C_2  and  C_16
REMARK    4  A    between atoms: C_4  and  C_6
REMARK    5  A    between atoms: C_19  and  O_20
REMARK    6  A    between atoms: O_20  and  C_21
REMARK                            x       y       z     vdW  Elec       q    Type
REMARK                         _______ _______ _______ _____ _____    ______ ____
ROOT
ATOM      1  C   UNL     1      45.451   8.587  12.862  0.00  0.00    +0.000 C 
ATOM      2  C   UNL     1      46.487   7.471  12.679  0.00  0.00    +0.000 C 
ENDROOT
BRANCH   2   3
ATOM      3  C   UNL     1      45.880   6.317  11.879  0.00  0.00    +0.000 A 
ATOM      4  C   UNL     1      45.052   5.383  12.506  0.00  0.00    +0.000 A 
ATOM      5  C   UNL     1      44.506   4.343  11.759  0.00  0.00    +0.000 A 
ATOM      6  C   UNL     1      44.764   4.268  10.394  0.00  0.00    +0.000 A 
ATOM      7  C   UNL     1      45.627   5.211   9.855  0.00  0.00    +0.000 A 
ATOM      8  N   UNL     1      46.188   6.228  10.561  0.00  0.00    +0.000 NA
BRANCH   6   9
ATOM      9  O   UNL     1      44.278   3.284   9.569  0.00  0.00    +0.000 OA
BRANCH   9  10
ATOM     10  C   UNL     1      45.142   2.740   8.629  0.00  0.00    +0.000 A 
ATOM     11  C   UNL     1      45.380   3.465   7.469  0.00  0.00    +0.000 A 
ATOM     12  N   UNL     1      46.228   3.037   6.499  0.00  0.00    +0.000 NA
ATOM     13  C   UNL     1      46.817   1.843   6.739  0.00  0.00    +0.000 A 
ATOM     14  C   UNL     1      46.564   1.106   7.883  0.00  0.00    +0.000 A 
ATOM     15  N   UNL     1      45.716   1.530   8.845  0.00  0.00    +0.000 NA
ENDBRANCH   9  10
ENDBRANCH   6   9
ENDBRANCH   2   3
BRANCH   2  16
ATOM     16  N   UNL     1      47.000   6.981  13.957  0.00  0.00    +0.000 N 
ATOM     17  C   UNL     1      48.312   6.633  14.139  0.00  0.00    +0.000 C 
ATOM     18  O   UNL     1      49.165   6.747  13.267  0.00  0.00    +0.000 OA
ATOM     19  H   UNL     1      46.314   6.539  14.560  0.00  0.00    +0.000 HD
BRANCH  17  20
ATOM     20  C   UNL     1      48.678   6.191  15.493  0.00  0.00    +0.000 A 
ATOM     21  C   UNL     1      49.625   6.905  16.217  0.00  0.00    +0.000 A 
ATOM     22  S   UNL     1      49.900   6.280  17.780  0.00  0.00    +0.000 S 
ATOM     23  C   UNL     1      48.802   5.008  17.525  0.00  0.00    +0.000 A 
ATOM     24  N   UNL     1      48.583   4.066  18.481  0.00  0.00    +0.000 NA
ATOM     25  C   UNL     1      47.754   3.139  18.134  0.00  0.00    +0.000 A 
ATOM     26  N   UNL     1      47.115   3.071  16.925  0.00  0.00    +0.000 N 
ATOM     27  C   UNL     1      47.265   4.027  15.952  0.00  0.00    +0.000 A 
ATOM     28  O   UNL     1      46.610   3.994  14.914  0.00  0.00    +0.000 OA
ATOM     29  C   UNL     1      48.211   5.076  16.275  0.00  0.00    +0.000 A 
ATOM     30  H   UNL     1      46.463   2.327  16.725  0.00  0.00    +0.000 HD
ENDBRANCH  17  20
ENDBRANCH   2  16
TORSDOF 5
ENDMDL
MODEL 3
REMARK VINA RESULT:    -7.271      4.551      9.332
REMARK INTER + INTRA:         -10.312
REMARK INTER:                  -9.399
REMARK INTRA:                  -0.913
REMARK UNBOUND:                -0.915
REMARK  Name = 
REMARK  6 active torsions:
REMARK  status: ('A' for Active; 'I' for Inactive)
REMARK    1  A    between atoms: C_1  and  C_2
REMARK    2  A    between atoms: C_2  and  N_3
REMARK    3  A    between atoms: C_2  and  C_16
REMARK    4  A    between atoms: C_4  and  C_6
REMARK    5  A    between atoms: C_19  and  O_20
REMARK    6  A    between atoms: O_20  and  C_21
REMARK                            x       y       z     vdW  Elec       q    Type
REMARK                         _______ _______ _______ _____ _____    ______ ____
ROOT
ATOM      1  C   UNL     1      49.207   7.921  12.717  0.00  0.00    +0.000 C 
ATOM      2  C   UNL     1      48.045   7.249  13.461  0.00  0.00    +0.000 C 
ENDROOT
BRANCH   2   3
ATOM      3  C   UNL     1      48.562   6.553  14.720  0.00  0.00    +0.000 A 
ATOM      4  C   UNL     1      49.729   6.999  15.345  0.00  0.00    +0.000 A 
ATOM      5  C   UNL     1      50.179   6.353  16.493  0.00  0.00    +0.000 A 
ATOM      6  C   UNL     1      49.443   5.297  17.021  0.00  0.00    +0.000 A 
ATOM      7  C   UNL     1      48.317   4.889  16.320  0.00  0.00    +0.000 A 
ATOM      8  N   UNL     1      47.862   5.489  15.188  0.00  0.00    +0.000 NA
BRANCH   6   9
ATOM      9  O   UNL     1      49.800   4.592  18.144  0.00  0.00    +0.000 OA
BRANCH   9  10
ATOM     10  C   UNL     1      50.701   3.548  17.996  0.00  0.00    +0.000 A 
ATOM     11  C   UNL     1      50.242   2.369  17.423  0.00  0.00    +0.000 A 
ATOM     12  N   UNL     1      51.046   1.298  17.208  0.00  0.00    +0.000 NA
ATOM     13  C   UNL     1      52.330   1.455  17.604  0.00  0.00    +0.000 A 
ATOM     14  C   UNL     1      52.786   2.620  18.197  0.00  0.00    +0.000 A 
ATOM     15  N   UNL     1      51.983   3.685  18.417  0.00  0.00    +0.000 NA
ENDBRANCH   9  10
ENDBRANCH   6   9
ENDBRANCH   2   3
BRANCH   2  16
ATOM     16  N   UNL     1      47.330   6.295  12.616  0.00  0.00    +0.000 N 
ATOM     17  C   UNL     1      46.273   6.660  11.824  0.00  0.00    +0.000 C 
ATOM     18  O   UNL     1      45.875   7.815  11.725  0.00  0.00    +0.000 OA
ATOM     19  H   UNL     1      47.368   5.329  12.923  0.00  0.00    +0.000 HD
BRANCH  17  20
ATOM     20  C   UNL     1      45.681   5.589  11.008  0.00  0.00    +0.000 A 
ATOM     21  C   UNL     1      45.800   5.634   9.624  0.00  0.00    +0.000 A 
ATOM     22  S   UNL     1      45.093   4.297   8.837  0.00  0.00    +0.000 S 
ATOM     23  C   UNL     1      44.563   3.639  10.311  0.00  0.00    +0.000 A 
ATOM     24  N   UNL     1      43.846   2.484  10.348  0.00  0.00    +0.000 NA
ATOM     25  C   UNL     1      43.477   2.124  11.532  0.00  0.00    +0.000 A 
ATOM     26  N   UNL     1      43.766   2.805  12.684  0.00  0.00    +0.000 N 
ATOM     27  C   UNL     1      44.531   3.945  12.699  0.00  0.00    +0.000 A 
ATOM     28  O   UNL     1      44.855   4.485  13.753  0.00  0.00    +0.000 OA
ATOM     29  C   UNL     1      44.945   4.414  11.393  0.00  0.00    +0.000 A 
ATOM     30  H   UNL     1      43.461   2.458  13.581  0.00  0.00    +0.000 HD
ENDBRANCH  17  20
ENDBRANCH   2  16
TORSDOF 5
ENDMDL
MODEL 4
REMARK VINA RESULT:    -6.921      5.067     11.534
REMARK INTER + INTRA:          -9.859
REMARK INTER:                  -8.759
REMARK INTRA:                  -1.100
REMARK UNBOUND:                -0.915
REMARK  Name = 
REMARK  6 active torsions:
REMARK  status: ('A' for Active; 'I' for Inactive)
REMARK    1  A    between atoms: C_1  and  C_2
REMARK    2  A    between atoms: C_2  and  N_3
REMARK    3  A    between atoms: C_2  and  C_16
REMARK    4  A    between atoms: C_4  and  C_6
REMARK    5  A    between atoms: C_19  and  O_20
REMARK    6  A    between atoms: O_20  and  C_21
REMARK                            x       y       z     vdW  Elec       q    Type
REMARK                         _______ _______ _______ _____ _____    ______ ____
ROOT
ATOM      1  C   UNL     1      47.646   3.136  16.773  0.00  0.00    +0.000 C 
ATOM      2  C   UNL     1      47.985   4.517  16.197  0.00  0.00    +0.000 C 
ENDROOT
BRANCH   2   3
ATOM      3  C   UNL     1      48.088   5.546  17.324  0.00  0.00    +0.000 A 
ATOM      4  C   UNL     1      47.308   5.411  18.475  0.00  0.00    +0.000 A 
ATOM      5  C   UNL     1      47.420   6.356  19.491  0.00  0.00    +0.000 A 
ATOM      6  C   UNL     1      48.331   7.401  19.360  0.00  0.00    +0.000 A 
ATOM      7  C   UNL     1      49.039   7.486  18.170  0.00  0.00    +0.000 A 
ATOM      8  N   UNL     1      48.940   6.588  17.154  0.00  0.00    +0.000 NA
BRANCH   6   9
ATOM      9  O   UNL     1      48.517   8.384  20.300  0.00  0.00    +0.000 OA
BRANCH   9  10
ATOM     10  C   UNL     1      47.449   9.226  20.577  0.00  0.00    +0.000 A 
ATOM     11  C   UNL     1      46.898   9.178  21.850  0.00  0.00    +0.000 A 
ATOM     12  N   UNL     1      45.870   9.978  22.233  0.00  0.00    +0.000 NA
ATOM     13  C   UNL     1      45.410  10.818  21.278  0.00  0.00    +0.000 A 
ATOM     14  C   UNL     1      45.942  10.851  20.000  0.00  0.00    +0.000 A 
ATOM     15  N   UNL     1      46.961  10.051  19.618  0.00  0.00    +0.000 NA
ENDBRANCH   9  10
ENDBRANCH   6   9
ENDBRANCH   2   3
BRANCH   2  16
ATOM     16  N   UNL     1      47.005   4.954  15.205  0.00  0.00    +0.000 N 
ATOM     17  C   UNL     1      47.360   5.619  14.062  0.00  0.00    +0.000 C 
ATOM     18  O   UNL     1      48.523   5.858  13.757  0.00  0.00    +0.000 OA
ATOM     19  H   UNL     1      46.067   5.109  15.560  0.00  0.00    +0.000 HD
BRANCH  17  20
ATOM     20  C   UNL     1      46.260   5.962  13.148  0.00  0.00    +0.000 A 
ATOM     21  C   UNL     1      46.009   7.295  12.844  0.00  0.00    +0.000 A 
ATOM     22  S   UNL     1      44.727   7.511  11.740  0.00  0.00    +0.000 S 
ATOM     23  C   UNL     1      44.433   5.839  11.669  0.00  0.00    +0.000 A 
ATOM     24  N   UNL     1      43.422   5.334  10.911  0.00  0.00    +0.000 NA
ATOM     25  C   UNL     1      43.292   4.051  10.984  0.00  0.00    +0.000 A 
ATOM     26  N   UNL     1      44.083   3.225  11.736  0.00  0.00    +0.000 N 
ATOM     27  C   UNL     1      45.146   3.684  12.473  0.00  0.00    +0.000 A 
ATOM     28  O   UNL     1      45.898   2.913  13.063  0.00  0.00    +0.000 OA
ATOM     29  C   UNL     1      45.319   5.122  12.454  0.00  0.00    +0.000 A 
ATOM     30  H   UNL     1      43.938   2.226  11.733  0.00  0.00    +0.000 HD
ENDBRANCH  17  20
ENDBRANCH   2  16
TORSDOF 5
ENDMDL
MODEL 5
REMARK VINA RESULT:    -6.920      1.748      2.768
REMARK INTER + INTRA:          -9.859
REMARK INTER:                  -9.468
REMARK INTRA:                  -0.391
REMARK UNBOUND:                -0.915
REMARK  Name = 
REMARK  6 active torsions:
REMARK  status: ('A' for Active; 'I' for Inactive)
REMARK    1  A    between atoms: C_1  and  C_2
REMARK    2  A    between atoms: C_2  and  N_3
REMARK    3  A    between atoms: C_2  and  C_16
REMARK    4  A    between atoms: C_4  and  C_6
REMARK    5  A    between atoms: C_19  and  O_20
REMARK    6  A    between atoms: O_20  and  C_21
REMARK                            x       y       z     vdW  Elec       q    Type
REMARK                         _______ _______ _______ _____ _____    ______ ____
ROOT
ATOM      1  C   UNL     1      43.663   3.422  10.997  0.00  0.00    +0.000 C 
ATOM      2  C   UNL     1      44.144   4.330   9.857  0.00  0.00    +0.000 C 
ENDROOT
BRANCH   2   3
ATOM      3  C   UNL     1      45.095   3.561   8.939  0.00  0.00    +0.000 A 
ATOM      4  C   UNL     1      45.228   2.176   9.062  0.00  0.00    +0.000 A 
ATOM      5  C   UNL     1      46.096   1.495   8.213  0.00  0.00    +0.000 A 
ATOM      6  C   UNL     1      46.792   2.197   7.234  0.00  0.00    +0.000 A 
ATOM      7  C   UNL     1      46.634   3.575   7.203  0.00  0.00    +0.000 A 
ATOM      8  N   UNL     1      45.808   4.270   8.028  0.00  0.00    +0.000 NA
BRANCH   6   9
ATOM      9  O   UNL     1      47.672   1.622   6.351  0.00  0.00    +0.000 OA
BRANCH   9  10
ATOM     10  C   UNL     1      47.155   1.063   5.191  0.00  0.00    +0.000 A 
ATOM     11  C   UNL     1      47.234  -0.315   5.043  0.00  0.00    +0.000 A 
ATOM     12  N   UNL     1      46.735  -0.965   3.962  0.00  0.00    +0.000 NA
ATOM     13  C   UNL     1      46.164  -0.170   3.027  0.00  0.00    +0.000 A 
ATOM     14  C   UNL     1      46.105   1.206   3.160  0.00  0.00    +0.000 A 
ATOM     15  N   UNL     1      46.607   1.853   4.234  0.00  0.00    +0.000 NA
ENDBRANCH   9  10
ENDBRANCH   6   9
ENDBRANCH   2   3
BRANCH   2  16
ATOM     16  N   UNL     1      44.795   5.540  10.356  0.00  0.00    +0.000 N 
ATOM     17  C   UNL     1      44.148   6.452  11.146  0.00  0.00    +0.000 C 
ATOM     18  O   UNL     1      42.995   6.306  11.535  0.00  0.00    +0.000 OA
ATOM     19  H   UNL     1      45.571   5.878   9.796  0.00  0.00    +0.000 HD
BRANCH  17  20
ATOM     20  C   UNL     1      44.951   7.600  11.593  0.00  0.00    +0.000 A 
ATOM     21  C   UNL     1      46.150   7.382  12.262  0.00  0.00    +0.000 A 
ATOM     22  S   UNL     1      46.971   8.819  12.672  0.00  0.00    +0.000 S 
ATOM     23  C   UNL     1      45.733   9.780  12.015  0.00  0.00    +0.000 A 
ATOM     24  N   UNL     1      45.795  11.138  12.065  0.00  0.00    +0.000 NA
ATOM     25  C   UNL     1      44.767  11.736  11.563  0.00  0.00    +0.000 A 
ATOM     26  N   UNL     1      43.688  11.105  11.005  0.00  0.00    +0.000 N 
ATOM     27  C   UNL     1      43.607   9.740  10.886  0.00  0.00    +0.000 A 
ATOM     28  O   UNL     1      42.673   9.203  10.298  0.00  0.00    +0.000 OA
ATOM     29  C   UNL     1      44.720   9.015  11.464  0.00  0.00    +0.000 A 
ATOM     30  H   UNL     1      42.924  11.636  10.613  0.00  0.00    +0.000 HD
ENDBRANCH  17  20
ENDBRANCH   2  16
TORSDOF 5
ENDMDL
MODEL 6
REMARK VINA RESULT:    -6.852      2.518      3.927
REMARK INTER + INTRA:          -9.770
REMARK INTER:                  -8.913
REMARK INTRA:                  -0.857
REMARK UNBOUND:                -0.915
REMARK  Name = 
REMARK  6 active torsions:
REMARK  status: ('A' for Active; 'I' for Inactive)
REMARK    1  A    between atoms: C_1  and  C_2
REMARK    2  A    between atoms: C_2  and  N_3
REMARK    3  A    between atoms: C_2  and  C_16
REMARK    4  A    between atoms: C_4  and  C_6
REMARK    5  A    between atoms: C_19  and  O_20
REMARK    6  A    between atoms: O_20  and  C_21
REMARK                            x       y       z     vdW  Elec       q    Type
REMARK                         _______ _______ _______ _____ _____    ______ ____
ROOT
ATOM      1  C   UNL     1      46.197   4.678  14.219  0.00  0.00    +0.000 C 
ATOM      2  C   UNL     1      45.889   5.727  13.143  0.00  0.00    +0.000 C 
ENDROOT
BRANCH   2   3
ATOM      3  C   UNL     1      45.560   5.039  11.818  0.00  0.00    +0.000 A 
ATOM      4  C   UNL     1      44.971   3.772  11.808  0.00  0.00    +0.000 A 
ATOM      5  C   UNL     1      44.676   3.165  10.591  0.00  0.00    +0.000 A 
ATOM      6  C   UNL     1      44.938   3.842   9.404  0.00  0.00    +0.000 A 
ATOM      7  C   UNL     1      45.559   5.079   9.498  0.00  0.00    +0.000 A 
ATOM      8  N   UNL     1      45.875   5.690  10.670  0.00  0.00    +0.000 NA
BRANCH   6   9
ATOM      9  O   UNL     1      44.688   3.333   8.153  0.00  0.00    +0.000 OA
BRANCH   9  10
ATOM     10  C   UNL     1      45.761   2.832   7.430  0.00  0.00    +0.000 A 
ATOM     11  C   UNL     1      46.373   1.675   7.894  0.00  0.00    +0.000 A 
ATOM     12  N   UNL     1      47.411   1.088   7.248  0.00  0.00    +0.000 NA
ATOM     13  C   UNL     1      47.818   1.718   6.122  0.00  0.00    +0.000 A 
ATOM     14  C   UNL     1      47.226   2.885   5.670  0.00  0.00    +0.000 A 
ATOM     15  N   UNL     1      46.196   3.473   6.317  0.00  0.00    +0.000 NA
ENDBRANCH   9  10
ENDBRANCH   6   9
ENDBRANCH   2   3
BRANCH   2  16
ATOM     16  N   UNL     1      46.993   6.667  12.961  0.00  0.00    +0.000 N 
ATOM     17  C   UNL     1      46.822   8.025  13.015  0.00  0.00    +0.000 C 
ATOM     18  O   UNL     1      45.747   8.557  13.267  0.00  0.00    +0.000 OA
ATOM     19  H   UNL     1      47.774   6.319  12.413  0.00  0.00    +0.000 HD
BRANCH  17  20
ATOM     20  C   UNL     1      48.038   8.834  12.845  0.00  0.00    +0.000 A 
ATOM     21  C   UNL     1      47.986  10.000  12.089  0.00  0.00    +0.000 A 
ATOM     22  S   UNL     1      49.472  10.836  12.028  0.00  0.00    +0.000 S 
ATOM     23  C   UNL     1      50.243   9.648  12.966  0.00  0.00    +0.000 A 
ATOM     24  N   UNL     1      51.567   9.739  13.266  0.00  0.00    +0.000 NA
ATOM     25  C   UNL     1      52.026   8.746  13.952  0.00  0.00    +0.000 A 
ATOM     26  N   UNL     1      51.284   7.676  14.375  0.00  0.00    +0.000 N 
ATOM     27  C   UNL     1      49.936   7.569  14.141  0.00  0.00    +0.000 A 
ATOM     28  O   UNL     1      49.275   6.647  14.611  0.00  0.00    +0.000 OA
ATOM     29  C   UNL     1      49.373   8.640  13.346  0.00  0.00    +0.000 A 
ATOM     30  H   UNL     1      51.704   6.941  14.925  0.00  0.00    +0.000 HD
ENDBRANCH  17  20
ENDBRANCH   2  16
TORSDOF 5
ENDMDL
MODEL 7
REMARK VINA RESULT:    -6.791      3.981      6.779
REMARK INTER + INTRA:          -9.692
REMARK INTER:                  -8.727
REMARK INTRA:                  -0.965
REMARK UNBOUND:                -0.915
REMARK  Name = 
REMARK  6 active torsions:
REMARK  status: ('A' for Active; 'I' for Inactive)
REMARK    1  A    between atoms: C_1  and  C_2
REMARK    2  A    between atoms: C_2  and  N_3
REMARK    3  A    between atoms: C_2  and  C_16
REMARK    4  A    between atoms: C_4  and  C_6
REMARK    5  A    between atoms: C_19  and  O_20
REMARK    6  A    between atoms: O_20  and  C_21
REMARK                            x       y       z     vdW  Elec       q    Type
REMARK                         _______ _______ _______ _____ _____    ______ ____
ROOT
ATOM      1  C   UNL     1      48.139   8.773  14.105  0.00  0.00    +0.000 C 
ATOM      2  C   UNL     1      48.309   7.251  14.201  0.00  0.00    +0.000 C 
ENDROOT
BRANCH   2   3
ATOM      3  C   UNL     1      47.312   6.553  13.275  0.00  0.00    +0.000 A 
ATOM      4  C   UNL     1      46.785   5.306  13.618  0.00  0.00    +0.000 A 
ATOM      5  C   UNL     1      45.876   4.689  12.763  0.00  0.00    +0.000 A 
ATOM      6  C   UNL     1      45.480   5.338  11.597  0.00  0.00    +0.000 A 
ATOM      7  C   UNL     1      46.079   6.556  11.309  0.00  0.00    +0.000 A 
ATOM      8  N   UNL     1      46.981   7.175  12.115  0.00  0.00    +0.000 NA
BRANCH   6   9
ATOM      9  O   UNL     1      44.594   4.818  10.687  0.00  0.00    +0.000 OA
BRANCH   9  10
ATOM     10  C   UNL     1      45.104   4.044   9.654  0.00  0.00    +0.000 A 
ATOM     11  C   UNL     1      45.040   2.663   9.784  0.00  0.00    +0.000 A 
ATOM     12  N   UNL     1      45.485   1.817   8.821  0.00  0.00    +0.000 NA
ATOM     13  C   UNL     1      46.011   2.416   7.728  0.00  0.00    +0.000 A 
ATOM     14  C   UNL     1      46.098   3.792   7.606  0.00  0.00    +0.000 A 
ATOM     15  N   UNL     1      45.660   4.635   8.567  0.00  0.00    +0.000 NA
ENDBRANCH   9  10
ENDBRANCH   6   9
ENDBRANCH   2   3
BRANCH   2  16
ATOM     16  N   UNL     1      48.149   6.766  15.570  0.00  0.00    +0.000 N 
ATOM     17  C   UNL     1      49.201   6.308  16.317  0.00  0.00    +0.000 C 
ATOM     18  O   UNL     1      50.361   6.312  15.919  0.00  0.00    +0.000 OA
ATOM     19  H   UNL     1      47.226   6.410  15.800  0.00  0.00    +0.000 HD
BRANCH  17  20
ATOM     20  C   UNL     1      48.881   5.884  17.688  0.00  0.00    +0.000 A 
ATOM     21  C   UNL     1      49.071   4.559  18.060  0.00  0.00    +0.000 A 
ATOM     22  S   UNL     1      48.690   4.249  19.694  0.00  0.00    +0.000 S 
ATOM     23  C   UNL     1      48.215   5.861  19.946  0.00  0.00    +0.000 A 
ATOM     24  N   UNL     1      47.739   6.274  21.152  0.00  0.00    +0.000 NA
ATOM     25  C   UNL     1      47.379   7.513  21.186  0.00  0.00    +0.000 A 
ATOM     26  N   UNL     1      47.460   8.382  20.131  0.00  0.00    +0.000 N 
ATOM     27  C   UNL     1      47.981   8.023  18.913  0.00  0.00    +0.000 A 
ATOM     28  O   UNL     1      48.130   8.845  18.012  0.00  0.00    +0.000 OA
ATOM     29  C   UNL     1      48.371   6.633  18.807  0.00  0.00    +0.000 A 
ATOM     30  H   UNL     1      47.178   9.346  20.232  0.00  0.00    +0.000 HD
ENDBRANCH  17  20
ENDBRANCH   2  16
TORSDOF 5
ENDMDL
MODEL 8
REMARK VINA RESULT:    -6.666      3.975      6.848
REMARK INTER + INTRA:          -9.531
REMARK INTER:                  -8.896
REMARK INTRA:                  -0.634
REMARK UNBOUND:                -0.915
REMARK  Name = 
REMARK  6 active torsions:
REMARK  status: ('A' for Active; 'I' for Inactive)
REMARK    1  A    between atoms: C_1  and  C_2
REMARK    2  A    between atoms: C_2  and  N_3
REMARK    3  A    between atoms: C_2  and  C_16
REMARK    4  A    between atoms: C_4  and  C_6
REMARK    5  A    between atoms: C_19  and  O_20
REMARK    6  A    between atoms: O_20  and  C_21
REMARK                            x       y       z     vdW  Elec       q    Type
REMARK                         _______ _______ _______ _____ _____    ______ ____
ROOT
ATOM      1  C   UNL     1      49.461   8.185  13.536  0.00  0.00    +0.000 C 
ATOM      2  C   UNL     1      48.925   6.878  14.133  0.00  0.00    +0.000 C 
ENDROOT
BRANCH   2   3
ATOM      3  C   UNL     1      47.756   6.359  13.295  0.00  0.00    +0.000 A 
ATOM      4  C   UNL     1      47.009   5.261  13.728  0.00  0.00    +0.000 A 
ATOM      5  C   UNL     1      45.946   4.808  12.952  0.00  0.00    +0.000 A 
ATOM      6  C   UNL     1      45.622   5.475  11.774  0.00  0.00    +0.000 A 
ATOM      7  C   UNL     1      46.437   6.531  11.394  0.00  0.00    +0.000 A 
ATOM      8  N   UNL     1      47.490   6.986  12.121  0.00  0.00    +0.000 NA
BRANCH   6   9
ATOM      9  O   UNL     1      44.598   5.108  10.937  0.00  0.00    +0.000 OA
BRANCH   9  10
ATOM     10  C   UNL     1      44.884   4.214   9.915  0.00  0.00    +0.000 A 
ATOM     11  C   UNL     1      44.556   2.879  10.109  0.00  0.00    +0.000 A 
ATOM     12  N   UNL     1      44.768   1.929   9.163  0.00  0.00    +0.000 NA
ATOM     13  C   UNL     1      45.336   2.374   8.019  0.00  0.00    +0.000 A 
ATOM     14  C   UNL     1      45.686   3.701   7.832  0.00  0.00    +0.000 A 
ATOM     15  N   UNL     1      45.480   4.645   8.775  0.00  0.00    +0.000 NA
ENDBRANCH   9  10
ENDBRANCH   6   9
ENDBRANCH   2   3
BRANCH   2  16
ATOM     16  N   UNL     1      48.513   7.038  15.526  0.00  0.00    +0.000 N 
ATOM     17  C   UNL     1      49.268   6.583  16.575  0.00  0.00    +0.000 C 
ATOM     18  O   UNL     1      50.364   6.052  16.433  0.00  0.00    +0.000 OA
ATOM     19  H   UNL     1      47.513   7.122  15.676  0.00  0.00    +0.000 HD
BRANCH  17  20
ATOM     20  C   UNL     1      48.732   6.851  17.917  0.00  0.00    +0.000 A 
ATOM     21  C   UNL     1      48.292   8.129  18.240  0.00  0.00    +0.000 A 
ATOM     22  S   UNL     1      47.664   8.254  19.821  0.00  0.00    +0.000 S 
ATOM     23  C   UNL     1      48.002   6.620  20.143  0.00  0.00    +0.000 A 
ATOM     24  N   UNL     1      47.733   6.073  21.360  0.00  0.00    +0.000 NA
ATOM     25  C   UNL     1      48.078   4.834  21.474  0.00  0.00    +0.000 A 
ATOM     26  N   UNL     1      48.657   4.087  20.483  0.00  0.00    +0.000 N 
ATOM     27  C   UNL     1      48.897   4.582  19.226  0.00  0.00    +0.000 A 
ATOM     28  O   UNL     1      49.330   3.866  18.327  0.00  0.00    +0.000 OA
ATOM     29  C   UNL     1      48.560   5.980  19.050  0.00  0.00    +0.000 A 
ATOM     30  H   UNL     1      48.885   3.116  20.634  0.00  0.00    +0.000 HD
ENDBRANCH  17  20
ENDBRANCH   2  16
TORSDOF 5
ENDMDL
MODEL 9
REMARK VINA RESULT:    -6.656      5.817     10.903
REMARK INTER + INTRA:          -9.517
REMARK INTER:                  -8.748
REMARK INTRA:                  -0.770
REMARK UNBOUND:                -0.915
REMARK  Name = 
REMARK  6 active torsions:
REMARK  status: ('A' for Active; 'I' for Inactive)
REMARK    1  A    between atoms: C_1  and  C_2
REMARK    2  A    between atoms: C_2  and  N_3
REMARK    3  A    between atoms: C_2  and  C_16
REMARK    4  A    between atoms: C_4  and  C_6
REMARK    5  A    between atoms: C_19  and  O_20
REMARK    6  A    between atoms: O_20  and  C_21
REMARK                            x       y       z     vdW  Elec       q    Type
REMARK                         _______ _______ _______ _____ _____    ______ ____
ROOT
ATOM      1  C   UNL     1      46.789   2.924  17.760  0.00  0.00    +0.000 C 
ATOM      2  C   UNL     1      47.690   3.132  16.535  0.00  0.00    +0.000 C 
ENDROOT
BRANCH   2   3
ATOM      3  C   UNL     1      49.112   3.475  16.982  0.00  0.00    +0.000 A 
ATOM      4  C   UNL     1      49.451   4.790  17.309  0.00  0.00    +0.000 A 
ATOM      5  C   UNL     1      50.749   5.080  17.717  0.00  0.00    +0.000 A 
ATOM      6  C   UNL     1      51.681   4.052  17.826  0.00  0.00    +0.000 A 
ATOM      7  C   UNL     1      51.277   2.781  17.446  0.00  0.00    +0.000 A 
ATOM      8  N   UNL     1      50.022   2.469  17.028  0.00  0.00    +0.000 NA
BRANCH   6   9
ATOM      9  O   UNL     1      52.985   4.231  18.216  0.00  0.00    +0.000 OA
BRANCH   9  10
ATOM     10  C   UNL     1      53.328   3.881  19.515  0.00  0.00    +0.000 A 
ATOM     11  C   UNL     1      54.149   2.776  19.695  0.00  0.00    +0.000 A 
ATOM     12  N   UNL     1      54.566   2.366  20.920  0.00  0.00    +0.000 NA
ATOM     13  C   UNL     1      54.110   3.104  21.958  0.00  0.00    +0.000 A 
ATOM     14  C   UNL     1      53.271   4.192  21.783  0.00  0.00    +0.000 A 
ATOM     15  N   UNL     1      52.853   4.596  20.564  0.00  0.00    +0.000 NA
ENDBRANCH   9  10
ENDBRANCH   6   9
ENDBRANCH   2   3
BRANCH   2  16
ATOM     16  N   UNL     1      47.177   4.172  15.646  0.00  0.00    +0.000 N 
ATOM     17  C   UNL     1      47.008   3.974  14.302  0.00  0.00    +0.000 C 
ATOM     18  O   UNL     1      47.225   2.903  13.747  0.00  0.00    +0.000 OA
ATOM     19  H   UNL     1      47.329   5.125  15.960  0.00  0.00    +0.000 HD
BRANCH  17  20
ATOM     20  C   UNL     1      46.451   5.108  13.549  0.00  0.00    +0.000 A 
ATOM     21  C   UNL     1      47.180   6.286  13.442  0.00  0.00    +0.000 A 
ATOM     22  S   UNL     1      46.407   7.482  12.503  0.00  0.00    +0.000 S 
ATOM     23  C   UNL     1      45.054   6.486  12.249  0.00  0.00    +0.000 A 
ATOM     24  N   UNL     1      43.983   6.924  11.534  0.00  0.00    +0.000 NA
ATOM     25  C   UNL     1      43.013   6.076  11.455  0.00  0.00    +0.000 A 
ATOM     26  N   UNL     1      43.017   4.827  12.016  0.00  0.00    +0.000 N 
ATOM     27  C   UNL     1      44.095   4.325  12.700  0.00  0.00    +0.000 A 
ATOM     28  O   UNL     1      44.110   3.168  13.112  0.00  0.00    +0.000 OA
ATOM     29  C   UNL     1      45.202   5.247  12.848  0.00  0.00    +0.000 A 
ATOM     30  H   UNL     1      42.230   4.206  11.900  0.00  0.00    +0.000 HD
ENDBRANCH  17  20
ENDBRANCH   2  16
TORSDOF 5
ENDMDL
