MODEL 1
REMARK VINA RESULT:    -7.558      0.000      0.000
REMARK INTER + INTRA:         -12.226
REMARK INTER:                 -11.093
REMARK INTRA:                  -1.132
REMARK UNBOUND:                -1.132
REMARK  Name = 
REMARK  9 active torsions:
REMARK  status: ('A' for Active; 'I' for Inactive)
REMARK    1  A    between atoms: C_1  and  C_2
REMARK    2  A    between atoms: C_2  and  N_3
REMARK    3  A    between atoms: C_2  and  C_11
REMARK    4  A    between atoms: N_3  and  C_4
REMARK    5  A    between atoms: C_4  and  C_5
REMARK    6  A    between atoms: C_14  and  C_15
REMARK    7  A    between atoms: C_15  and  N_16
REMARK    8  A    between atoms: N_16  and  C_17
REMARK    9  A    between atoms: C_17  and  C_18
REMARK                            x       y       z     vdW  Elec       q    Type
REMARK                         _______ _______ _______ _____ _____    ______ ____
ROOT
ATOM      1  C   UNL     1      45.043   5.011  11.950  0.00  0.00    +0.000 A 
ATOM      2  C   UNL     1      45.534   4.413  13.124  0.00  0.00    +0.000 A 
ATOM      3  C   UNL     1      46.678   4.899  13.758  0.00  0.00    +0.000 A 
ATOM      4  C   UNL     1      47.348   6.019  13.251  0.00  0.00    +0.000 A 
ATOM      5  C   UNL     1      46.875   6.611  12.075  0.00  0.00    +0.000 A 
ATOM      6  C   UNL     1      45.745   6.105  11.425  0.00  0.00    +0.000 A 
ENDROOT
BRANCH   1   8
ATOM      7  C   UNL     1      42.576   5.368  11.434  0.00  0.00    +0.000 C 
ATOM      8  C   UNL     1      43.792   4.438  11.295  0.00  0.00    +0.000 C 
BRANCH   8   9
ATOM      9  N   UNL     1      43.970   4.125   9.868  0.00  0.00    +0.000 NA
ATOM     10  H   UNL     1      44.673   4.741   9.466  0.00  0.00    +0.000 HD
BRANCH   9  11
ATOM     11  C   UNL     1      44.369   2.738   9.636  0.00  0.00    +0.000 C 
BRANCH  11  12
ATOM     12  C   UNL     1      45.426   2.617   8.567  0.00  0.00    +0.000 A 
ATOM     13  C   UNL     1      45.835   3.748   7.842  0.00  0.00    +0.000 A 
ATOM     14  C   UNL     1      46.848   3.656   6.891  0.00  0.00    +0.000 A 
ATOM     15  C   UNL     1      47.465   2.428   6.652  0.00  0.00    +0.000 A 
ATOM     16  C   UNL     1      47.067   1.298   7.359  0.00  0.00    +0.000 A 
ATOM     17  C   UNL     1      46.051   1.387   8.312  0.00  0.00    +0.000 A 
ENDBRANCH  11  12
ENDBRANCH   9  11
ENDBRANCH   8   9
ENDBRANCH   1   8
BRANCH   4  18
ATOM     18  C   UNL     1      48.541   6.589  13.979  0.00  0.00    +0.000 C 
BRANCH  18  19
ATOM     19  N   UNL     1      48.160   7.068  15.303  0.00  0.00    +0.000 NA
ATOM     20  H   UNL     1      47.307   6.588  15.591  0.00  0.00    +0.000 HD
BRANCH  19  21
ATOM     21  C   UNL     1      49.209   6.776  16.286  0.00  0.00    +0.000 C 
BRANCH  21  22
ATOM     22  C   UNL     1      49.035   5.391  16.875  0.00  0.00    +0.000 A 
ATOM     23  C   UNL     1      47.776   4.945  17.234  0.00  0.00    +0.000 A 
ATOM     24  C   UNL     1      47.700   3.659  17.715  0.00  0.00    +0.000 A 
ATOM     25  N   UNL     1      48.768   2.855  17.855  0.00  0.00    +0.000 NA
ATOM     26  C   UNL     1      49.942   3.384  17.481  0.00  0.00    +0.000 A 
ATOM     27  N   UNL     1      50.137   4.618  16.991  0.00  0.00    +0.000 NA
ENDBRANCH  21  22
ENDBRANCH  19  21
ENDBRANCH  18  19
ENDBRANCH   4  18
TORSDOF 8
ENDMDL
MODEL 2
REMARK VINA RESULT:    -7.455      0.733      1.536
REMARK INTER + INTRA:         -12.074
REMARK INTER:                 -11.091
REMARK INTRA:                  -0.983
REMARK UNBOUND:                -1.132
REMARK  Name = 
REMARK  9 active torsions:
REMARK  status: ('A' for Active; 'I' for Inactive)
REMARK    1  A    between atoms: C_1  and  C_2
REMARK    2  A    between atoms: C_2  and  N_3
REMARK    3  A    between atoms: C_2  and  C_11
REMARK    4  A    between atoms: N_3  and  C_4
REMARK    5  A    between atoms: C_4  and  C_5
REMARK    6  A    between atoms: C_14  and  C_15
REMARK    7  A    between atoms: C_15  and  N_16
REMARK    8  A    between atoms: N_16  and  C_17
REMARK    9  A    between atoms: C_17  and  C_18
REMARK                            x       y       z     vdW  Elec       q    Type
REMARK                         _______ _______ _______ _____ _____    ______ ____
ROOT
ATOM      1  C   UNL     1      45.434   4.731  12.088  0.00  0.00    +0.000 A 
ATOM      2  C   UNL     1      45.700   6.016  11.584  0.00  0.00    +0.000 A 
ATOM      3  C   UNL     1      46.602   6.869  12.220  0.00  0.00    +0.000 A 
ATOM      4  C   UNL     1      47.287   6.449  13.367  0.00  0.00    +0.000 A 
ATOM      5  C   UNL     1      47.016   5.178  13.885  0.00  0.00    +0.000 A 
ATOM      6  C   UNL     1      46.091   4.334  13.261  0.00  0.00    +0.000 A 
ENDROOT
BRANCH   1   8
ATOM      7  C   UNL     1      43.623   4.608  10.304  0.00  0.00    +0.000 C 
ATOM      8  C   UNL     1      44.436   3.840  11.357  0.00  0.00    +0.000 C 
BRANCH   8   9
ATOM      9  N   UNL     1      45.060   2.680  10.700  0.00  0.00    +0.000 NA
ATOM     10  H   UNL     1      44.913   1.845  11.264  0.00  0.00    +0.000 HD
BRANCH   9  11
ATOM     11  C   UNL     1      44.537   2.440   9.356  0.00  0.00    +0.000 C 
BRANCH  11  12
ATOM     12  C   UNL     1      45.626   2.425   8.312  0.00  0.00    +0.000 A 
ATOM     13  C   UNL     1      46.379   1.261   8.089  0.00  0.00    +0.000 A 
ATOM     14  C   UNL     1      47.349   1.221   7.090  0.00  0.00    +0.000 A 
ATOM     15  C   UNL     1      47.579   2.348   6.302  0.00  0.00    +0.000 A 
ATOM     16  C   UNL     1      46.844   3.510   6.515  0.00  0.00    +0.000 A 
ATOM     17  C   UNL     1      45.872   3.553   7.515  0.00  0.00    +0.000 A 
ENDBRANCH  11  12
ENDBRANCH   9  11
ENDBRANCH   8   9
ENDBRANCH   1   8
BRANCH   4  18
ATOM     18  C   UNL     1      48.317   7.344  14.011  0.00  0.00    +0.000 C 
BRANCH  18  19
ATOM     19  N   UNL     1      49.344   6.554  14.681  0.00  0.00    +0.000 NA
ATOM     20  H   UNL     1      50.258   6.841  14.329  0.00  0.00    +0.000 HD
BRANCH  19  21
ATOM     21  C   UNL     1      49.316   6.780  16.130  0.00  0.00    +0.000 C 
BRANCH  21  22
ATOM     22  C   UNL     1      49.211   5.470  16.884  0.00  0.00    +0.000 A 
ATOM     23  C   UNL     1      47.993   5.061  17.397  0.00  0.00    +0.000 A 
ATOM     24  C   UNL     1      47.976   3.838  18.025  0.00  0.00    +0.000 A 
ATOM     25  N   UNL     1      49.065   3.060  18.165  0.00  0.00    +0.000 NA
ATOM     26  C   UNL     1      50.196   3.550  17.636  0.00  0.00    +0.000 A 
ATOM     27  N   UNL     1      50.331   4.721  16.994  0.00  0.00    +0.000 NA
ENDBRANCH  21  22
ENDBRANCH  19  21
ENDBRANCH  18  19
ENDBRANCH   4  18
TORSDOF 8
ENDMDL
MODEL 3
REMARK VINA RESULT:    -7.424      1.259      1.830
REMARK INTER + INTRA:         -12.029
REMARK INTER:                 -10.686
REMARK INTRA:                  -1.343
REMARK UNBOUND:                -1.132
REMARK  Name = 
REMARK  9 active torsions:
REMARK  status: ('A' for Active; 'I' for Inactive)
REMARK    1  A    between atoms: C_1  and  C_2
REMARK    2  A    between atoms: C_2  and  N_3
REMARK    3  A    between atoms: C_2  and  C_11
REMARK    4  A    between atoms: N_3  and  C_4
REMARK    5  A    between atoms: C_4  and  C_5
REMARK    6  A    between atoms: C_14  and  C_15
REMARK    7  A    between atoms: C_15  and  N_16
REMARK    8  A    between atoms: N_16  and  C_17
REMARK    9  A    between atoms: C_17  and  C_18
REMARK                            x       y       z     vdW  Elec       q    Type
REMARK                         _______ _______ _______ _____ _____    ______ ____
ROOT
ATOM      1  C   UNL     1      45.449   4.711  12.361  0.00  0.00    +0.000 A 
ATOM      2  C   UNL     1      45.603   5.842  11.540  0.00  0.00    +0.000 A 
ATOM      3  C   UNL     1      46.594   6.790  11.795  0.00  0.00    +0.000 A 
ATOM      4  C   UNL     1      47.481   6.619  12.865  0.00  0.00    +0.000 A 
ATOM      5  C   UNL     1      47.325   5.505  13.697  0.00  0.00    +0.000 A 
ATOM      6  C   UNL     1      46.313   4.569  13.456  0.00  0.00    +0.000 A 
ENDROOT
BRANCH   1   8
ATOM      7  C   UNL     1      43.132   4.363  11.366  0.00  0.00    +0.000 C 
ATOM      8  C   UNL     1      44.348   3.708  12.040  0.00  0.00    +0.000 C 
BRANCH   8   9
ATOM      9  N   UNL     1      44.799   2.594  11.190  0.00  0.00    +0.000 NA
ATOM     10  H   UNL     1      44.555   1.708  11.627  0.00  0.00    +0.000 HD
BRANCH   9  11
ATOM     11  C   UNL     1      44.222   2.634   9.848  0.00  0.00    +0.000 C 
BRANCH  11  12
ATOM     12  C   UNL     1      45.277   2.691   8.772  0.00  0.00    +0.000 A 
ATOM     13  C   UNL     1      45.625   3.917   8.184  0.00  0.00    +0.000 A 
ATOM     14  C   UNL     1      46.636   3.988   7.229  0.00  0.00    +0.000 A 
ATOM     15  C   UNL     1      47.311   2.829   6.847  0.00  0.00    +0.000 A 
ATOM     16  C   UNL     1      46.974   1.606   7.418  0.00  0.00    +0.000 A 
ATOM     17  C   UNL     1      45.961   1.532   8.374  0.00  0.00    +0.000 A 
ENDBRANCH  11  12
ENDBRANCH   9  11
ENDBRANCH   8   9
ENDBRANCH   1   8
BRANCH   4  18
ATOM     18  C   UNL     1      48.598   7.606  13.096  0.00  0.00    +0.000 C 
BRANCH  18  19
ATOM     19  N   UNL     1      49.763   6.945  13.674  0.00  0.00    +0.000 NA
ATOM     20  H   UNL     1      50.517   6.952  12.986  0.00  0.00    +0.000 HD
BRANCH  19  21
ATOM     21  C   UNL     1      50.226   7.653  14.872  0.00  0.00    +0.000 C 
BRANCH  21  22
ATOM     22  C   UNL     1      49.644   7.037  16.128  0.00  0.00    +0.000 A 
ATOM     23  C   UNL     1      48.882   7.807  16.989  0.00  0.00    +0.000 A 
ATOM     24  C   UNL     1      48.353   7.159  18.079  0.00  0.00    +0.000 A 
ATOM     25  N   UNL     1      48.552   5.854  18.336  0.00  0.00    +0.000 NA
ATOM     26  C   UNL     1      49.308   5.199  17.443  0.00  0.00    +0.000 A 
ATOM     27  N   UNL     1      49.868   5.721  16.341  0.00  0.00    +0.000 NA
ENDBRANCH  21  22
ENDBRANCH  19  21
ENDBRANCH  18  19
ENDBRANCH   4  18
TORSDOF 8
ENDMDL
MODEL 4
REMARK VINA RESULT:    -7.392      1.492      8.306
REMARK INTER + INTRA:         -11.982
REMARK INTER:                 -10.833
REMARK INTRA:                  -1.149
REMARK UNBOUND:                -1.132
REMARK  Name = 
REMARK  9 active torsions:
REMARK  status: ('A' for Active; 'I' for Inactive)
REMARK    1  A    between atoms: C_1  and  C_2
REMARK    2  A    between atoms: C_2  and  N_3
REMARK    3  A    between atoms: C_2  and  C_11
REMARK    4  A    between atoms: N_3  and  C_4
REMARK    5  A    between atoms: C_4  and  C_5
REMARK    6  A    between atoms: C_14  and  C_15
REMARK    7  A    between atoms: C_15  and  N_16
REMARK    8  A    between atoms: N_16  and  C_17
REMARK    9  A    between atoms: C_17  and  C_18
REMARK                            x       y       z     vdW  Elec       q    Type
REMARK                         _______ _______ _______ _____ _____    ______ ____
ROOT
ATOM      1  C   UNL     1      47.050   6.026  12.785  0.00  0.00    +0.000 A 
ATOM      2  C   UNL     1      46.836   6.529  11.489  0.00  0.00    +0.000 A 
ATOM      3  C   UNL     1      45.746   6.113  10.724  0.00  0.00    +0.000 A 
ATOM      4  C   UNL     1      44.821   5.201  11.245  0.00  0.00    +0.000 A 
ATOM      5  C   UNL     1      45.034   4.683  12.527  0.00  0.00    +0.000 A 
ATOM      6  C   UNL     1      46.142   5.081  13.283  0.00  0.00    +0.000 A 
ENDROOT
BRANCH   1   8
ATOM      7  C   UNL     1      48.976   7.686  12.896  0.00  0.00    +0.000 C 
ATOM      8  C   UNL     1      48.258   6.511  13.578  0.00  0.00    +0.000 C 
BRANCH   8   9
ATOM      9  N   UNL     1      47.932   6.909  14.956  0.00  0.00    +0.000 NA
ATOM     10  H   UNL     1      47.087   6.429  15.262  0.00  0.00    +0.000 HD
BRANCH   9  11
ATOM     11  C   UNL     1      49.009   6.617  15.901  0.00  0.00    +0.000 C 
BRANCH  11  12
ATOM     12  C   UNL     1      48.764   5.346  16.675  0.00  0.00    +0.000 A 
ATOM     13  C   UNL     1      47.538   4.671  16.561  0.00  0.00    +0.000 A 
ATOM     14  C   UNL     1      47.323   3.468  17.230  0.00  0.00    +0.000 A 
ATOM     15  C   UNL     1      48.333   2.926  18.024  0.00  0.00    +0.000 A 
ATOM     16  C   UNL     1      49.551   3.587  18.150  0.00  0.00    +0.000 A 
ATOM     17  C   UNL     1      49.769   4.792  17.482  0.00  0.00    +0.000 A 
ENDBRANCH  11  12
ENDBRANCH   9  11
ENDBRANCH   8   9
ENDBRANCH   1   8
BRANCH   4  18
ATOM     18  C   UNL     1      43.603   4.808  10.445  0.00  0.00    +0.000 C 
BRANCH  18  19
ATOM     19  N   UNL     1      43.990   4.200   9.176  0.00  0.00    +0.000 NA
ATOM     20  H   UNL     1      44.772   4.728   8.787  0.00  0.00    +0.000 HD
BRANCH  19  21
ATOM     21  C   UNL     1      44.421   2.812   9.371  0.00  0.00    +0.000 C 
BRANCH  21  22
ATOM     22  C   UNL     1      45.564   2.460   8.441  0.00  0.00    +0.000 A 
ATOM     23  C   UNL     1      46.179   3.449   7.695  0.00  0.00    +0.000 A 
ATOM     24  C   UNL     1      47.239   3.053   6.914  0.00  0.00    +0.000 A 
ATOM     25  N   UNL     1      47.673   1.782   6.843  0.00  0.00    +0.000 NA
ATOM     26  C   UNL     1      47.007   0.900   7.602  0.00  0.00    +0.000 A 
ATOM     27  N   UNL     1      45.968   1.171   8.408  0.00  0.00    +0.000 NA
ENDBRANCH  21  22
ENDBRANCH  19  21
ENDBRANCH  18  19
ENDBRANCH   4  18
TORSDOF 8
ENDMDL
MODEL 5
REMARK VINA RESULT:    -6.936      4.116      9.750
REMARK INTER + INTRA:         -11.312
REMARK INTER:                 -10.435
REMARK INTRA:                  -0.877
REMARK UNBOUND:                -1.132
REMARK  Name = 
REMARK  9 active torsions:
REMARK  status: ('A' for Active; 'I' for Inactive)
REMARK    1  A    between atoms: C_1  and  C_2
REMARK    2  A    between atoms: C_2  and  N_3
REMARK    3  A    between atoms: C_2  and  C_11
REMARK    4  A    between atoms: N_3  and  C_4
REMARK    5  A    between atoms: C_4  and  C_5
REMARK    6  A    between atoms: C_14  and  C_15
REMARK    7  A    between atoms: C_15  and  N_16
REMARK    8  A    between atoms: N_16  and  C_17
REMARK    9  A    between atoms: C_17  and  C_18
REMARK                            x       y       z     vdW  Elec       q    Type
REMARK                         _______ _______ _______ _____ _____    ______ ____
ROOT
ATOM      1  C   UNL     1      45.158   3.262   8.778  0.00  0.00    +0.000 A 
ATOM      2  C   UNL     1      45.924   4.019   7.873  0.00  0.00    +0.000 A 
ATOM      3  C   UNL     1      46.874   3.413   7.051  0.00  0.00    +0.000 A 
ATOM      4  C   UNL     1      47.066   2.027   7.088  0.00  0.00    +0.000 A 
ATOM      5  C   UNL     1      46.320   1.269   7.997  0.00  0.00    +0.000 A 
ATOM      6  C   UNL     1      45.387   1.881   8.841  0.00  0.00    +0.000 A 
ENDROOT
BRANCH   1   8
ATOM      7  C   UNL     1      43.852   3.212  10.962  0.00  0.00    +0.000 C 
ATOM      8  C   UNL     1      44.136   3.973   9.658  0.00  0.00    +0.000 C 
BRANCH   8   9
ATOM      9  N   UNL     1      44.518   5.351  10.004  0.00  0.00    +0.000 NA
ATOM     10  H   UNL     1      43.795   5.997   9.693  0.00  0.00    +0.000 HD
BRANCH   9  11
ATOM     11  C   UNL     1      44.734   5.538  11.437  0.00  0.00    +0.000 C 
BRANCH  11  12
ATOM     12  C   UNL     1      45.625   6.719  11.734  0.00  0.00    +0.000 A 
ATOM     13  C   UNL     1      47.019   6.563  11.777  0.00  0.00    +0.000 A 
ATOM     14  C   UNL     1      47.852   7.657  11.996  0.00  0.00    +0.000 A 
ATOM     15  C   UNL     1      47.298   8.924  12.177  0.00  0.00    +0.000 A 
ATOM     16  C   UNL     1      45.918   9.093  12.141  0.00  0.00    +0.000 A 
ATOM     17  C   UNL     1      45.081   7.998  11.923  0.00  0.00    +0.000 A 
ENDBRANCH  11  12
ENDBRANCH   9  11
ENDBRANCH   8   9
ENDBRANCH   1   8
BRANCH   4  18
ATOM     18  C   UNL     1      48.041   1.366   6.146  0.00  0.00    +0.000 C 
BRANCH  18  19
ATOM     19  N   UNL     1      47.856   1.852   4.783  0.00  0.00    +0.000 NA
ATOM     20  H   UNL     1      48.675   1.593   4.230  0.00  0.00    +0.000 HD
BRANCH  19  21
ATOM     21  C   UNL     1      46.672   1.245   4.166  0.00  0.00    +0.000 C 
BRANCH  21  22
ATOM     22  C   UNL     1      46.981  -0.142   3.642  0.00  0.00    +0.000 A 
ATOM     23  C   UNL     1      46.513  -1.257   4.315  0.00  0.00    +0.000 A 
ATOM     24  C   UNL     1      46.797  -2.476   3.745  0.00  0.00    +0.000 A 
ATOM     25  N   UNL     1      47.499  -2.617   2.606  0.00  0.00    +0.000 NA
ATOM     26  C   UNL     1      47.909  -1.476   2.035  0.00  0.00    +0.000 A 
ATOM     27  N   UNL     1      47.684  -0.233   2.491  0.00  0.00    +0.000 NA
ENDBRANCH  21  22
ENDBRANCH  19  21
ENDBRANCH  18  19
ENDBRANCH   4  18
TORSDOF 8
ENDMDL
MODEL 6
REMARK VINA RESULT:    -6.783      2.909      8.046
REMARK INTER + INTRA:         -11.087
REMARK INTER:                 -10.157
REMARK INTRA:                  -0.930
REMARK UNBOUND:                -1.132
REMARK  Name = 
REMARK  9 active torsions:
REMARK  status: ('A' for Active; 'I' for Inactive)
REMARK    1  A    between atoms: C_1  and  C_2
REMARK    2  A    between atoms: C_2  and  N_3
REMARK    3  A    between atoms: C_2  and  C_11
REMARK    4  A    between atoms: N_3  and  C_4
REMARK    5  A    between atoms: C_4  and  C_5
REMARK    6  A    between atoms: C_14  and  C_15
REMARK    7  A    between atoms: C_15  and  N_16
REMARK    8  A    between atoms: N_16  and  C_17
REMARK    9  A    between atoms: C_17  and  C_18
REMARK                            x       y       z     vdW  Elec       q    Type
REMARK                         _______ _______ _______ _____ _____    ______ ____
ROOT
ATOM      1  C   UNL     1      46.708   6.002  12.682  0.00  0.00    +0.000 A 
ATOM      2  C   UNL     1      46.089   6.297  11.454  0.00  0.00    +0.000 A 
ATOM      3  C   UNL     1      45.196   5.403  10.863  0.00  0.00    +0.000 A 
ATOM      4  C   UNL     1      44.874   4.198  11.499  0.00  0.00    +0.000 A 
ATOM      5  C   UNL     1      45.497   3.889  12.712  0.00  0.00    +0.000 A 
ATOM      6  C   UNL     1      46.413   4.775  13.290  0.00  0.00    +0.000 A 
ENDROOT
BRANCH   1   8
ATOM      7  C   UNL     1      48.852   7.332  12.344  0.00  0.00    +0.000 C 
ATOM      8  C   UNL     1      47.679   7.012  13.283  0.00  0.00    +0.000 C 
BRANCH   8   9
ATOM      9  N   UNL     1      47.040   8.281  13.668  0.00  0.00    +0.000 NA
ATOM     10  H   UNL     1      47.222   8.473  14.651  0.00  0.00    +0.000 HD
BRANCH   9  11
ATOM     11  C   UNL     1      47.503   9.415  12.871  0.00  0.00    +0.000 C 
BRANCH  11  12
ATOM     12  C   UNL     1      46.385  10.061  12.090  0.00  0.00    +0.000 A 
ATOM     13  C   UNL     1      46.661  11.090  11.176  0.00  0.00    +0.000 A 
ATOM     14  C   UNL     1      45.644  11.656  10.412  0.00  0.00    +0.000 A 
ATOM     15  C   UNL     1      44.334  11.199  10.555  0.00  0.00    +0.000 A 
ATOM     16  C   UNL     1      44.045  10.183  11.461  0.00  0.00    +0.000 A 
ATOM     17  C   UNL     1      45.062   9.616  12.229  0.00  0.00    +0.000 A 
ENDBRANCH  11  12
ENDBRANCH   9  11
ENDBRANCH   8   9
ENDBRANCH   1   8
BRANCH   4  18
ATOM     18  C   UNL     1      43.853   3.265  10.894  0.00  0.00    +0.000 C 
BRANCH  18  19
ATOM     19  N   UNL     1      44.470   2.395   9.900  0.00  0.00    +0.000 NA
ATOM     20  H   UNL     1      43.815   1.645   9.671  0.00  0.00    +0.000 HD
BRANCH  19  21
ATOM     21  C   UNL     1      44.772   3.135   8.671  0.00  0.00    +0.000 C 
BRANCH  21  22
ATOM     22  C   UNL     1      45.883   2.465   7.889  0.00  0.00    +0.000 A 
ATOM     23  C   UNL     1      46.600   3.184   6.949  0.00  0.00    +0.000 A 
ATOM     24  C   UNL     1      47.622   2.515   6.320  0.00  0.00    +0.000 A 
ATOM     25  N   UNL     1      47.930   1.229   6.568  0.00  0.00    +0.000 NA
ATOM     26  C   UNL     1      47.173   0.622   7.493  0.00  0.00    +0.000 A 
ATOM     27  N   UNL     1      46.159   1.174   8.177  0.00  0.00    +0.000 NA
ENDBRANCH  21  22
ENDBRANCH  19  21
ENDBRANCH  18  19
ENDBRANCH   4  18
TORSDOF 8
ENDMDL
MODEL 7
REMARK VINA RESULT:    -6.647      1.521      2.240
REMARK INTER + INTRA:         -10.887
REMARK INTER:                 -10.136
REMARK INTRA:                  -0.752
REMARK UNBOUND:                -1.132
REMARK  Name = 
REMARK  9 active torsions:
REMARK  status: ('A' for Active; 'I' for Inactive)
REMARK    1  A    between atoms: C_1  and  C_2
REMARK    2  A    between atoms: C_2  and  N_3
REMARK    3  A    between atoms: C_2  and  C_11
REMARK    4  A    between atoms: N_3  and  C_4
REMARK    5  A    between atoms: C_4  and  C_5
REMARK    6  A    between atoms: C_14  and  C_15
REMARK    7  A    between atoms: C_15  and  N_16
REMARK    8  A    between atoms: N_16  and  C_17
REMARK    9  A    between atoms: C_17  and  C_18
REMARK                            x       y       z     vdW  Elec       q    Type
REMARK                         _______ _______ _______ _____ _____    ______ ____
ROOT
ATOM      1  C   UNL     1      45.616   5.252  11.779  0.00  0.00    +0.000 A 
ATOM      2  C   UNL     1      45.797   4.517  12.964  0.00  0.00    +0.000 A 
ATOM      3  C   UNL     1      46.757   4.890  13.905  0.00  0.00    +0.000 A 
ATOM      4  C   UNL     1      47.546   6.028  13.700  0.00  0.00    +0.000 A 
ATOM      5  C   UNL     1      47.384   6.756  12.517  0.00  0.00    +0.000 A 
ATOM      6  C   UNL     1      46.440   6.365  11.562  0.00  0.00    +0.000 A 
ENDROOT
BRANCH   1   8
ATOM      7  C   UNL     1      43.206   5.501  10.999  0.00  0.00    +0.000 C 
ATOM      8  C   UNL     1      44.556   4.799  10.782  0.00  0.00    +0.000 C 
BRANCH   8   9
ATOM      9  N   UNL     1      44.952   4.992   9.378  0.00  0.00    +0.000 NA
ATOM     10  H   UNL     1      45.966   5.059   9.313  0.00  0.00    +0.000 HD
BRANCH   9  11
ATOM     11  C   UNL     1      44.494   3.913   8.505  0.00  0.00    +0.000 C 
BRANCH  11  12
ATOM     12  C   UNL     1      45.632   3.059   8.003  0.00  0.00    +0.000 A 
ATOM     13  C   UNL     1      45.699   1.698   8.339  0.00  0.00    +0.000 A 
ATOM     14  C   UNL     1      46.716   0.890   7.836  0.00  0.00    +0.000 A 
ATOM     15  C   UNL     1      47.681   1.435   6.991  0.00  0.00    +0.000 A 
ATOM     16  C   UNL     1      47.629   2.784   6.653  0.00  0.00    +0.000 A 
ATOM     17  C   UNL     1      46.613   3.597   7.156  0.00  0.00    +0.000 A 
ENDBRANCH  11  12
ENDBRANCH   9  11
ENDBRANCH   8   9
ENDBRANCH   1   8
BRANCH   4  18
ATOM     18  C   UNL     1      48.533   6.472  14.753  0.00  0.00    +0.000 C 
BRANCH  18  19
ATOM     19  N   UNL     1      48.621   5.490  15.828  0.00  0.00    +0.000 NA
ATOM     20  H   UNL     1      49.394   4.854  15.626  0.00  0.00    +0.000 HD
BRANCH  19  21
ATOM     21  C   UNL     1      48.887   6.144  17.114  0.00  0.00    +0.000 C 
BRANCH  21  22
ATOM     22  C   UNL     1      50.363   6.109  17.449  0.00  0.00    +0.000 A 
ATOM     23  C   UNL     1      50.945   7.166  18.126  0.00  0.00    +0.000 A 
ATOM     24  C   UNL     1      52.278   7.033  18.433  0.00  0.00    +0.000 A 
ATOM     25  N   UNL     1      53.013   5.957  18.099  0.00  0.00    +0.000 NA
ATOM     26  C   UNL     1      52.356   4.990  17.442  0.00  0.00    +0.000 A 
ATOM     27  N   UNL     1      51.058   5.004  17.098  0.00  0.00    +0.000 NA
ENDBRANCH  21  22
ENDBRANCH  19  21
ENDBRANCH  18  19
ENDBRANCH   4  18
TORSDOF 8
ENDMDL
MODEL 8
REMARK VINA RESULT:    -6.389      1.739      8.115
REMARK INTER + INTRA:         -10.509
REMARK INTER:                  -9.183
REMARK INTRA:                  -1.326
REMARK UNBOUND:                -1.132
REMARK  Name = 
REMARK  9 active torsions:
REMARK  status: ('A' for Active; 'I' for Inactive)
REMARK    1  A    between atoms: C_1  and  C_2
REMARK    2  A    between atoms: C_2  and  N_3
REMARK    3  A    between atoms: C_2  and  C_11
REMARK    4  A    between atoms: N_3  and  C_4
REMARK    5  A    between atoms: C_4  and  C_5
REMARK    6  A    between atoms: C_14  and  C_15
REMARK    7  A    between atoms: C_15  and  N_16
REMARK    8  A    between atoms: N_16  and  C_17
REMARK    9  A    between atoms: C_17  and  C_18
REMARK                            x       y       z     vdW  Elec       q    Type
REMARK                         _______ _______ _______ _____ _____    ______ ____
ROOT
ATOM      1  C   UNL     1      48.219   7.579  13.621  0.00  0.00    +0.000 A 
ATOM      2  C   UNL     1      48.037   6.302  13.061  0.00  0.00    +0.000 A 
ATOM      3  C   UNL     1      46.830   5.943  12.462  0.00  0.00    +0.000 A 
ATOM      4  C   UNL     1      45.778   6.862  12.379  0.00  0.00    +0.000 A 
ATOM      5  C   UNL     1      45.944   8.129  12.948  0.00  0.00    +0.000 A 
ATOM      6  C   UNL     1      47.146   8.479  13.573  0.00  0.00    +0.000 A 
ENDROOT
BRANCH   1   8
ATOM      7  C   UNL     1      49.464   9.133  15.207  0.00  0.00    +0.000 C 
ATOM      8  C   UNL     1      49.557   7.921  14.268  0.00  0.00    +0.000 C 
BRANCH   8   9
ATOM      9  N   UNL     1      50.147   6.801  15.019  0.00  0.00    +0.000 NA
ATOM     10  H   UNL     1      51.162   6.877  15.008  0.00  0.00    +0.000 HD
BRANCH   9  11
ATOM     11  C   UNL     1      49.692   6.746  16.406  0.00  0.00    +0.000 C 
BRANCH  11  12
ATOM     12  C   UNL     1      49.151   5.387  16.779  0.00  0.00    +0.000 A 
ATOM     13  C   UNL     1      49.943   4.482  17.501  0.00  0.00    +0.000 A 
ATOM     14  C   UNL     1      49.434   3.247  17.895  0.00  0.00    +0.000 A 
ATOM     15  C   UNL     1      48.123   2.902  17.570  0.00  0.00    +0.000 A 
ATOM     16  C   UNL     1      47.327   3.788  16.851  0.00  0.00    +0.000 A 
ATOM     17  C   UNL     1      47.835   5.025  16.453  0.00  0.00    +0.000 A 
ENDBRANCH  11  12
ENDBRANCH   9  11
ENDBRANCH   8   9
ENDBRANCH   1   8
BRANCH   4  18
ATOM     18  C   UNL     1      44.499   6.496  11.665  0.00  0.00    +0.000 C 
BRANCH  18  19
ATOM     19  N   UNL     1      44.315   5.049  11.640  0.00  0.00    +0.000 NA
ATOM     20  H   UNL     1      43.760   4.776  12.452  0.00  0.00    +0.000 HD
BRANCH  19  21
ATOM     21  C   UNL     1      43.597   4.634  10.430  0.00  0.00    +0.000 C 
BRANCH  21  22
ATOM     22  C   UNL     1      44.486   3.806   9.526  0.00  0.00    +0.000 A 
ATOM     23  C   UNL     1      45.344   4.429   8.638  0.00  0.00    +0.000 A 
ATOM     24  C   UNL     1      46.150   3.605   7.889  0.00  0.00    +0.000 A 
ATOM     25  N   UNL     1      46.124   2.263   7.976  0.00  0.00    +0.000 NA
ATOM     26  C   UNL     1      45.255   1.758   8.864  0.00  0.00    +0.000 A 
ATOM     27  N   UNL     1      44.429   2.461   9.654  0.00  0.00    +0.000 NA
ENDBRANCH  21  22
ENDBRANCH  19  21
ENDBRANCH  18  19
ENDBRANCH   4  18
TORSDOF 8
ENDMDL
MODEL 9
REMARK VINA RESULT:    -6.382      2.186      9.164
REMARK INTER + INTRA:         -10.499
REMARK INTER:                  -9.738
REMARK INTRA:                  -0.761
REMARK UNBOUND:                -1.132
REMARK  Name = 
REMARK  9 active torsions:
REMARK  status: ('A' for Active; 'I' for Inactive)
REMARK    1  A    between atoms: C_1  and  C_2
REMARK    2  A    between atoms: C_2  and  N_3
REMARK    3  A    between atoms: C_2  and  C_11
REMARK    4  A    between atoms: N_3  and  C_4
REMARK    5  A    between atoms: C_4  and  C_5
REMARK    6  A    between atoms: C_14  and  C_15
REMARK    7  A    between atoms: C_15  and  N_16
REMARK    8  A    between atoms: N_16  and  C_17
REMARK    9  A    between atoms: C_17  and  C_18
REMARK                            x       y       z     vdW  Elec       q    Type
REMARK                         _______ _______ _______ _____ _____    ______ ____
ROOT
ATOM      1  C   UNL     1      47.103   5.980  13.519  0.00  0.00    +0.000 A 
ATOM      2  C   UNL     1      46.969   4.586  13.647  0.00  0.00    +0.000 A 
ATOM      3  C   UNL     1      46.004   3.884  12.924  0.00  0.00    +0.000 A 
ATOM      4  C   UNL     1      45.162   4.554  12.028  0.00  0.00    +0.000 A 
ATOM      5  C   UNL     1      45.278   5.943  11.907  0.00  0.00    +0.000 A 
ATOM      6  C   UNL     1      46.227   6.649  12.653  0.00  0.00    +0.000 A 
ENDROOT
BRANCH   1   8
ATOM      7  C   UNL     1      47.967   8.222  14.358  0.00  0.00    +0.000 C 
ATOM      8  C   UNL     1      48.171   6.699  14.335  0.00  0.00    +0.000 C 
BRANCH   8   9
ATOM      9  N   UNL     1      48.263   6.227  15.725  0.00  0.00    +0.000 NA
ATOM     10  H   UNL     1      48.732   5.323  15.751  0.00  0.00    +0.000 HD
BRANCH   9  11
ATOM     11  C   UNL     1      48.982   7.156  16.594  0.00  0.00    +0.000 C 
BRANCH  11  12
ATOM     12  C   UNL     1      48.430   7.171  17.999  0.00  0.00    +0.000 A 
ATOM     13  C   UNL     1      47.788   6.037  18.520  0.00  0.00    +0.000 A 
ATOM     14  C   UNL     1      47.324   6.023  19.833  0.00  0.00    +0.000 A 
ATOM     15  C   UNL     1      47.495   7.146  20.642  0.00  0.00    +0.000 A 
ATOM     16  C   UNL     1      48.125   8.279  20.136  0.00  0.00    +0.000 A 
ATOM     17  C   UNL     1      48.590   8.296  18.821  0.00  0.00    +0.000 A 
ENDBRANCH  11  12
ENDBRANCH   9  11
ENDBRANCH   8   9
ENDBRANCH   1   8
BRANCH   4  18
ATOM     18  C   UNL     1      44.169   3.784  11.193  0.00  0.00    +0.000 C 
BRANCH  18  19
ATOM     19  N   UNL     1      44.811   2.647  10.541  0.00  0.00    +0.000 NA
ATOM     20  H   UNL     1      44.488   1.789  10.990  0.00  0.00    +0.000 HD
BRANCH  19  21
ATOM     21  C   UNL     1      44.452   2.587   9.120  0.00  0.00    +0.000 C 
BRANCH  21  22
ATOM     22  C   UNL     1      45.655   2.238   8.269  0.00  0.00    +0.000 A 
ATOM     23  C   UNL     1      46.347   3.235   7.605  0.00  0.00    +0.000 A 
ATOM     24  C   UNL     1      47.454   2.838   6.893  0.00  0.00    +0.000 A 
ATOM     25  N   UNL     1      47.865   1.560   6.812  0.00  0.00    +0.000 NA
ATOM     26  C   UNL     1      47.124   0.671   7.489  0.00  0.00    +0.000 A 
ATOM     27  N   UNL     1      46.033   0.941   8.223  0.00  0.00    +0.000 NA
ENDBRANCH  21  22
ENDBRANCH  19  21
ENDBRANCH  18  19
ENDBRANCH   4  18
TORSDOF 8
ENDMDL
