MODEL 1
REMARK VINA RESULT:    -8.392      0.000      0.000
REMARK INTER + INTRA:         -13.336
REMARK INTER:                 -12.316
REMARK INTRA:                  -1.020
REMARK UNBOUND:                -1.020
REMARK  Name = 
REMARK  9 active torsions:
REMARK  status: ('A' for Active; 'I' for Inactive)
REMARK    1  A    between atoms: C_1  and  C_2
REMARK    2  A    between atoms: C_2  and  C_3
REMARK    3  A    between atoms: C_3  and  N_4
REMARK    4  A    between atoms: C_3  and  C_12
REMARK    5  A    between atoms: N_4  and  C_5
REMARK    6  A    between atoms: C_5  and  C_6
REMARK    7  A    between atoms: C_15  and  C_16
REMARK    8  A    between atoms: C_16  and  N_17
REMARK    9  A    between atoms: C_18  and  C_20
REMARK                            x       y       z     vdW  Elec       q    Type
REMARK                         _______ _______ _______ _____ _____    ______ ____
ROOT
ATOM      1  C   UNL     1      45.414   4.947  11.748  0.00  0.00    +0.000 A 
ATOM      2  C   UNL     1      45.864   4.459  12.985  0.00  0.00    +0.000 A 
ATOM      3  C   UNL     1      46.891   5.104  13.689  0.00  0.00    +0.000 A 
ATOM      4  C   UNL     1      47.486   6.268  13.188  0.00  0.00    +0.000 A 
ATOM      5  C   UNL     1      47.012   6.787  11.978  0.00  0.00    +0.000 A 
ATOM      6  C   UNL     1      45.974   6.149  11.282  0.00  0.00    +0.000 A 
ENDROOT
BRANCH   1   7
ATOM      7  C   UNL     1      44.397   4.139  10.933  0.00  0.00    +0.000 C 
BRANCH   7   9
ATOM      8  C   UNL     1      42.456   5.609  11.772  0.00  0.00    +0.000 C 
ATOM      9  C   UNL     1      42.971   4.194  11.543  0.00  0.00    +0.000 C 
ENDBRANCH   7   9
BRANCH   7  10
ATOM     10  N   UNL     1      44.864   2.752  10.743  0.00  0.00    +0.000 NA
ATOM     11  H   UNL     1      45.884   2.734  10.822  0.00  0.00    +0.000 HD
BRANCH  10  12
ATOM     12  C   UNL     1      44.528   2.218   9.401  0.00  0.00    +0.000 C 
BRANCH  12  13
ATOM     13  C   UNL     1      45.680   2.217   8.407  0.00  0.00    +0.000 A 
ATOM     14  N   UNL     1      46.285   1.033   8.159  0.00  0.00    +0.000 NA
ATOM     15  C   UNL     1      47.300   1.048   7.278  0.00  0.00    +0.000 A 
ATOM     16  C   UNL     1      47.722   2.182   6.629  0.00  0.00    +0.000 A 
ATOM     17  C   UNL     1      47.027   3.331   6.930  0.00  0.00    +0.000 A 
ATOM     18  N   UNL     1      46.003   3.381   7.806  0.00  0.00    +0.000 NA
ENDBRANCH  12  13
ENDBRANCH  10  12
ENDBRANCH   7  10
ENDBRANCH   1   7
BRANCH   4  19
ATOM     19  C   UNL     1      48.614   6.932  13.936  0.00  0.00    +0.000 C 
BRANCH  19  20
ATOM     20  N   UNL     1      48.290   7.172  15.325  0.00  0.00    +0.000 N 
ATOM     21  C   UNL     1      49.053   6.628  16.328  0.00  0.00    +0.000 C 
ATOM     22  O   UNL     1      50.045   5.944  16.077  0.00  0.00    +0.000 OA
ATOM     23  H   UNL     1      47.640   7.925  15.535  0.00  0.00    +0.000 HD
BRANCH  21  24
ATOM     24  C   UNL     1      48.597   6.814  17.716  0.00  0.00    +0.000 A 
ATOM     25  C   UNL     1      48.278   8.083  18.185  0.00  0.00    +0.000 A 
ATOM     26  S   UNL     1      48.043   8.144  19.877  0.00  0.00    +0.000 S 
ATOM     27  C   UNL     1      48.312   6.470  20.024  0.00  0.00    +0.000 A 
ATOM     28  N   UNL     1      48.364   5.865  21.241  0.00  0.00    +0.000 NA
ATOM     29  C   UNL     1      48.543   4.586  21.188  0.00  0.00    +0.000 A 
ATOM     30  N   UNL     1      48.624   3.851  20.035  0.00  0.00    +0.000 N 
ATOM     31  C   UNL     1      48.519   4.417  18.786  0.00  0.00    +0.000 A 
ATOM     32  O   UNL     1      48.444   3.733  17.773  0.00  0.00    +0.000 OA
ATOM     33  C   UNL     1      48.456   5.864  18.790  0.00  0.00    +0.000 A 
ATOM     34  H   UNL     1      48.673   2.845  20.061  0.00  0.00    +0.000 HD
ENDBRANCH  21  24
ENDBRANCH  19  20
ENDBRANCH   4  19
TORSDOF 8
ENDMDL
MODEL 2
REMARK VINA RESULT:    -8.320      1.695      2.076
REMARK INTER + INTRA:         -13.231
REMARK INTER:                 -11.918
REMARK INTRA:                  -1.313
REMARK UNBOUND:                -1.020
REMARK  Name = 
REMARK  9 active torsions:
REMARK  status: ('A' for Active; 'I' for Inactive)
REMARK    1  A    between atoms: C_1  and  C_2
REMARK    2  A    between atoms: C_2  and  C_3
REMARK    3  A    between atoms: C_3  and  N_4
REMARK    4  A    between atoms: C_3  and  C_12
REMARK    5  A    between atoms: N_4  and  C_5
REMARK    6  A    between atoms: C_5  and  C_6
REMARK    7  A    between atoms: C_15  and  C_16
REMARK    8  A    between atoms: C_16  and  N_17
REMARK    9  A    between atoms: C_18  and  C_20
REMARK                            x       y       z     vdW  Elec       q    Type
REMARK                         _______ _______ _______ _____ _____    ______ ____
ROOT
ATOM      1  C   UNL     1      44.694   5.829  11.138  0.00  0.00    +0.000 A 
ATOM      2  C   UNL     1      44.299   7.081  11.634  0.00  0.00    +0.000 A 
ATOM      3  C   UNL     1      45.191   7.890  12.354  0.00  0.00    +0.000 A 
ATOM      4  C   UNL     1      46.510   7.481  12.583  0.00  0.00    +0.000 A 
ATOM      5  C   UNL     1      46.924   6.254  12.051  0.00  0.00    +0.000 A 
ATOM      6  C   UNL     1      46.036   5.453  11.319  0.00  0.00    +0.000 A 
ENDROOT
BRANCH   1   7
ATOM      7  C   UNL     1      43.658   4.905  10.488  0.00  0.00    +0.000 C 
BRANCH   7   9
ATOM      8  C   UNL     1      43.279   4.084  12.899  0.00  0.00    +0.000 C 
ATOM      9  C   UNL     1      43.240   3.734  11.418  0.00  0.00    +0.000 C 
ENDBRANCH   7   9
BRANCH   7  10
ATOM     10  N   UNL     1      44.135   4.426   9.176  0.00  0.00    +0.000 NA
ATOM     11  H   UNL     1      43.408   4.596   8.478  0.00  0.00    +0.000 HD
BRANCH  10  12
ATOM     12  C   UNL     1      44.406   2.968   9.167  0.00  0.00    +0.000 C 
BRANCH  12  13
ATOM     13  C   UNL     1      45.601   2.546   8.326  0.00  0.00    +0.000 A 
ATOM     14  N   UNL     1      45.983   1.251   8.396  0.00  0.00    +0.000 NA
ATOM     15  C   UNL     1      47.039   0.892   7.646  0.00  0.00    +0.000 A 
ATOM     16  C   UNL     1      47.714   1.761   6.825  0.00  0.00    +0.000 A 
ATOM     17  C   UNL     1      47.233   3.051   6.804  0.00  0.00    +0.000 A 
ATOM     18  N   UNL     1      46.181   3.472   7.534  0.00  0.00    +0.000 NA
ENDBRANCH  12  13
ENDBRANCH  10  12
ENDBRANCH   7  10
ENDBRANCH   1   7
BRANCH   4  19
ATOM     19  C   UNL     1      47.449   8.343  13.388  0.00  0.00    +0.000 C 
BRANCH  19  20
ATOM     20  N   UNL     1      47.685   7.814  14.712  0.00  0.00    +0.000 N 
ATOM     21  C   UNL     1      48.843   7.134  15.001  0.00  0.00    +0.000 C 
ATOM     22  O   UNL     1      49.720   6.978  14.152  0.00  0.00    +0.000 OA
ATOM     23  H   UNL     1      47.095   8.151  15.469  0.00  0.00    +0.000 HD
BRANCH  21  24
ATOM     24  C   UNL     1      48.966   6.521  16.334  0.00  0.00    +0.000 A 
ATOM     25  C   UNL     1      49.741   7.126  17.316  0.00  0.00    +0.000 A 
ATOM     26  S   UNL     1      49.993   6.140  18.689  0.00  0.00    +0.000 S 
ATOM     27  C   UNL     1      49.032   4.898  18.033  0.00  0.00    +0.000 A 
ATOM     28  N   UNL     1      48.907   3.695  18.655  0.00  0.00    +0.000 NA
ATOM     29  C   UNL     1      48.119   2.866  18.052  0.00  0.00    +0.000 A 
ATOM     30  N   UNL     1      47.408   3.145  16.915  0.00  0.00    +0.000 N 
ATOM     31  C   UNL     1      47.463   4.368  16.288  0.00  0.00    +0.000 A 
ATOM     32  O   UNL     1      46.712   4.652  15.362  0.00  0.00    +0.000 OA
ATOM     33  C   UNL     1      48.436   5.283  16.847  0.00  0.00    +0.000 A 
ATOM     34  H   UNL     1      46.741   2.488  16.544  0.00  0.00    +0.000 HD
ENDBRANCH  21  24
ENDBRANCH  19  20
ENDBRANCH   4  19
TORSDOF 8
ENDMDL
MODEL 3
REMARK VINA RESULT:    -8.211      2.135      2.762
REMARK INTER + INTRA:         -13.071
REMARK INTER:                 -11.848
REMARK INTRA:                  -1.223
REMARK UNBOUND:                -1.020
REMARK  Name = 
REMARK  9 active torsions:
REMARK  status: ('A' for Active; 'I' for Inactive)
REMARK    1  A    between atoms: C_1  and  C_2
REMARK    2  A    between atoms: C_2  and  C_3
REMARK    3  A    between atoms: C_3  and  N_4
REMARK    4  A    between atoms: C_3  and  C_12
REMARK    5  A    between atoms: N_4  and  C_5
REMARK    6  A    between atoms: C_5  and  C_6
REMARK    7  A    between atoms: C_15  and  C_16
REMARK    8  A    between atoms: C_16  and  N_17
REMARK    9  A    between atoms: C_18  and  C_20
REMARK                            x       y       z     vdW  Elec       q    Type
REMARK                         _______ _______ _______ _____ _____    ______ ____
ROOT
ATOM      1  C   UNL     1      45.639   4.811  12.100  0.00  0.00    +0.000 A 
ATOM      2  C   UNL     1      46.179   6.051  11.721  0.00  0.00    +0.000 A 
ATOM      3  C   UNL     1      47.072   6.738  12.556  0.00  0.00    +0.000 A 
ATOM      4  C   UNL     1      47.469   6.198  13.785  0.00  0.00    +0.000 A 
ATOM      5  C   UNL     1      46.971   4.942  14.149  0.00  0.00    +0.000 A 
ATOM      6  C   UNL     1      46.090   4.248  13.306  0.00  0.00    +0.000 A 
ENDROOT
BRANCH   1   7
ATOM      7  C   UNL     1      44.553   4.157  11.238  0.00  0.00    +0.000 C 
BRANCH   7   9
ATOM      8  C   UNL     1      42.473   5.605  11.699  0.00  0.00    +0.000 C 
ATOM      9  C   UNL     1      43.145   4.251  11.885  0.00  0.00    +0.000 C 
ENDBRANCH   7   9
BRANCH   7  10
ATOM     10  N   UNL     1      44.918   2.767  10.906  0.00  0.00    +0.000 NA
ATOM     11  H   UNL     1      45.936   2.681  10.915  0.00  0.00    +0.000 HD
BRANCH  10  12
ATOM     12  C   UNL     1      44.466   2.369   9.550  0.00  0.00    +0.000 C 
BRANCH  12  13
ATOM     13  C   UNL     1      45.566   2.325   8.499  0.00  0.00    +0.000 A 
ATOM     14  N   UNL     1      45.857   3.478   7.856  0.00  0.00    +0.000 NA
ATOM     15  C   UNL     1      46.832   3.423   6.932  0.00  0.00    +0.000 A 
ATOM     16  C   UNL     1      47.531   2.279   6.636  0.00  0.00    +0.000 A 
ATOM     17  C   UNL     1      47.177   1.164   7.361  0.00  0.00    +0.000 A 
ATOM     18  N   UNL     1      46.209   1.155   8.300  0.00  0.00    +0.000 NA
ENDBRANCH  12  13
ENDBRANCH  10  12
ENDBRANCH   7  10
ENDBRANCH   1   7
BRANCH   4  19
ATOM     19  C   UNL     1      48.402   6.963  14.690  0.00  0.00    +0.000 C 
BRANCH  19  20
ATOM     20  N   UNL     1      49.254   6.092  15.468  0.00  0.00    +0.000 N 
ATOM     21  C   UNL     1      49.279   6.174  16.838  0.00  0.00    +0.000 C 
ATOM     22  O   UNL     1      48.563   6.971  17.443  0.00  0.00    +0.000 OA
ATOM     23  H   UNL     1      49.649   5.278  15.002  0.00  0.00    +0.000 HD
BRANCH  21  24
ATOM     24  C   UNL     1      50.255   5.339  17.559  0.00  0.00    +0.000 A 
ATOM     25  C   UNL     1      51.203   5.927  18.387  0.00  0.00    +0.000 A 
ATOM     26  S   UNL     1      52.415   4.842  18.913  0.00  0.00    +0.000 S 
ATOM     27  C   UNL     1      51.680   3.546  18.089  0.00  0.00    +0.000 A 
ATOM     28  N   UNL     1      52.266   2.321  18.030  0.00  0.00    +0.000 NA
ATOM     29  C   UNL     1      51.572   1.432  17.397  0.00  0.00    +0.000 A 
ATOM     30  N   UNL     1      50.329   1.642  16.863  0.00  0.00    +0.000 N 
ATOM     31  C   UNL     1      49.678   2.851  16.951  0.00  0.00    +0.000 A 
ATOM     32  O   UNL     1      48.511   2.982  16.601  0.00  0.00    +0.000 OA
ATOM     33  C   UNL     1      50.471   3.915  17.529  0.00  0.00    +0.000 A 
ATOM     34  H   UNL     1      49.800   0.884  16.461  0.00  0.00    +0.000 HD
ENDBRANCH  21  24
ENDBRANCH  19  20
ENDBRANCH   4  19
TORSDOF 8
ENDMDL
MODEL 4
REMARK VINA RESULT:    -7.922      1.614      2.543
REMARK INTER + INTRA:         -12.647
REMARK INTER:                 -11.448
REMARK INTRA:                  -1.199
REMARK UNBOUND:                -1.020
REMARK  Name = 
REMARK  9 active torsions:
REMARK  status: ('A' for Active; 'I' for Inactive)
REMARK    1  A    between atoms: C_1  and  C_2
REMARK    2  A    between atoms: C_2  and  C_3
REMARK    3  A    between atoms: C_3  and  N_4
REMARK    4  A    between atoms: C_3  and  C_12
REMARK    5  A    between atoms: N_4  and  C_5
REMARK    6  A    between atoms: C_5  and  C_6
REMARK    7  A    between atoms: C_15  and  C_16
REMARK    8  A    between atoms: C_16  and  N_17
REMARK    9  A    between atoms: C_18  and  C_20
REMARK                            x       y       z     vdW  Elec       q    Type
REMARK                         _______ _______ _______ _____ _____    ______ ____
ROOT
ATOM      1  C   UNL     1      45.410   4.987  11.649  0.00  0.00    +0.000 A 
ATOM      2  C   UNL     1      45.845   4.589  12.924  0.00  0.00    +0.000 A 
ATOM      3  C   UNL     1      46.889   5.261  13.575  0.00  0.00    +0.000 A 
ATOM      4  C   UNL     1      47.517   6.363  12.983  0.00  0.00    +0.000 A 
ATOM      5  C   UNL     1      47.058   6.794  11.733  0.00  0.00    +0.000 A 
ATOM      6  C   UNL     1      46.003   6.131  11.089  0.00  0.00    +0.000 A 
ENDROOT
BRANCH   1   7
ATOM      7  C   UNL     1      44.372   4.143  10.900  0.00  0.00    +0.000 C 
BRANCH   7   9
ATOM      8  C   UNL     1      42.448   5.601  11.797  0.00  0.00    +0.000 C 
ATOM      9  C   UNL     1      42.974   4.190  11.572  0.00  0.00    +0.000 C 
ENDBRANCH   7   9
BRANCH   7  10
ATOM     10  N   UNL     1      44.854   2.761  10.721  0.00  0.00    +0.000 NA
ATOM     11  H   UNL     1      45.873   2.753  10.801  0.00  0.00    +0.000 HD
BRANCH  10  12
ATOM     12  C   UNL     1      44.526   2.213   9.382  0.00  0.00    +0.000 C 
BRANCH  12  13
ATOM     13  C   UNL     1      45.680   2.220   8.389  0.00  0.00    +0.000 A 
ATOM     14  N   UNL     1      46.295   1.041   8.145  0.00  0.00    +0.000 NA
ATOM     15  C   UNL     1      47.311   1.063   7.265  0.00  0.00    +0.000 A 
ATOM     16  C   UNL     1      47.724   2.199   6.614  0.00  0.00    +0.000 A 
ATOM     17  C   UNL     1      47.019   3.342   6.911  0.00  0.00    +0.000 A 
ATOM     18  N   UNL     1      45.992   3.385   7.785  0.00  0.00    +0.000 NA
ENDBRANCH  12  13
ENDBRANCH  10  12
ENDBRANCH   7  10
ENDBRANCH   1   7
BRANCH   4  19
ATOM     19  C   UNL     1      48.662   7.055  13.679  0.00  0.00    +0.000 C 
BRANCH  19  20
ATOM     20  N   UNL     1      48.346   7.407  15.045  0.00  0.00    +0.000 N 
ATOM     21  C   UNL     1      49.122   6.956  16.084  0.00  0.00    +0.000 C 
ATOM     22  O   UNL     1      50.118   6.261  15.883  0.00  0.00    +0.000 OA
ATOM     23  H   UNL     1      47.692   8.170  15.197  0.00  0.00    +0.000 HD
BRANCH  21  24
ATOM     24  C   UNL     1      48.676   7.254  17.455  0.00  0.00    +0.000 A 
ATOM     25  C   UNL     1      48.521   6.230  18.381  0.00  0.00    +0.000 A 
ATOM     26  S   UNL     1      47.736   6.722  19.817  0.00  0.00    +0.000 S 
ATOM     27  C   UNL     1      47.625   8.328  19.264  0.00  0.00    +0.000 A 
ATOM     28  N   UNL     1      46.954   9.276  19.970  0.00  0.00    +0.000 NA
ATOM     29  C   UNL     1      46.985  10.454  19.438  0.00  0.00    +0.000 A 
ATOM     30  N   UNL     1      47.663  10.780  18.294  0.00  0.00    +0.000 N 
ATOM     31  C   UNL     1      48.400   9.863  17.581  0.00  0.00    +0.000 A 
ATOM     32  O   UNL     1      49.119  10.199  16.648  0.00  0.00    +0.000 OA
ATOM     33  C   UNL     1      48.284   8.502  18.061  0.00  0.00    +0.000 A 
ATOM     34  H   UNL     1      47.724  11.736  17.979  0.00  0.00    +0.000 HD
ENDBRANCH  21  24
ENDBRANCH  19  20
ENDBRANCH   4  19
TORSDOF 8
ENDMDL
MODEL 5
REMARK VINA RESULT:    -7.838      1.379      2.142
REMARK INTER + INTRA:         -12.523
REMARK INTER:                 -11.357
REMARK INTRA:                  -1.166
REMARK UNBOUND:                -1.020
REMARK  Name = 
REMARK  9 active torsions:
REMARK  status: ('A' for Active; 'I' for Inactive)
REMARK    1  A    between atoms: C_1  and  C_2
REMARK    2  A    between atoms: C_2  and  C_3
REMARK    3  A    between atoms: C_3  and  N_4
REMARK    4  A    between atoms: C_3  and  C_12
REMARK    5  A    between atoms: N_4  and  C_5
REMARK    6  A    between atoms: C_5  and  C_6
REMARK    7  A    between atoms: C_15  and  C_16
REMARK    8  A    between atoms: C_16  and  N_17
REMARK    9  A    between atoms: C_18  and  C_20
REMARK                            x       y       z     vdW  Elec       q    Type
REMARK                         _______ _______ _______ _____ _____    ______ ____
ROOT
ATOM      1  C   UNL     1      45.461   4.943  11.712  0.00  0.00    +0.000 A 
ATOM      2  C   UNL     1      45.818   6.217  11.242  0.00  0.00    +0.000 A 
ATOM      3  C   UNL     1      46.673   7.049  11.980  0.00  0.00    +0.000 A 
ATOM      4  C   UNL     1      47.213   6.625  13.200  0.00  0.00    +0.000 A 
ATOM      5  C   UNL     1      46.898   5.339  13.653  0.00  0.00    +0.000 A 
ATOM      6  C   UNL     1      46.056   4.502  12.906  0.00  0.00    +0.000 A 
ENDROOT
BRANCH   1   7
ATOM      7  C   UNL     1      44.410   4.120  10.958  0.00  0.00    +0.000 C 
BRANCH   7   9
ATOM      8  C   UNL     1      42.411   5.541  11.743  0.00  0.00    +0.000 C 
ATOM      9  C   UNL     1      43.023   4.150  11.654  0.00  0.00    +0.000 C 
ENDBRANCH   7   9
BRANCH   7  10
ATOM     10  N   UNL     1      44.888   2.742  10.736  0.00  0.00    +0.000 NA
ATOM     11  H   UNL     1      45.909   2.735  10.780  0.00  0.00    +0.000 HD
BRANCH  10  12
ATOM     12  C   UNL     1      44.514   2.219   9.399  0.00  0.00    +0.000 C 
BRANCH  12  13
ATOM     13  C   UNL     1      45.645   2.201   8.381  0.00  0.00    +0.000 A 
ATOM     14  N   UNL     1      45.955   3.370   7.778  0.00  0.00    +0.000 NA
ATOM     15  C   UNL     1      46.957   3.339   6.883  0.00  0.00    +0.000 A 
ATOM     16  C   UNL     1      47.665   2.202   6.579  0.00  0.00    +0.000 A 
ATOM     17  C   UNL     1      47.290   1.069   7.264  0.00  0.00    +0.000 A 
ATOM     18  N   UNL     1      46.293   1.036   8.172  0.00  0.00    +0.000 NA
ENDBRANCH  12  13
ENDBRANCH  10  12
ENDBRANCH   7  10
ENDBRANCH   1   7
BRANCH   4  19
ATOM     19  C   UNL     1      48.102   7.542  14.002  0.00  0.00    +0.000 C 
BRANCH  19  20
ATOM     20  N   UNL     1      48.308   7.069  15.353  0.00  0.00    +0.000 N 
ATOM     21  C   UNL     1      49.571   6.789  15.814  0.00  0.00    +0.000 C 
ATOM     22  O   UNL     1      50.561   6.954  15.102  0.00  0.00    +0.000 OA
ATOM     23  H   UNL     1      47.540   7.171  16.011  0.00  0.00    +0.000 HD
BRANCH  21  24
ATOM     24  C   UNL     1      49.697   6.200  17.157  0.00  0.00    +0.000 A 
ATOM     25  C   UNL     1      50.569   5.142  17.380  0.00  0.00    +0.000 A 
ATOM     26  S   UNL     1      50.378   4.412  18.913  0.00  0.00    +0.000 S 
ATOM     27  C   UNL     1      49.159   5.519  19.342  0.00  0.00    +0.000 A 
ATOM     28  N   UNL     1      48.471   5.400  20.509  0.00  0.00    +0.000 NA
ATOM     29  C   UNL     1      47.601   6.334  20.709  0.00  0.00    +0.000 A 
ATOM     30  N   UNL     1      47.389   7.401  19.876  0.00  0.00    +0.000 N 
ATOM     31  C   UNL     1      48.103   7.589  18.715  0.00  0.00    +0.000 A 
ATOM     32  O   UNL     1      48.008   8.619  18.060  0.00  0.00    +0.000 OA
ATOM     33  C   UNL     1      48.993   6.497  18.379  0.00  0.00    +0.000 A 
ATOM     34  H   UNL     1      46.760   8.144  20.132  0.00  0.00    +0.000 HD
ENDBRANCH  21  24
ENDBRANCH  19  20
ENDBRANCH   4  19
TORSDOF 8
ENDMDL
MODEL 6
REMARK VINA RESULT:    -7.046      3.771      5.851
REMARK INTER + INTRA:         -11.361
REMARK INTER:                  -9.958
REMARK INTRA:                  -1.403
REMARK UNBOUND:                -1.020
REMARK  Name = 
REMARK  9 active torsions:
REMARK  status: ('A' for Active; 'I' for Inactive)
REMARK    1  A    between atoms: C_1  and  C_2
REMARK    2  A    between atoms: C_2  and  C_3
REMARK    3  A    between atoms: C_3  and  N_4
REMARK    4  A    between atoms: C_3  and  C_12
REMARK    5  A    between atoms: N_4  and  C_5
REMARK    6  A    between atoms: C_5  and  C_6
REMARK    7  A    between atoms: C_15  and  C_16
REMARK    8  A    between atoms: C_16  and  N_17
REMARK    9  A    between atoms: C_18  and  C_20
REMARK                            x       y       z     vdW  Elec       q    Type
REMARK                         _______ _______ _______ _____ _____    ______ ____
ROOT
ATOM      1  C   UNL     1      47.662   5.897  14.519  0.00  0.00    +0.000 A 
ATOM      2  C   UNL     1      47.011   4.654  14.589  0.00  0.00    +0.000 A 
ATOM      3  C   UNL     1      47.243   3.774  15.655  0.00  0.00    +0.000 A 
ATOM      4  C   UNL     1      48.117   4.116  16.694  0.00  0.00    +0.000 A 
ATOM      5  C   UNL     1      48.734   5.371  16.655  0.00  0.00    +0.000 A 
ATOM      6  C   UNL     1      48.489   6.258  15.595  0.00  0.00    +0.000 A 
ENDROOT
BRANCH   1   7
ATOM      7  C   UNL     1      47.503   6.771  13.269  0.00  0.00    +0.000 C 
BRANCH   7   9
ATOM      8  C   UNL     1      49.241   7.716  11.620  0.00  0.00    +0.000 C 
ATOM      9  C   UNL     1      48.714   7.716  13.049  0.00  0.00    +0.000 C 
ENDBRANCH   7   9
BRANCH   7  10
ATOM     10  N   UNL     1      46.225   7.508  13.307  0.00  0.00    +0.000 NA
ATOM     11  H   UNL     1      45.708   7.228  14.143  0.00  0.00    +0.000 HD
BRANCH  10  12
ATOM     12  C   UNL     1      45.358   7.202  12.143  0.00  0.00    +0.000 C 
BRANCH  12  13
ATOM     13  C   UNL     1      44.698   5.831  12.182  0.00  0.00    +0.000 A 
ATOM     14  N   UNL     1      45.108   4.919  11.273  0.00  0.00    +0.000 NA
ATOM     15  C   UNL     1      44.517   3.712  11.321  0.00  0.00    +0.000 A 
ATOM     16  C   UNL     1      43.553   3.378  12.240  0.00  0.00    +0.000 A 
ATOM     17  C   UNL     1      43.222   4.367  13.138  0.00  0.00    +0.000 A 
ATOM     18  N   UNL     1      43.778   5.596  13.140  0.00  0.00    +0.000 NA
ENDBRANCH  12  13
ENDBRANCH  10  12
ENDBRANCH   7  10
ENDBRANCH   1   7
BRANCH   4  19
ATOM     19  C   UNL     1      48.386   3.146  17.817  0.00  0.00    +0.000 C 
BRANCH  19  20
ATOM     20  N   UNL     1      49.799   2.953  18.053  0.00  0.00    +0.000 N 
ATOM     21  C   UNL     1      50.554   2.180  17.206  0.00  0.00    +0.000 C 
ATOM     22  O   UNL     1      50.057   1.650  16.212  0.00  0.00    +0.000 OA
ATOM     23  H   UNL     1      50.258   3.577  18.711  0.00  0.00    +0.000 HD
BRANCH  21  24
ATOM     24  C   UNL     1      51.958   1.929  17.571  0.00  0.00    +0.000 A 
ATOM     25  C   UNL     1      52.489   0.649  17.479  0.00  0.00    +0.000 A 
ATOM     26  S   UNL     1      54.030   0.496  18.203  0.00  0.00    +0.000 S 
ATOM     27  C   UNL     1      54.054   2.148  18.615  0.00  0.00    +0.000 A 
ATOM     28  N   UNL     1      55.058   2.678  19.362  0.00  0.00    +0.000 NA
ATOM     29  C   UNL     1      54.953   3.950  19.564  0.00  0.00    +0.000 A 
ATOM     30  N   UNL     1      53.966   4.748  19.050  0.00  0.00    +0.000 N 
ATOM     31  C   UNL     1      52.964   4.261  18.243  0.00  0.00    +0.000 A 
ATOM     32  O   UNL     1      52.177   5.005  17.671  0.00  0.00    +0.000 OA
ATOM     33  C   UNL     1      52.960   2.820  18.100  0.00  0.00    +0.000 A 
ATOM     34  H   UNL     1      53.990   5.748  19.169  0.00  0.00    +0.000 HD
ENDBRANCH  21  24
ENDBRANCH  19  20
ENDBRANCH   4  19
TORSDOF 8
ENDMDL
MODEL 7
REMARK VINA RESULT:    -7.021      3.770      5.546
REMARK INTER + INTRA:         -11.325
REMARK INTER:                 -10.105
REMARK INTRA:                  -1.220
REMARK UNBOUND:                -1.020
REMARK  Name = 
REMARK  9 active torsions:
REMARK  status: ('A' for Active; 'I' for Inactive)
REMARK    1  A    between atoms: C_1  and  C_2
REMARK    2  A    between atoms: C_2  and  C_3
REMARK    3  A    between atoms: C_3  and  N_4
REMARK    4  A    between atoms: C_3  and  C_12
REMARK    5  A    between atoms: N_4  and  C_5
REMARK    6  A    between atoms: C_5  and  C_6
REMARK    7  A    between atoms: C_15  and  C_16
REMARK    8  A    between atoms: C_16  and  N_17
REMARK    9  A    between atoms: C_18  and  C_20
REMARK                            x       y       z     vdW  Elec       q    Type
REMARK                         _______ _______ _______ _____ _____    ______ ____
ROOT
ATOM      1  C   UNL     1      45.517   4.982  11.785  0.00  0.00    +0.000 A 
ATOM      2  C   UNL     1      45.872   6.262  11.330  0.00  0.00    +0.000 A 
ATOM      3  C   UNL     1      46.702   7.097  12.092  0.00  0.00    +0.000 A 
ATOM      4  C   UNL     1      47.219   6.671  13.321  0.00  0.00    +0.000 A 
ATOM      5  C   UNL     1      46.907   5.379  13.760  0.00  0.00    +0.000 A 
ATOM      6  C   UNL     1      46.089   4.539  12.989  0.00  0.00    +0.000 A 
ENDROOT
BRANCH   1   7
ATOM      7  C   UNL     1      44.491   4.153  11.003  0.00  0.00    +0.000 C 
BRANCH   7   9
ATOM      8  C   UNL     1      42.443   5.533  11.736  0.00  0.00    +0.000 C 
ATOM      9  C   UNL     1      43.091   4.156  11.675  0.00  0.00    +0.000 C 
ENDBRANCH   7   9
BRANCH   7  10
ATOM     10  N   UNL     1      44.991   2.784  10.774  0.00  0.00    +0.000 NA
ATOM     11  H   UNL     1      46.012   2.794  10.819  0.00  0.00    +0.000 HD
BRANCH  10  12
ATOM     12  C   UNL     1      44.625   2.262   9.435  0.00  0.00    +0.000 C 
BRANCH  12  13
ATOM     13  C   UNL     1      45.769   2.222   8.431  0.00  0.00    +0.000 A 
ATOM     14  N   UNL     1      46.323   1.017   8.170  0.00  0.00    +0.000 NA
ATOM     15  C   UNL     1      47.331   0.997   7.281  0.00  0.00    +0.000 A 
ATOM     16  C   UNL     1      47.793   2.118   6.636  0.00  0.00    +0.000 A 
ATOM     17  C   UNL     1      47.148   3.292   6.951  0.00  0.00    +0.000 A 
ATOM     18  N   UNL     1      46.133   3.377   7.836  0.00  0.00    +0.000 NA
ENDBRANCH  12  13
ENDBRANCH  10  12
ENDBRANCH   7  10
ENDBRANCH   1   7
BRANCH   4  19
ATOM     19  C   UNL     1      48.081   7.592  14.148  0.00  0.00    +0.000 C 
BRANCH  19  20
ATOM     20  N   UNL     1      49.482   7.490  13.807  0.00  0.00    +0.000 N 
ATOM     21  C   UNL     1      50.346   8.525  14.068  0.00  0.00    +0.000 C 
ATOM     22  O   UNL     1      49.960   9.556  14.619  0.00  0.00    +0.000 OA
ATOM     23  H   UNL     1      49.850   6.567  13.590  0.00  0.00    +0.000 HD
BRANCH  21  24
ATOM     24  C   UNL     1      51.732   8.401  13.588  0.00  0.00    +0.000 A 
ATOM     25  C   UNL     1      52.792   8.454  14.485  0.00  0.00    +0.000 A 
ATOM     26  S   UNL     1      54.320   8.575  13.728  0.00  0.00    +0.000 S 
ATOM     27  C   UNL     1      53.613   8.509  12.181  0.00  0.00    +0.000 A 
ATOM     28  N   UNL     1      54.356   8.672  11.054  0.00  0.00    +0.000 NA
ATOM     29  C   UNL     1      53.683   8.565   9.956  0.00  0.00    +0.000 A 
ATOM     30  N   UNL     1      52.350   8.261   9.879  0.00  0.00    +0.000 N 
ATOM     31  C   UNL     1      51.576   8.033  10.992  0.00  0.00    +0.000 A 
ATOM     32  O   UNL     1      50.426   7.619  10.905  0.00  0.00    +0.000 OA
ATOM     33  C   UNL     1      52.252   8.277  12.249  0.00  0.00    +0.000 A 
ATOM     34  H   UNL     1      51.903   8.102   8.990  0.00  0.00    +0.000 HD
ENDBRANCH  21  24
ENDBRANCH  19  20
ENDBRANCH   4  19
TORSDOF 8
ENDMDL
MODEL 8
REMARK VINA RESULT:    -6.911      4.921      9.751
REMARK INTER + INTRA:         -11.163
REMARK INTER:                 -10.051
REMARK INTRA:                  -1.112
REMARK UNBOUND:                -1.020
REMARK  Name = 
REMARK  9 active torsions:
REMARK  status: ('A' for Active; 'I' for Inactive)
REMARK    1  A    between atoms: C_1  and  C_2
REMARK    2  A    between atoms: C_2  and  C_3
REMARK    3  A    between atoms: C_3  and  N_4
REMARK    4  A    between atoms: C_3  and  C_12
REMARK    5  A    between atoms: N_4  and  C_5
REMARK    6  A    between atoms: C_5  and  C_6
REMARK    7  A    between atoms: C_15  and  C_16
REMARK    8  A    between atoms: C_16  and  N_17
REMARK    9  A    between atoms: C_18  and  C_20
REMARK                            x       y       z     vdW  Elec       q    Type
REMARK                         _______ _______ _______ _____ _____    ______ ____
ROOT
ATOM      1  C   UNL     1      51.512   3.613  18.134  0.00  0.00    +0.000 A 
ATOM      2  C   UNL     1      51.022   2.489  17.449  0.00  0.00    +0.000 A 
ATOM      3  C   UNL     1      49.668   2.388  17.099  0.00  0.00    +0.000 A 
ATOM      4  C   UNL     1      48.766   3.415  17.405  0.00  0.00    +0.000 A 
ATOM      5  C   UNL     1      49.257   4.558  18.046  0.00  0.00    +0.000 A 
ATOM      6  C   UNL     1      50.615   4.665  18.382  0.00  0.00    +0.000 A 
ENDROOT
BRANCH   1   7
ATOM      7  C   UNL     1      52.962   3.628  18.635  0.00  0.00    +0.000 C 
BRANCH   7   9
ATOM      8  C   UNL     1      53.957   5.402  17.054  0.00  0.00    +0.000 C 
ATOM      9  C   UNL     1      53.976   3.947  17.504  0.00  0.00    +0.000 C 
ENDBRANCH   7   9
BRANCH   7  10
ATOM     10  N   UNL     1      53.287   2.368  19.331  0.00  0.00    +0.000 NA
ATOM     11  H   UNL     1      53.254   2.530  20.339  0.00  0.00    +0.000 HD
BRANCH  10  12
ATOM     12  C   UNL     1      54.654   1.884  19.019  0.00  0.00    +0.000 C 
BRANCH  12  13
ATOM     13  C   UNL     1      54.733   0.424  18.595  0.00  0.00    +0.000 A 
ATOM     14  N   UNL     1      54.640  -0.510  19.568  0.00  0.00    +0.000 NA
ATOM     15  C   UNL     1      54.709  -1.795  19.178  0.00  0.00    +0.000 A 
ATOM     16  C   UNL     1      54.851  -2.181  17.868  0.00  0.00    +0.000 A 
ATOM     17  C   UNL     1      54.911  -1.157  16.951  0.00  0.00    +0.000 A 
ATOM     18  N   UNL     1      54.849   0.149  17.279  0.00  0.00    +0.000 NA
ENDBRANCH  12  13
ENDBRANCH  10  12
ENDBRANCH   7  10
ENDBRANCH   1   7
BRANCH   4  19
ATOM     19  C   UNL     1      47.306   3.278  17.055  0.00  0.00    +0.000 C 
BRANCH  19  20
ATOM     20  N   UNL     1      46.878   4.256  16.080  0.00  0.00    +0.000 N 
ATOM     21  C   UNL     1      47.006   4.010  14.735  0.00  0.00    +0.000 C 
ATOM     22  O   UNL     1      47.464   2.945  14.321  0.00  0.00    +0.000 OA
ATOM     23  H   UNL     1      46.280   5.013  16.401  0.00  0.00    +0.000 HD
BRANCH  21  24
ATOM     24  C   UNL     1      46.661   5.095  13.802  0.00  0.00    +0.000 A 
ATOM     25  C   UNL     1      47.433   6.250  13.752  0.00  0.00    +0.000 A 
ATOM     26  S   UNL     1      46.728   7.501  12.825  0.00  0.00    +0.000 S 
ATOM     27  C   UNL     1      45.397   6.520  12.424  0.00  0.00    +0.000 A 
ATOM     28  N   UNL     1      44.339   7.012  11.725  0.00  0.00    +0.000 NA
ATOM     29  C   UNL     1      43.421   6.138  11.469  0.00  0.00    +0.000 A 
ATOM     30  N   UNL     1      43.485   4.812  11.804  0.00  0.00    +0.000 N 
ATOM     31  C   UNL     1      44.562   4.263  12.460  0.00  0.00    +0.000 A 
ATOM     32  O   UNL     1      44.672   3.054  12.620  0.00  0.00    +0.000 OA
ATOM     33  C   UNL     1      45.554   5.228  12.889  0.00  0.00    +0.000 A 
ATOM     34  H   UNL     1      42.778   4.163  11.496  0.00  0.00    +0.000 HD
ENDBRANCH  21  24
ENDBRANCH  19  20
ENDBRANCH   4  19
TORSDOF 8
ENDMDL
MODEL 9
REMARK VINA RESULT:    -6.908      4.008      6.300
REMARK INTER + INTRA:         -11.159
REMARK INTER:                 -10.204
REMARK INTRA:                  -0.955
REMARK UNBOUND:                -1.020
REMARK  Name = 
REMARK  9 active torsions:
REMARK  status: ('A' for Active; 'I' for Inactive)
REMARK    1  A    between atoms: C_1  and  C_2
REMARK    2  A    between atoms: C_2  and  C_3
REMARK    3  A    between atoms: C_3  and  N_4
REMARK    4  A    between atoms: C_3  and  C_12
REMARK    5  A    between atoms: N_4  and  C_5
REMARK    6  A    between atoms: C_5  and  C_6
REMARK    7  A    between atoms: C_15  and  C_16
REMARK    8  A    between atoms: C_16  and  N_17
REMARK    9  A    between atoms: C_18  and  C_20
REMARK                            x       y       z     vdW  Elec       q    Type
REMARK                         _______ _______ _______ _____ _____    ______ ____
ROOT
ATOM      1  C   UNL     1      45.073   7.646  11.952  0.00  0.00    +0.000 A 
ATOM      2  C   UNL     1      46.358   7.685  12.517  0.00  0.00    +0.000 A 
ATOM      3  C   UNL     1      46.842   6.620  13.290  0.00  0.00    +0.000 A 
ATOM      4  C   UNL     1      46.066   5.475  13.506  0.00  0.00    +0.000 A 
ATOM      5  C   UNL     1      44.802   5.409  12.908  0.00  0.00    +0.000 A 
ATOM      6  C   UNL     1      44.325   6.469  12.122  0.00  0.00    +0.000 A 
ENDROOT
BRANCH   1   7
ATOM      7  C   UNL     1      44.516   8.884  11.240  0.00  0.00    +0.000 C 
BRANCH   7   9
ATOM      8  C   UNL     1      45.793  11.119  11.177  0.00  0.00    +0.000 C 
ATOM      9  C   UNL     1      44.875  10.203  11.975  0.00  0.00    +0.000 C 
ENDBRANCH   7   9
BRANCH   7  10
ATOM     10  N   UNL     1      43.063   8.750  11.021  0.00  0.00    +0.000 NA
ATOM     11  H   UNL     1      42.899   8.007  10.339  0.00  0.00    +0.000 HD
BRANCH  10  12
ATOM     12  C   UNL     1      42.456   9.984  10.465  0.00  0.00    +0.000 C 
BRANCH  12  13
ATOM     13  C   UNL     1      41.282  10.534  11.262  0.00  0.00    +0.000 A 
ATOM     14  N   UNL     1      41.560  11.425  12.240  0.00  0.00    +0.000 NA
ATOM     15  C   UNL     1      40.513  11.903  12.934  0.00  0.00    +0.000 A 
ATOM     16  C   UNL     1      39.212  11.543  12.686  0.00  0.00    +0.000 A 
ATOM     17  C   UNL     1      39.031  10.649  11.655  0.00  0.00    +0.000 A 
ATOM     18  N   UNL     1      40.039  10.133  10.923  0.00  0.00    +0.000 NA
ENDBRANCH  12  13
ENDBRANCH  10  12
ENDBRANCH   7  10
ENDBRANCH   1   7
BRANCH   4  19
ATOM     19  C   UNL     1      46.584   4.352  14.369  0.00  0.00    +0.000 C 
BRANCH  19  20
ATOM     20  N   UNL     1      47.371   4.830  15.483  0.00  0.00    +0.000 N 
ATOM     21  C   UNL     1      47.264   4.247  16.721  0.00  0.00    +0.000 C 
ATOM     22  O   UNL     1      46.515   3.288  16.913  0.00  0.00    +0.000 OA
ATOM     23  H   UNL     1      48.159   5.439  15.278  0.00  0.00    +0.000 HD
BRANCH  21  24
ATOM     24  C   UNL     1      48.005   4.858  17.837  0.00  0.00    +0.000 A 
ATOM     25  C   UNL     1      47.347   5.662  18.760  0.00  0.00    +0.000 A 
ATOM     26  S   UNL     1      48.404   6.504  19.807  0.00  0.00    +0.000 S 
ATOM     27  C   UNL     1      49.768   5.780  19.090  0.00  0.00    +0.000 A 
ATOM     28  N   UNL     1      51.030   6.143  19.442  0.00  0.00    +0.000 NA
ATOM     29  C   UNL     1      51.960   5.482  18.835  0.00  0.00    +0.000 A 
ATOM     30  N   UNL     1      51.746   4.463  17.946  0.00  0.00    +0.000 N 
ATOM     31  C   UNL     1      50.486   4.028  17.606  0.00  0.00    +0.000 A 
ATOM     32  O   UNL     1      50.312   3.022  16.928  0.00  0.00    +0.000 OA
ATOM     33  C   UNL     1      49.410   4.827  18.155  0.00  0.00    +0.000 A 
ATOM     34  H   UNL     1      52.513   3.926  17.575  0.00  0.00    +0.000 HD
ENDBRANCH  21  24
ENDBRANCH  19  20
ENDBRANCH   4  19
TORSDOF 8
ENDMDL
