MODEL 1
REMARK VINA RESULT:    -8.098      0.000      0.000
REMARK INTER + INTRA:         -11.720
REMARK INTER:                 -10.938
REMARK INTRA:                  -0.783
REMARK UNBOUND:                -0.783
REMARK  Name = 
REMARK  7 active torsions:
REMARK  status: ('A' for Active; 'I' for Inactive)
REMARK    1  A    between atoms: C_1  and  C_2
REMARK    2  A    between atoms: C_5  and  C_6
REMARK    3  A    between atoms: C_10  and  C_11
REMARK    4  A    between atoms: C_11  and  C_12
REMARK    5  A    between atoms: C_12  and  O_13
REMARK    6  A    between atoms: O_13  and  C_14
REMARK    7  A    between atoms: C_19  and  C_20
REMARK                            x       y       z     vdW  Elec       q    Type
REMARK                         _______ _______ _______ _____ _____    ______ ____
ROOT
ATOM      1  C   UNL     1      44.058   3.848  12.828  0.00  0.00    +0.000 C 
ENDROOT
BRANCH   1   6
ATOM      2  C   UNL     1      45.746   7.302  12.343  0.00  0.00    +0.000 A 
ATOM      3  C   UNL     1      47.028   7.002  12.823  0.00  0.00    +0.000 A 
ATOM      4  C   UNL     1      47.351   5.717  13.275  0.00  0.00    +0.000 A 
ATOM      5  C   UNL     1      46.392   4.702  13.266  0.00  0.00    +0.000 A 
ATOM      6  C   UNL     1      45.101   4.952  12.793  0.00  0.00    +0.000 A 
ATOM      7  C   UNL     1      44.812   6.248  12.325  0.00  0.00    +0.000 A 
BRANCH   2  12
ATOM      8  C   UNL     1      44.445  12.502  10.457  0.00  0.00    +0.000 C 
ATOM      9  C   UNL     1      44.748  11.146  10.988  0.00  0.00    +0.000 A 
ATOM     10  C   UNL     1      43.976  10.038  10.709  0.00  0.00    +0.000 A 
ATOM     11  N   UNL     1      44.252   8.796  11.152  0.00  0.00    +0.000 NA
ATOM     12  C   UNL     1      45.355   8.661  11.911  0.00  0.00    +0.000 A 
ATOM     13  N   UNL     1      46.167   9.684  12.257  0.00  0.00    +0.000 NA
ATOM     14  C   UNL     1      45.843  10.902  11.786  0.00  0.00    +0.000 A 
ENDBRANCH   2  12
ENDBRANCH   1   6
BRANCH   1  15
ATOM     15  C   UNL     1      43.221   3.756  11.549  0.00  0.00    +0.000 C 
BRANCH  15  16
ATOM     16  O   UNL     1      43.598   2.655  10.722  0.00  0.00    +0.000 OA
BRANCH  16  17
ATOM     17  C   UNL     1      44.447   2.990   9.692  0.00  0.00    +0.000 A 
ATOM     18  C   UNL     1      44.616   4.277   9.164  0.00  0.00    +0.000 A 
ATOM     19  C   UNL     1      45.527   4.505   8.133  0.00  0.00    +0.000 A 
ATOM     20  C   UNL     1      46.276   3.450   7.628  0.00  0.00    +0.000 A 
ATOM     21  F   UNL     1      47.150   3.721   6.646  0.00  0.00    +0.000 F 
ATOM     22  C   UNL     1      46.125   2.159   8.135  0.00  0.00    +0.000 A 
ATOM     23  C   UNL     1      45.195   1.933   9.164  0.00  0.00    +0.000 A 
BRANCH  22  24
ATOM     24  C   UNL     1      46.928   1.013   7.640  0.00  0.00    +0.000 C 
ATOM     25  N   UNL     1      48.049   1.279   6.908  0.00  0.00    +0.000 N 
ATOM     26  O   UNL     1      46.609  -0.144   7.885  0.00  0.00    +0.000 OA
ATOM     27  H   UNL     1      48.352   2.219   6.682  0.00  0.00    +0.000 HD
ATOM     28  H   UNL     1      48.607   0.498   6.591  0.00  0.00    +0.000 HD
ENDBRANCH  22  24
ENDBRANCH  16  17
ENDBRANCH  15  16
ENDBRANCH   1  15
TORSDOF 6
ENDMDL
MODEL 2
REMARK VINA RESULT:    -8.022      4.003      7.604
REMARK INTER + INTRA:         -11.618
REMARK INTER:                 -10.785
REMARK INTRA:                  -0.833
REMARK UNBOUND:                -0.783
REMARK  Name = 
REMARK  7 active torsions:
REMARK  status: ('A' for Active; 'I' for Inactive)
REMARK    1  A    between atoms: C_1  and  C_2
REMARK    2  A    between atoms: C_5  and  C_6
REMARK    3  A    between atoms: C_10  and  C_11
REMARK    4  A    between atoms: C_11  and  C_12
REMARK    5  A    between atoms: C_12  and  O_13
REMARK    6  A    between atoms: O_13  and  C_14
REMARK    7  A    between atoms: C_19  and  C_20
REMARK                            x       y       z     vdW  Elec       q    Type
REMARK                         _______ _______ _______ _____ _____    ______ ____
ROOT
ATOM      1  C   UNL     1      44.366   6.806  11.759  0.00  0.00    +0.000 C 
ENDROOT
BRANCH   1   6
ATOM      2  C   UNL     1      44.746   3.465   9.833  0.00  0.00    +0.000 A 
ATOM      3  C   UNL     1      43.984   2.632  10.664  0.00  0.00    +0.000 A 
ATOM      4  C   UNL     1      43.348   3.132  11.806  0.00  0.00    +0.000 A 
ATOM      5  C   UNL     1      43.467   4.481  12.149  0.00  0.00    +0.000 A 
ATOM      6  C   UNL     1      44.212   5.351  11.350  0.00  0.00    +0.000 A 
ATOM      7  C   UNL     1      44.823   4.823  10.196  0.00  0.00    +0.000 A 
BRANCH   2  12
ATOM      8  C   UNL     1      47.807   1.652   5.402  0.00  0.00    +0.000 C 
ATOM      9  C   UNL     1      46.963   2.101   6.543  0.00  0.00    +0.000 A 
ATOM     10  C   UNL     1      46.649   1.290   7.613  0.00  0.00    +0.000 A 
ATOM     11  N   UNL     1      45.915   1.687   8.670  0.00  0.00    +0.000 NA
ATOM     12  C   UNL     1      45.477   2.959   8.652  0.00  0.00    +0.000 A 
ATOM     13  N   UNL     1      45.714   3.829   7.645  0.00  0.00    +0.000 NA
ATOM     14  C   UNL     1      46.452   3.377   6.615  0.00  0.00    +0.000 A 
ENDBRANCH   2  12
ENDBRANCH   1   6
BRANCH   1  15
ATOM     15  C   UNL     1      45.485   7.040  12.779  0.00  0.00    +0.000 C 
BRANCH  15  16
ATOM     16  O   UNL     1      46.467   6.004  12.766  0.00  0.00    +0.000 OA
BRANCH  16  17
ATOM     17  C   UNL     1      47.228   5.936  13.911  0.00  0.00    +0.000 A 
ATOM     18  C   UNL     1      48.112   6.925  14.360  0.00  0.00    +0.000 A 
ATOM     19  C   UNL     1      48.815   6.758  15.552  0.00  0.00    +0.000 A 
ATOM     20  C   UNL     1      48.633   5.605  16.305  0.00  0.00    +0.000 A 
ATOM     21  F   UNL     1      49.320   5.495  17.453  0.00  0.00    +0.000 F 
ATOM     22  C   UNL     1      47.760   4.604  15.879  0.00  0.00    +0.000 A 
ATOM     23  C   UNL     1      47.066   4.771  14.668  0.00  0.00    +0.000 A 
BRANCH  22  24
ATOM     24  C   UNL     1      47.519   3.371  16.670  0.00  0.00    +0.000 C 
ATOM     25  N   UNL     1      48.466   2.388  16.637  0.00  0.00    +0.000 N 
ATOM     26  O   UNL     1      46.507   3.233  17.347  0.00  0.00    +0.000 OA
ATOM     27  H   UNL     1      49.318   2.458  16.093  0.00  0.00    +0.000 HD
ATOM     28  H   UNL     1      48.311   1.558  17.194  0.00  0.00    +0.000 HD
ENDBRANCH  22  24
ENDBRANCH  16  17
ENDBRANCH  15  16
ENDBRANCH   1  15
TORSDOF 6
ENDMDL
MODEL 3
REMARK VINA RESULT:    -7.972      2.755      4.758
REMARK INTER + INTRA:         -11.551
REMARK INTER:                 -11.097
REMARK INTRA:                  -0.454
REMARK UNBOUND:                -0.783
REMARK  Name = 
REMARK  7 active torsions:
REMARK  status: ('A' for Active; 'I' for Inactive)
REMARK    1  A    between atoms: C_1  and  C_2
REMARK    2  A    between atoms: C_5  and  C_6
REMARK    3  A    between atoms: C_10  and  C_11
REMARK    4  A    between atoms: C_11  and  C_12
REMARK    5  A    between atoms: C_12  and  O_13
REMARK    6  A    between atoms: O_13  and  C_14
REMARK    7  A    between atoms: C_19  and  C_20
REMARK                            x       y       z     vdW  Elec       q    Type
REMARK                         _______ _______ _______ _____ _____    ______ ____
ROOT
ATOM      1  C   UNL     1      43.820   4.211  12.428  0.00  0.00    +0.000 C 
ENDROOT
BRANCH   1   6
ATOM      2  C   UNL     1      47.085   5.534  14.042  0.00  0.00    +0.000 A 
ATOM      3  C   UNL     1      47.484   6.438  13.047  0.00  0.00    +0.000 A 
ATOM      4  C   UNL     1      46.717   6.632  11.894  0.00  0.00    +0.000 A 
ATOM      5  C   UNL     1      45.531   5.918  11.703  0.00  0.00    +0.000 A 
ATOM      6  C   UNL     1      45.090   5.010  12.669  0.00  0.00    +0.000 A 
ATOM      7  C   UNL     1      45.873   4.851  13.829  0.00  0.00    +0.000 A 
BRANCH   2  12
ATOM      8  C   UNL     1      50.383   4.302  18.503  0.00  0.00    +0.000 C 
ATOM      9  C   UNL     1      49.493   4.659  17.365  0.00  0.00    +0.000 A 
ATOM     10  C   UNL     1      49.650   5.806  16.617  0.00  0.00    +0.000 A 
ATOM     11  N   UNL     1      48.877   6.132  15.563  0.00  0.00    +0.000 NA
ATOM     12  C   UNL     1      47.899   5.263  15.246  0.00  0.00    +0.000 A 
ATOM     13  N   UNL     1      47.650   4.121  15.925  0.00  0.00    +0.000 NA
ATOM     14  C   UNL     1      48.454   3.848  16.968  0.00  0.00    +0.000 A 
ENDBRANCH   2  12
ENDBRANCH   1   6
BRANCH   1  15
ATOM     15  C   UNL     1      44.080   2.777  11.957  0.00  0.00    +0.000 C 
BRANCH  15  16
ATOM     16  O   UNL     1      43.534   2.515  10.664  0.00  0.00    +0.000 OA
BRANCH  16  17
ATOM     17  C   UNL     1      44.368   2.856   9.622  0.00  0.00    +0.000 A 
ATOM     18  C   UNL     1      44.481   4.132   9.055  0.00  0.00    +0.000 A 
ATOM     19  C   UNL     1      45.381   4.368   8.016  0.00  0.00    +0.000 A 
ATOM     20  C   UNL     1      46.175   3.331   7.543  0.00  0.00    +0.000 A 
ATOM     21  F   UNL     1      47.036   3.609   6.551  0.00  0.00    +0.000 F 
ATOM     22  C   UNL     1      46.080   2.051   8.089  0.00  0.00    +0.000 A 
ATOM     23  C   UNL     1      45.161   1.816   9.126  0.00  0.00    +0.000 A 
BRANCH  22  24
ATOM     24  C   UNL     1      46.932   0.926   7.628  0.00  0.00    +0.000 C 
ATOM     25  N   UNL     1      48.049   1.220   6.899  0.00  0.00    +0.000 N 
ATOM     26  O   UNL     1      46.658  -0.237   7.899  0.00  0.00    +0.000 OA
ATOM     27  H   UNL     1      48.316   2.165   6.653  0.00  0.00    +0.000 HD
ATOM     28  H   UNL     1      48.640   0.454   6.605  0.00  0.00    +0.000 HD
ENDBRANCH  22  24
ENDBRANCH  16  17
ENDBRANCH  15  16
ENDBRANCH   1  15
TORSDOF 6
ENDMDL
MODEL 4
REMARK VINA RESULT:    -7.849      3.708      7.234
REMARK INTER + INTRA:         -11.385
REMARK INTER:                 -10.601
REMARK INTRA:                  -0.784
REMARK UNBOUND:                -0.783
REMARK  Name = 
REMARK  7 active torsions:
REMARK  status: ('A' for Active; 'I' for Inactive)
REMARK    1  A    between atoms: C_1  and  C_2
REMARK    2  A    between atoms: C_5  and  C_6
REMARK    3  A    between atoms: C_10  and  C_11
REMARK    4  A    between atoms: C_11  and  C_12
REMARK    5  A    between atoms: C_12  and  O_13
REMARK    6  A    between atoms: O_13  and  C_14
REMARK    7  A    between atoms: C_19  and  C_20
REMARK                            x       y       z     vdW  Elec       q    Type
REMARK                         _______ _______ _______ _____ _____    ______ ____
ROOT
ATOM      1  C   UNL     1      43.638   6.882  11.334  0.00  0.00    +0.000 C 
ENDROOT
BRANCH   1   6
ATOM      2  C   UNL     1      44.673   3.489   9.775  0.00  0.00    +0.000 A 
ATOM      3  C   UNL     1      44.060   2.619  10.688  0.00  0.00    +0.000 A 
ATOM      4  C   UNL     1      43.318   3.108  11.768  0.00  0.00    +0.000 A 
ATOM      5  C   UNL     1      43.177   4.483  11.967  0.00  0.00    +0.000 A 
ATOM      6  C   UNL     1      43.766   5.389  11.081  0.00  0.00    +0.000 A 
ATOM      7  C   UNL     1      44.490   4.868   9.992  0.00  0.00    +0.000 A 
BRANCH   2  12
ATOM      8  C   UNL     1      47.648   1.505   5.358  0.00  0.00    +0.000 C 
ATOM      9  C   UNL     1      46.912   2.049   6.531  0.00  0.00    +0.000 A 
ATOM     10  C   UNL     1      46.443   3.344   6.592  0.00  0.00    +0.000 A 
ATOM     11  N   UNL     1      45.747   3.847   7.630  0.00  0.00    +0.000 NA
ATOM     12  C   UNL     1      45.511   3.009   8.656  0.00  0.00    +0.000 A 
ATOM     13  N   UNL     1      45.942   1.728   8.703  0.00  0.00    +0.000 NA
ATOM     14  C   UNL     1      46.632   1.281   7.638  0.00  0.00    +0.000 A 
ENDBRANCH   2  12
ENDBRANCH   1   6
BRANCH   1  15
ATOM     15  C   UNL     1      44.975   7.569  11.630  0.00  0.00    +0.000 C 
BRANCH  15  16
ATOM     16  O   UNL     1      46.089   6.685  11.503  0.00  0.00    +0.000 OA
BRANCH  16  17
ATOM     17  C   UNL     1      46.889   6.623  12.622  0.00  0.00    +0.000 A 
ATOM     18  C   UNL     1      47.777   7.621  13.043  0.00  0.00    +0.000 A 
ATOM     19  C   UNL     1      48.521   7.460  14.210  0.00  0.00    +0.000 A 
ATOM     20  C   UNL     1      48.378   6.303  14.965  0.00  0.00    +0.000 A 
ATOM     21  F   UNL     1      49.105   6.199  16.089  0.00  0.00    +0.000 F 
ATOM     22  C   UNL     1      47.503   5.293  14.567  0.00  0.00    +0.000 A 
ATOM     23  C   UNL     1      46.766   5.455  13.381  0.00  0.00    +0.000 A 
BRANCH  22  24
ATOM     24  C   UNL     1      47.303   4.056  15.362  0.00  0.00    +0.000 C 
ATOM     25  N   UNL     1      46.695   4.163  16.580  0.00  0.00    +0.000 N 
ATOM     26  O   UNL     1      47.659   2.961  14.943  0.00  0.00    +0.000 OA
ATOM     27  H   UNL     1      46.383   5.046  16.967  0.00  0.00    +0.000 HD
ATOM     28  H   UNL     1      46.539   3.317  17.111  0.00  0.00    +0.000 HD
ENDBRANCH  22  24
ENDBRANCH  16  17
ENDBRANCH  15  16
ENDBRANCH   1  15
TORSDOF 6
ENDMDL
MODEL 5
REMARK VINA RESULT:    -7.147      3.655      7.474
REMARK INTER + INTRA:         -10.437
REMARK INTER:                  -9.717
REMARK INTRA:                  -0.720
REMARK UNBOUND:                -0.783
REMARK  Name = 
REMARK  7 active torsions:
REMARK  status: ('A' for Active; 'I' for Inactive)
REMARK    1  A    between atoms: C_1  and  C_2
REMARK    2  A    between atoms: C_5  and  C_6
REMARK    3  A    between atoms: C_10  and  C_11
REMARK    4  A    between atoms: C_11  and  C_12
REMARK    5  A    between atoms: C_12  and  O_13
REMARK    6  A    between atoms: O_13  and  C_14
REMARK    7  A    between atoms: C_19  and  C_20
REMARK                            x       y       z     vdW  Elec       q    Type
REMARK                         _______ _______ _______ _____ _____    ______ ____
ROOT
ATOM      1  C   UNL     1      44.517   7.104  11.532  0.00  0.00    +0.000 C 
ENDROOT
BRANCH   1   6
ATOM      2  C   UNL     1      44.797   3.647   9.805  0.00  0.00    +0.000 A 
ATOM      3  C   UNL     1      44.017   2.884  10.686  0.00  0.00    +0.000 A 
ATOM      4  C   UNL     1      43.401   3.468  11.798  0.00  0.00    +0.000 A 
ATOM      5  C   UNL     1      43.558   4.831  12.062  0.00  0.00    +0.000 A 
ATOM      6  C   UNL     1      44.322   5.632  11.209  0.00  0.00    +0.000 A 
ATOM      7  C   UNL     1      44.913   5.021  10.087  0.00  0.00    +0.000 A 
BRANCH   2  12
ATOM      8  C   UNL     1      47.790   1.472   5.492  0.00  0.00    +0.000 C 
ATOM      9  C   UNL     1      46.963   2.019   6.601  0.00  0.00    +0.000 A 
ATOM     10  C   UNL     1      46.546   1.262   7.674  0.00  0.00    +0.000 A 
ATOM     11  N   UNL     1      45.825   1.746   8.705  0.00  0.00    +0.000 NA
ATOM     12  C   UNL     1      45.508   3.053   8.653  0.00  0.00    +0.000 A 
ATOM     13  N   UNL     1      45.853   3.877   7.639  0.00  0.00    +0.000 NA
ATOM     14  C   UNL     1      46.572   3.339   6.637  0.00  0.00    +0.000 A 
ENDBRANCH   2  12
ENDBRANCH   1   6
BRANCH   1  15
ATOM     15  C   UNL     1      45.421   7.351  12.743  0.00  0.00    +0.000 C 
BRANCH  15  16
ATOM     16  O   UNL     1      45.624   8.739  13.006  0.00  0.00    +0.000 OA
BRANCH  16  17
ATOM     17  C   UNL     1      46.728   9.274  12.382  0.00  0.00    +0.000 A 
ATOM     18  C   UNL     1      46.784  10.530  11.764  0.00  0.00    +0.000 A 
ATOM     19  C   UNL     1      47.968  10.982  11.183  0.00  0.00    +0.000 A 
ATOM     20  C   UNL     1      49.104  10.183  11.222  0.00  0.00    +0.000 A 
ATOM     21  F   UNL     1      50.224  10.665  10.662  0.00  0.00    +0.000 F 
ATOM     22  C   UNL     1      49.074   8.927  11.829  0.00  0.00    +0.000 A 
ATOM     23  C   UNL     1      47.873   8.472  12.400  0.00  0.00    +0.000 A 
BRANCH  22  24
ATOM     24  C   UNL     1      50.274   8.058  11.915  0.00  0.00    +0.000 C 
ATOM     25  N   UNL     1      50.509   7.396  13.085  0.00  0.00    +0.000 N 
ATOM     26  O   UNL     1      51.034   7.922  10.964  0.00  0.00    +0.000 OA
ATOM     27  H   UNL     1      49.908   7.476  13.897  0.00  0.00    +0.000 HD
ATOM     28  H   UNL     1      51.314   6.786  13.135  0.00  0.00    +0.000 HD
ENDBRANCH  22  24
ENDBRANCH  16  17
ENDBRANCH  15  16
ENDBRANCH   1  15
TORSDOF 6
ENDMDL
MODEL 6
REMARK VINA RESULT:    -7.077      5.184      7.885
REMARK INTER + INTRA:         -10.341
REMARK INTER:                  -9.131
REMARK INTRA:                  -1.210
REMARK UNBOUND:                -0.783
REMARK  Name = 
REMARK  7 active torsions:
REMARK  status: ('A' for Active; 'I' for Inactive)
REMARK    1  A    between atoms: C_1  and  C_2
REMARK    2  A    between atoms: C_5  and  C_6
REMARK    3  A    between atoms: C_10  and  C_11
REMARK    4  A    between atoms: C_11  and  C_12
REMARK    5  A    between atoms: C_12  and  O_13
REMARK    6  A    between atoms: O_13  and  C_14
REMARK    7  A    between atoms: C_19  and  C_20
REMARK                            x       y       z     vdW  Elec       q    Type
REMARK                         _______ _______ _______ _____ _____    ______ ____
ROOT
ATOM      1  C   UNL     1      49.725   8.414  15.617  0.00  0.00    +0.000 C 
ENDROOT
BRANCH   1   6
ATOM      2  C   UNL     1      47.736   6.934  12.639  0.00  0.00    +0.000 A 
ATOM      3  C   UNL     1      48.387   7.583  11.581  0.00  0.00    +0.000 A 
ATOM      4  C   UNL     1      49.451   8.462  11.815  0.00  0.00    +0.000 A 
ATOM      5  C   UNL     1      49.884   8.719  13.117  0.00  0.00    +0.000 A 
ATOM      6  C   UNL     1      49.269   8.092  14.204  0.00  0.00    +0.000 A 
ATOM      7  C   UNL     1      48.215   7.197  13.937  0.00  0.00    +0.000 A 
BRANCH   2  12
ATOM      8  C   UNL     1      43.458   3.303  11.736  0.00  0.00    +0.000 C 
ATOM      9  C   UNL     1      44.544   4.288  11.993  0.00  0.00    +0.000 A 
ATOM     10  C   UNL     1      45.115   4.472  13.235  0.00  0.00    +0.000 A 
ATOM     11  N   UNL     1      46.120   5.334  13.483  0.00  0.00    +0.000 NA
ATOM     12  C   UNL     1      46.574   6.044  12.433  0.00  0.00    +0.000 A 
ATOM     13  N   UNL     1      46.072   5.951  11.182  0.00  0.00    +0.000 NA
ATOM     14  C   UNL     1      45.069   5.075  10.993  0.00  0.00    +0.000 A 
ENDBRANCH   2  12
ENDBRANCH   1   6
BRANCH   1  15
ATOM     15  C   UNL     1      50.561   7.302  16.259  0.00  0.00    +0.000 C 
BRANCH  15  16
ATOM     16  O   UNL     1      50.137   6.991  17.586  0.00  0.00    +0.000 OA
BRANCH  16  17
ATOM     17  C   UNL     1      49.315   5.890  17.671  0.00  0.00    +0.000 A 
ATOM     18  C   UNL     1      47.963   5.911  18.040  0.00  0.00    +0.000 A 
ATOM     19  C   UNL     1      47.219   4.732  18.067  0.00  0.00    +0.000 A 
ATOM     20  C   UNL     1      47.819   3.529  17.720  0.00  0.00    +0.000 A 
ATOM     21  F   UNL     1      47.058   2.423  17.748  0.00  0.00    +0.000 F 
ATOM     22  C   UNL     1      49.163   3.480  17.351  0.00  0.00    +0.000 A 
ATOM     23  C   UNL     1      49.912   4.670  17.340  0.00  0.00    +0.000 A 
BRANCH  22  24
ATOM     24  C   UNL     1      49.831   2.218  16.947  0.00  0.00    +0.000 C 
ATOM     25  N   UNL     1      50.773   1.690  17.783  0.00  0.00    +0.000 N 
ATOM     26  O   UNL     1      49.544   1.649  15.901  0.00  0.00    +0.000 OA
ATOM     27  H   UNL     1      51.041   2.124  18.659  0.00  0.00    +0.000 HD
ATOM     28  H   UNL     1      51.211   0.818  17.518  0.00  0.00    +0.000 HD
ENDBRANCH  22  24
ENDBRANCH  16  17
ENDBRANCH  15  16
ENDBRANCH   1  15
TORSDOF 6
ENDMDL
MODEL 7
REMARK VINA RESULT:    -7.007      3.833      7.430
REMARK INTER + INTRA:         -10.247
REMARK INTER:                  -9.601
REMARK INTRA:                  -0.645
REMARK UNBOUND:                -0.783
REMARK  Name = 
REMARK  7 active torsions:
REMARK  status: ('A' for Active; 'I' for Inactive)
REMARK    1  A    between atoms: C_1  and  C_2
REMARK    2  A    between atoms: C_5  and  C_6
REMARK    3  A    between atoms: C_10  and  C_11
REMARK    4  A    between atoms: C_11  and  C_12
REMARK    5  A    between atoms: C_12  and  O_13
REMARK    6  A    between atoms: O_13  and  C_14
REMARK    7  A    between atoms: C_19  and  C_20
REMARK                            x       y       z     vdW  Elec       q    Type
REMARK                         _______ _______ _______ _____ _____    ______ ____
ROOT
ATOM      1  C   UNL     1      44.237   6.889  11.775  0.00  0.00    +0.000 C 
ENDROOT
BRANCH   1   6
ATOM      2  C   UNL     1      44.702   3.552   9.861  0.00  0.00    +0.000 A 
ATOM      3  C   UNL     1      43.960   2.703  10.694  0.00  0.00    +0.000 A 
ATOM      4  C   UNL     1      43.311   3.191  11.833  0.00  0.00    +0.000 A 
ATOM      5  C   UNL     1      43.396   4.543  12.172  0.00  0.00    +0.000 A 
ATOM      6  C   UNL     1      44.120   5.429  11.370  0.00  0.00    +0.000 A 
ATOM      7  C   UNL     1      44.745   4.913  10.219  0.00  0.00    +0.000 A 
BRANCH   2  12
ATOM      8  C   UNL     1      47.815   1.780   5.449  0.00  0.00    +0.000 C 
ATOM      9  C   UNL     1      46.957   2.221   6.582  0.00  0.00    +0.000 A 
ATOM     10  C   UNL     1      46.583   1.386   7.613  0.00  0.00    +0.000 A 
ATOM     11  N   UNL     1      45.836   1.773   8.665  0.00  0.00    +0.000 NA
ATOM     12  C   UNL     1      45.446   3.061   8.682  0.00  0.00    +0.000 A 
ATOM     13  N   UNL     1      45.743   3.955   7.713  0.00  0.00    +0.000 NA
ATOM     14  C   UNL     1      46.492   3.512   6.687  0.00  0.00    +0.000 A 
ENDBRANCH   2  12
ENDBRANCH   1   6
BRANCH   1  15
ATOM     15  C   UNL     1      45.514   7.206  12.559  0.00  0.00    +0.000 C 
BRANCH  15  16
ATOM     16  O   UNL     1      46.699   6.860  11.844  0.00  0.00    +0.000 OA
BRANCH  16  17
ATOM     17  C   UNL     1      47.866   7.213  12.484  0.00  0.00    +0.000 A 
ATOM     18  C   UNL     1      48.051   7.255  13.872  0.00  0.00    +0.000 A 
ATOM     19  C   UNL     1      49.289   7.604  14.411  0.00  0.00    +0.000 A 
ATOM     20  C   UNL     1      50.348   7.908  13.566  0.00  0.00    +0.000 A 
ATOM     21  F   UNL     1      51.524   8.225  14.131  0.00  0.00    +0.000 F 
ATOM     22  C   UNL     1      50.189   7.877  12.180  0.00  0.00    +0.000 A 
ATOM     23  C   UNL     1      48.935   7.538  11.644  0.00  0.00    +0.000 A 
BRANCH  22  24
ATOM     24  C   UNL     1      51.305   8.168  11.247  0.00  0.00    +0.000 C 
ATOM     25  N   UNL     1      51.906   7.119  10.612  0.00  0.00    +0.000 N 
ATOM     26  O   UNL     1      51.679   9.315  11.034  0.00  0.00    +0.000 OA
ATOM     27  H   UNL     1      51.630   6.154  10.754  0.00  0.00    +0.000 HD
ATOM     28  H   UNL     1      52.651   7.320   9.959  0.00  0.00    +0.000 HD
ENDBRANCH  22  24
ENDBRANCH  16  17
ENDBRANCH  15  16
ENDBRANCH   1  15
TORSDOF 6
ENDMDL
MODEL 8
REMARK VINA RESULT:    -6.913      3.781      5.610
REMARK INTER + INTRA:         -10.120
REMARK INTER:                  -8.641
REMARK INTRA:                  -1.479
REMARK UNBOUND:                -0.783
REMARK  Name = 
REMARK  7 active torsions:
REMARK  status: ('A' for Active; 'I' for Inactive)
REMARK    1  A    between atoms: C_1  and  C_2
REMARK    2  A    between atoms: C_5  and  C_6
REMARK    3  A    between atoms: C_10  and  C_11
REMARK    4  A    between atoms: C_11  and  C_12
REMARK    5  A    between atoms: C_12  and  O_13
REMARK    6  A    between atoms: O_13  and  C_14
REMARK    7  A    between atoms: C_19  and  C_20
REMARK                            x       y       z     vdW  Elec       q    Type
REMARK                         _______ _______ _______ _____ _____    ______ ____
ROOT
ATOM      1  C   UNL     1      47.749   9.145  13.310  0.00  0.00    +0.000 C 
ENDROOT
BRANCH   1   6
ATOM      2  C   UNL     1      44.930  10.900  11.312  0.00  0.00    +0.000 A 
ATOM      3  C   UNL     1      45.709  11.733  10.497  0.00  0.00    +0.000 A 
ATOM      4  C   UNL     1      47.106  11.720  10.573  0.00  0.00    +0.000 A 
ATOM      5  C   UNL     1      47.759  10.878  11.475  0.00  0.00    +0.000 A 
ATOM      6  C   UNL     1      47.025  10.026  12.305  0.00  0.00    +0.000 A 
ATOM      7  C   UNL     1      45.622  10.046  12.192  0.00  0.00    +0.000 A 
BRANCH   2  12
ATOM      8  C   UNL     1      39.251  10.816  11.494  0.00  0.00    +0.000 C 
ATOM      9  C   UNL     1      40.735  10.873  11.407  0.00  0.00    +0.000 A 
ATOM     10  C   UNL     1      41.483  11.898  11.948  0.00  0.00    +0.000 A 
ATOM     11  N   UNL     1      42.828  11.952  11.909  0.00  0.00    +0.000 NA
ATOM     12  C   UNL     1      43.452  10.928  11.299  0.00  0.00    +0.000 A 
ATOM     13  N   UNL     1      42.813   9.886  10.722  0.00  0.00    +0.000 NA
ATOM     14  C   UNL     1      41.469   9.885  10.791  0.00  0.00    +0.000 A 
ENDBRANCH   2  12
ENDBRANCH   1   6
BRANCH   1  15
ATOM     15  C   UNL     1      48.599   8.049  12.662  0.00  0.00    +0.000 C 
BRANCH  15  16
ATOM     16  O   UNL     1      47.891   7.327  11.654  0.00  0.00    +0.000 OA
BRANCH  16  17
ATOM     17  C   UNL     1      46.943   6.458  12.146  0.00  0.00    +0.000 A 
ATOM     18  C   UNL     1      47.106   5.621  13.258  0.00  0.00    +0.000 A 
ATOM     19  C   UNL     1      46.064   4.798  13.683  0.00  0.00    +0.000 A 
ATOM     20  C   UNL     1      44.853   4.811  13.002  0.00  0.00    +0.000 A 
ATOM     21  F   UNL     1      43.875   4.011  13.456  0.00  0.00    +0.000 F 
ATOM     22  C   UNL     1      44.666   5.633  11.891  0.00  0.00    +0.000 A 
ATOM     23  C   UNL     1      45.725   6.450  11.459  0.00  0.00    +0.000 A 
BRANCH  22  24
ATOM     24  C   UNL     1      43.378   5.694  11.157  0.00  0.00    +0.000 C 
ATOM     25  N   UNL     1      42.452   6.617  11.553  0.00  0.00    +0.000 N 
ATOM     26  O   UNL     1      43.144   4.951  10.211  0.00  0.00    +0.000 OA
ATOM     27  H   UNL     1      42.602   7.254  12.327  0.00  0.00    +0.000 HD
ATOM     28  H   UNL     1      41.584   6.673  11.037  0.00  0.00    +0.000 HD
ENDBRANCH  22  24
ENDBRANCH  16  17
ENDBRANCH  15  16
ENDBRANCH   1  15
TORSDOF 6
ENDMDL
MODEL 9
REMARK VINA RESULT:    -6.820      4.991      7.779
REMARK INTER + INTRA:          -9.995
REMARK INTER:                  -8.473
REMARK INTRA:                  -1.522
REMARK UNBOUND:                -0.783
REMARK  Name = 
REMARK  7 active torsions:
REMARK  status: ('A' for Active; 'I' for Inactive)
REMARK    1  A    between atoms: C_1  and  C_2
REMARK    2  A    between atoms: C_5  and  C_6
REMARK    3  A    between atoms: C_10  and  C_11
REMARK    4  A    between atoms: C_11  and  C_12
REMARK    5  A    between atoms: C_12  and  O_13
REMARK    6  A    between atoms: O_13  and  C_14
REMARK    7  A    between atoms: C_19  and  C_20
REMARK                            x       y       z     vdW  Elec       q    Type
REMARK                         _______ _______ _______ _____ _____    ______ ____
ROOT
ATOM      1  C   UNL     1      50.472   8.227  15.709  0.00  0.00    +0.000 C 
ENDROOT
BRANCH   1   6
ATOM      2  C   UNL     1      48.107   7.175  12.826  0.00  0.00    +0.000 A 
ATOM      3  C   UNL     1      48.900   7.544  11.730  0.00  0.00    +0.000 A 
ATOM      4  C   UNL     1      50.171   8.100  11.910  0.00  0.00    +0.000 A 
ATOM      5  C   UNL     1      50.677   8.310  13.195  0.00  0.00    +0.000 A 
ATOM      6  C   UNL     1      49.925   7.954  14.318  0.00  0.00    +0.000 A 
ATOM      7  C   UNL     1      48.658   7.377  14.105  0.00  0.00    +0.000 A 
BRANCH   2  12
ATOM      8  C   UNL     1      42.770   5.251  12.496  0.00  0.00    +0.000 C 
ATOM      9  C   UNL     1      44.177   5.731  12.536  0.00  0.00    +0.000 A 
ATOM     10  C   UNL     1      44.628   6.807  11.801  0.00  0.00    +0.000 A 
ATOM     11  N   UNL     1      45.890   7.278  11.849  0.00  0.00    +0.000 NA
ATOM     12  C   UNL     1      46.738   6.637  12.673  0.00  0.00    +0.000 A 
ATOM     13  N   UNL     1      46.402   5.563  13.422  0.00  0.00    +0.000 NA
ATOM     14  C   UNL     1      45.129   5.137  13.334  0.00  0.00    +0.000 A 
ENDBRANCH   2  12
ENDBRANCH   1   6
BRANCH   1  15
ATOM     15  C   UNL     1      49.430   8.065  16.820  0.00  0.00    +0.000 C 
BRANCH  15  16
ATOM     16  O   UNL     1      49.933   7.348  17.946  0.00  0.00    +0.000 OA
BRANCH  16  17
ATOM     17  C   UNL     1      49.994   5.984  17.764  0.00  0.00    +0.000 A 
ATOM     18  C   UNL     1      51.103   5.175  18.046  0.00  0.00    +0.000 A 
ATOM     19  C   UNL     1      51.042   3.797  17.845  0.00  0.00    +0.000 A 
ATOM     20  C   UNL     1      49.872   3.220  17.368  0.00  0.00    +0.000 A 
ATOM     21  F   UNL     1      49.857   1.888  17.204  0.00  0.00    +0.000 F 
ATOM     22  C   UNL     1      48.755   4.004  17.078  0.00  0.00    +0.000 A 
ATOM     23  C   UNL     1      48.827   5.394  17.268  0.00  0.00    +0.000 A 
BRANCH  22  24
ATOM     24  C   UNL     1      47.480   3.420  16.593  0.00  0.00    +0.000 C 
ATOM     25  N   UNL     1      47.325   3.233  15.249  0.00  0.00    +0.000 N 
ATOM     26  O   UNL     1      46.587   3.099  17.369  0.00  0.00    +0.000 OA
ATOM     27  H   UNL     1      48.035   3.481  14.571  0.00  0.00    +0.000 HD
ATOM     28  H   UNL     1      46.465   2.814  14.923  0.00  0.00    +0.000 HD
ENDBRANCH  22  24
ENDBRANCH  16  17
ENDBRANCH  15  16
ENDBRANCH   1  15
TORSDOF 6
ENDMDL
