MODEL 1
REMARK VINA RESULT:    -8.826      0.000      0.000
REMARK INTER + INTRA:         -11.511
REMARK INTER:                 -10.890
REMARK INTRA:                  -0.621
REMARK UNBOUND:                -0.621
REMARK  Name = 
REMARK  4 active torsions:
REMARK  status: ('A' for Active; 'I' for Inactive)
REMARK    1  A    between atoms: C_2  and  C_5
REMARK    2  A    between atoms: N_9  and  C_10
REMARK    3  A    between atoms: C_10  and  C_11
REMARK    4  A    between atoms: C_15  and  C_16
REMARK                            x       y       z     vdW  Elec       q    Type
REMARK                         _______ _______ _______ _____ _____    ______ ____
ROOT
ATOM      1  C   UNL     1      43.535   4.541  11.032  0.00  0.00    +0.000 C 
ENDROOT
BRANCH   1   6
ATOM      2  C   UNL     1      46.233   2.101   7.764  0.00  0.00    +0.000 A 
ATOM      3  C   UNL     1      45.374   1.748   8.773  0.00  0.00    +0.000 A 
ATOM      4  N   UNL     1      44.562   2.618   9.403  0.00  0.00    +0.000 NA
ATOM      5  C   UNL     1      44.601   3.900   9.009  0.00  0.00    +0.000 A 
ATOM      6  N   UNL     1      43.790   4.837   9.633  0.00  0.00    +0.000 N 
ATOM      7  N   UNL     1      45.404   4.344   8.034  0.00  0.00    +0.000 NA
ATOM      8  C   UNL     1      46.200   3.433   7.425  0.00  0.00    +0.000 A 
ATOM      9  H   UNL     1      44.179   5.751   9.438  0.00  0.00    +0.000 HD
BRANCH   2  11
ATOM     10  F   UNL     1      46.887   0.975   5.774  0.00  0.00    +0.000 F 
ATOM     11  C   UNL     1      47.134   1.123   7.106  0.00  0.00    +0.000 C 
ATOM     12  F   UNL     1      47.031  -0.125   7.640  0.00  0.00    +0.000 F 
ATOM     13  F   UNL     1      48.448   1.465   7.203  0.00  0.00    +0.000 F 
ENDBRANCH   2  11
ENDBRANCH   1   6
BRANCH   1  14
ATOM     14  C   UNL     1      44.733   4.894  11.871  0.00  0.00    +0.000 A 
ATOM     15  C   UNL     1      45.123   4.105  12.945  0.00  0.00    +0.000 A 
ATOM     16  N   UNL     1      46.165   4.395  13.751  0.00  0.00    +0.000 NA
ATOM     17  C   UNL     1      46.859   5.525  13.466  0.00  0.00    +0.000 A 
ATOM     18  C   UNL     1      46.571   6.412  12.427  0.00  0.00    +0.000 A 
ATOM     19  C   UNL     1      45.467   6.065  11.633  0.00  0.00    +0.000 A 
BRANCH  18  20
ATOM     20  C   UNL     1      47.385   7.621  12.168  0.00  0.00    +0.000 A 
ATOM     21  C   UNL     1      46.853   8.917  12.317  0.00  0.00    +0.000 A 
ATOM     22  C   UNL     1      47.636  10.058  12.117  0.00  0.00    +0.000 A 
ATOM     23  C   UNL     1      48.970   9.931  11.745  0.00  0.00    +0.000 A 
ATOM     24  C   UNL     1      49.514   8.662  11.575  0.00  0.00    +0.000 A 
ATOM     25 CL   UNL     1      51.163   8.497  11.112  0.00  0.00    +0.000 Cl
ATOM     26  C   UNL     1      48.736   7.522  11.784  0.00  0.00    +0.000 A 
ENDBRANCH  18  20
ENDBRANCH   1  14
TORSDOF 4
ENDMDL
MODEL 2
REMARK VINA RESULT:    -8.168      2.587      3.919
REMARK INTER + INTRA:         -10.700
REMARK INTER:                 -10.108
REMARK INTRA:                  -0.592
REMARK UNBOUND:                -0.621
REMARK  Name = 
REMARK  4 active torsions:
REMARK  status: ('A' for Active; 'I' for Inactive)
REMARK    1  A    between atoms: C_2  and  C_5
REMARK    2  A    between atoms: N_9  and  C_10
REMARK    3  A    between atoms: C_10  and  C_11
REMARK    4  A    between atoms: C_15  and  C_16
REMARK                            x       y       z     vdW  Elec       q    Type
REMARK                         _______ _______ _______ _____ _____    ______ ____
ROOT
ATOM      1  C   UNL     1      44.407   4.728  11.466  0.00  0.00    +0.000 C 
ENDROOT
BRANCH   1   6
ATOM      2  C   UNL     1      46.382   2.313   7.700  0.00  0.00    +0.000 A 
ATOM      3  C   UNL     1      45.687   1.956   8.828  0.00  0.00    +0.000 A 
ATOM      4  N   UNL     1      45.041   2.834   9.618  0.00  0.00    +0.000 NA
ATOM      5  C   UNL     1      45.081   4.129   9.269  0.00  0.00    +0.000 A 
ATOM      6  N   UNL     1      44.437   5.074  10.056  0.00  0.00    +0.000 N 
ATOM      7  N   UNL     1      45.730   4.578   8.188  0.00  0.00    +0.000 NA
ATOM      8  C   UNL     1      46.363   3.659   7.420  0.00  0.00    +0.000 A 
ATOM      9  H   UNL     1      44.836   5.977   9.830  0.00  0.00    +0.000 HD
BRANCH   2  11
ATOM     10  F   UNL     1      46.895   0.035   7.252  0.00  0.00    +0.000 F 
ATOM     11  C   UNL     1      47.106   1.325   6.864  0.00  0.00    +0.000 C 
ATOM     12  F   UNL     1      48.455   1.501   6.896  0.00  0.00    +0.000 F 
ATOM     13  F   UNL     1      46.752   1.380   5.552  0.00  0.00    +0.000 F 
ENDBRANCH   2  11
ENDBRANCH   1   6
BRANCH   1  14
ATOM     14  C   UNL     1      45.576   5.345  12.184  0.00  0.00    +0.000 A 
ATOM     15  C   UNL     1      46.274   6.417  11.644  0.00  0.00    +0.000 A 
ATOM     16  N   UNL     1      47.351   6.983  12.227  0.00  0.00    +0.000 NA
ATOM     17  C   UNL     1      47.747   6.458  13.414  0.00  0.00    +0.000 A 
ATOM     18  C   UNL     1      47.145   5.377  14.063  0.00  0.00    +0.000 A 
ATOM     19  C   UNL     1      46.040   4.822  13.401  0.00  0.00    +0.000 A 
BRANCH  18  20
ATOM     20  C   UNL     1      47.625   4.869  15.367  0.00  0.00    +0.000 A 
ATOM     21  C   UNL     1      47.342   3.557  15.799  0.00  0.00    +0.000 A 
ATOM     22  C   UNL     1      47.834   3.063  17.011  0.00  0.00    +0.000 A 
ATOM     23  C   UNL     1      48.612   3.874  17.830  0.00  0.00    +0.000 A 
ATOM     24  C   UNL     1      48.891   5.177  17.434  0.00  0.00    +0.000 A 
ATOM     25 CL   UNL     1      49.849   6.189  18.443  0.00  0.00    +0.000 Cl
ATOM     26  C   UNL     1      48.408   5.670  16.219  0.00  0.00    +0.000 A 
ENDBRANCH  18  20
ENDBRANCH   1  14
TORSDOF 4
ENDMDL
MODEL 3
REMARK VINA RESULT:    -7.910      1.543      2.159
REMARK INTER + INTRA:         -10.380
REMARK INTER:                  -9.738
REMARK INTRA:                  -0.643
REMARK UNBOUND:                -0.621
REMARK  Name = 
REMARK  4 active torsions:
REMARK  status: ('A' for Active; 'I' for Inactive)
REMARK    1  A    between atoms: C_2  and  C_5
REMARK    2  A    between atoms: N_9  and  C_10
REMARK    3  A    between atoms: C_10  and  C_11
REMARK    4  A    between atoms: C_15  and  C_16
REMARK                            x       y       z     vdW  Elec       q    Type
REMARK                         _______ _______ _______ _____ _____    ______ ____
ROOT
ATOM      1  C   UNL     1      43.942   3.340  10.064  0.00  0.00    +0.000 C 
ENDROOT
BRANCH   1   6
ATOM      2  C   UNL     1      46.727   1.951   6.292  0.00  0.00    +0.000 A 
ATOM      3  C   UNL     1      46.149   3.129   6.692  0.00  0.00    +0.000 A 
ATOM      4  N   UNL     1      45.602   3.318   7.908  0.00  0.00    +0.000 NA
ATOM      5  C   UNL     1      45.635   2.291   8.770  0.00  0.00    +0.000 A 
ATOM      6  N   UNL     1      45.077   2.434  10.033  0.00  0.00    +0.000 N 
ATOM      7  N   UNL     1      46.177   1.103   8.476  0.00  0.00    +0.000 NA
ATOM      8  C   UNL     1      46.719   0.958   7.243  0.00  0.00    +0.000 A 
ATOM      9  H   UNL     1      44.911   1.504  10.397  0.00  0.00    +0.000 HD
BRANCH   2  11
ATOM     10  F   UNL     1      47.841   0.528   4.746  0.00  0.00    +0.000 F 
ATOM     11  C   UNL     1      47.299   1.765   4.936  0.00  0.00    +0.000 C 
ATOM     12  F   UNL     1      48.297   2.649   4.663  0.00  0.00    +0.000 F 
ATOM     13  F   UNL     1      46.378   1.921   3.947  0.00  0.00    +0.000 F 
ENDBRANCH   2  11
ENDBRANCH   1   6
BRANCH   1  14
ATOM     14  C   UNL     1      44.121   4.372  11.144  0.00  0.00    +0.000 A 
ATOM     15  C   UNL     1      43.291   4.408  12.256  0.00  0.00    +0.000 A 
ATOM     16  N   UNL     1      43.384   5.332  13.235  0.00  0.00    +0.000 NA
ATOM     17  C   UNL     1      44.362   6.264  13.101  0.00  0.00    +0.000 A 
ATOM     18  C   UNL     1      45.257   6.351  12.032  0.00  0.00    +0.000 A 
ATOM     19  C   UNL     1      45.100   5.371  11.039  0.00  0.00    +0.000 A 
BRANCH  18  20
ATOM     20  C   UNL     1      46.309   7.388  11.962  0.00  0.00    +0.000 A 
ATOM     21  C   UNL     1      46.019   8.752  12.168  0.00  0.00    +0.000 A 
ATOM     22  C   UNL     1      47.021   9.726  12.147  0.00  0.00    +0.000 A 
ATOM     23  C   UNL     1      48.341   9.362  11.905  0.00  0.00    +0.000 A 
ATOM     24  C   UNL     1      48.652   8.025  11.682  0.00  0.00    +0.000 A 
ATOM     25 CL   UNL     1      50.282   7.567  11.379  0.00  0.00    +0.000 Cl
ATOM     26  C   UNL     1      47.652   7.049  11.712  0.00  0.00    +0.000 A 
ENDBRANCH  18  20
ENDBRANCH   1  14
TORSDOF 4
ENDMDL
MODEL 4
REMARK VINA RESULT:    -7.772      5.565      8.139
REMARK INTER + INTRA:         -10.210
REMARK INTER:                  -9.721
REMARK INTRA:                  -0.490
REMARK UNBOUND:                -0.621
REMARK  Name = 
REMARK  4 active torsions:
REMARK  status: ('A' for Active; 'I' for Inactive)
REMARK    1  A    between atoms: C_2  and  C_5
REMARK    2  A    between atoms: N_9  and  C_10
REMARK    3  A    between atoms: C_10  and  C_11
REMARK    4  A    between atoms: C_15  and  C_16
REMARK                            x       y       z     vdW  Elec       q    Type
REMARK                         _______ _______ _______ _____ _____    ______ ____
ROOT
ATOM      1  C   UNL     1      45.265   4.638  13.660  0.00  0.00    +0.000 C 
ENDROOT
BRANCH   1   6
ATOM      2  C   UNL     1      48.564   4.466  17.265  0.00  0.00    +0.000 A 
ATOM      3  C   UNL     1      47.590   3.622  16.797  0.00  0.00    +0.000 A 
ATOM      4  N   UNL     1      46.945   3.798  15.629  0.00  0.00    +0.000 NA
ATOM      5  C   UNL     1      47.287   4.861  14.886  0.00  0.00    +0.000 A 
ATOM      6  N   UNL     1      46.645   5.091  13.676  0.00  0.00    +0.000 N 
ATOM      7  N   UNL     1      48.225   5.743  15.253  0.00  0.00    +0.000 NA
ATOM      8  C   UNL     1      48.851   5.524  16.434  0.00  0.00    +0.000 A 
ATOM      9  H   UNL     1      46.795   6.063  13.436  0.00  0.00    +0.000 HD
BRANCH   2  11
ATOM     10  F   UNL     1      49.508   5.423  19.226  0.00  0.00    +0.000 F 
ATOM     11  C   UNL     1      49.239   4.259  18.570  0.00  0.00    +0.000 C 
ATOM     12  F   UNL     1      50.436   3.623  18.445  0.00  0.00    +0.000 F 
ATOM     13  F   UNL     1      48.504   3.508  19.433  0.00  0.00    +0.000 F 
ENDBRANCH   2  11
ENDBRANCH   1   6
BRANCH   1  14
ATOM     14  C   UNL     1      44.727   4.643  12.255  0.00  0.00    +0.000 A 
ATOM     15  C   UNL     1      43.524   5.262  11.942  0.00  0.00    +0.000 A 
ATOM     16  N   UNL     1      42.978   5.266  10.708  0.00  0.00    +0.000 NA
ATOM     17  C   UNL     1      43.672   4.625   9.734  0.00  0.00    +0.000 A 
ATOM     18  C   UNL     1      44.885   3.954   9.911  0.00  0.00    +0.000 A 
ATOM     19  C   UNL     1      45.394   3.974  11.218  0.00  0.00    +0.000 A 
BRANCH  18  20
ATOM     20  C   UNL     1      45.593   3.290   8.794  0.00  0.00    +0.000 A 
ATOM     21  C   UNL     1      46.146   4.026   7.727  0.00  0.00    +0.000 A 
ATOM     22  C   UNL     1      46.854   3.402   6.696  0.00  0.00    +0.000 A 
ATOM     23  C   UNL     1      47.015   2.020   6.698  0.00  0.00    +0.000 A 
ATOM     24  C   UNL     1      46.464   1.270   7.731  0.00  0.00    +0.000 A 
ATOM     25 CL   UNL     1      46.656  -0.440   7.740  0.00  0.00    +0.000 Cl
ATOM     26  C   UNL     1      45.765   1.893   8.767  0.00  0.00    +0.000 A 
ENDBRANCH  18  20
ENDBRANCH   1  14
TORSDOF 4
ENDMDL
MODEL 5
REMARK VINA RESULT:    -7.480      2.769      3.778
REMARK INTER + INTRA:          -9.850
REMARK INTER:                  -9.412
REMARK INTRA:                  -0.438
REMARK UNBOUND:                -0.621
REMARK  Name = 
REMARK  4 active torsions:
REMARK  status: ('A' for Active; 'I' for Inactive)
REMARK    1  A    between atoms: C_2  and  C_5
REMARK    2  A    between atoms: N_9  and  C_10
REMARK    3  A    between atoms: C_10  and  C_11
REMARK    4  A    between atoms: C_15  and  C_16
REMARK                            x       y       z     vdW  Elec       q    Type
REMARK                         _______ _______ _______ _____ _____    ______ ____
ROOT
ATOM      1  C   UNL     1      43.949   3.840  10.862  0.00  0.00    +0.000 C 
ENDROOT
BRANCH   1   6
ATOM      2  C   UNL     1      46.557   2.516   6.943  0.00  0.00    +0.000 A 
ATOM      3  C   UNL     1      46.250   3.707   7.549  0.00  0.00    +0.000 A 
ATOM      4  N   UNL     1      45.689   3.803   8.770  0.00  0.00    +0.000 NA
ATOM      5  C   UNL     1      45.424   2.661   9.422  0.00  0.00    +0.000 A 
ATOM      6  N   UNL     1      44.838   2.706  10.679  0.00  0.00    +0.000 N 
ATOM      7  N   UNL     1      45.686   1.449   8.917  0.00  0.00    +0.000 NA
ATOM      8  C   UNL     1      46.255   1.401   7.688  0.00  0.00    +0.000 A 
ATOM      9  H   UNL     1      44.434   1.795  10.857  0.00  0.00    +0.000 HD
BRANCH   2  11
ATOM     10  F   UNL     1      48.509   2.310   5.600  0.00  0.00    +0.000 F 
ATOM     11  C   UNL     1      47.152   2.443   5.586  0.00  0.00    +0.000 C 
ATOM     12  F   UNL     1      46.900   3.556   4.844  0.00  0.00    +0.000 F 
ATOM     13  F   UNL     1      46.684   1.393   4.858  0.00  0.00    +0.000 F 
ENDBRANCH   2  11
ENDBRANCH   1   6
BRANCH   1  14
ATOM     14  C   UNL     1      44.671   4.968  11.548  0.00  0.00    +0.000 A 
ATOM     15  C   UNL     1      44.544   6.280  11.113  0.00  0.00    +0.000 A 
ATOM     16  N   UNL     1      45.195   7.323  11.668  0.00  0.00    +0.000 NA
ATOM     17  C   UNL     1      46.009   7.044  12.717  0.00  0.00    +0.000 A 
ATOM     18  C   UNL     1      46.237   5.773  13.250  0.00  0.00    +0.000 A 
ATOM     19  C   UNL     1      45.542   4.728  12.621  0.00  0.00    +0.000 A 
BRANCH  18  20
ATOM     20  C   UNL     1      47.128   5.547  14.409  0.00  0.00    +0.000 A 
ATOM     21  C   UNL     1      48.169   6.443  14.727  0.00  0.00    +0.000 A 
ATOM     22  C   UNL     1      48.982   6.253  15.848  0.00  0.00    +0.000 A 
ATOM     23  C   UNL     1      48.784   5.152  16.674  0.00  0.00    +0.000 A 
ATOM     24  C   UNL     1      47.774   4.244  16.372  0.00  0.00    +0.000 A 
ATOM     25 CL   UNL     1      47.525   2.878  17.387  0.00  0.00    +0.000 Cl
ATOM     26  C   UNL     1      46.955   4.438  15.258  0.00  0.00    +0.000 A 
ENDBRANCH  18  20
ENDBRANCH   1  14
TORSDOF 4
ENDMDL
MODEL 6
REMARK VINA RESULT:    -7.340      4.499      7.292
REMARK INTER + INTRA:          -9.678
REMARK INTER:                  -9.091
REMARK INTRA:                  -0.587
REMARK UNBOUND:                -0.621
REMARK  Name = 
REMARK  4 active torsions:
REMARK  status: ('A' for Active; 'I' for Inactive)
REMARK    1  A    between atoms: C_2  and  C_5
REMARK    2  A    between atoms: N_9  and  C_10
REMARK    3  A    between atoms: C_10  and  C_11
REMARK    4  A    between atoms: C_15  and  C_16
REMARK                            x       y       z     vdW  Elec       q    Type
REMARK                         _______ _______ _______ _____ _____    ______ ____
ROOT
ATOM      1  C   UNL     1      44.882   5.821  13.155  0.00  0.00    +0.000 C 
ENDROOT
BRANCH   1   6
ATOM      2  C   UNL     1      48.017   9.356  11.892  0.00  0.00    +0.000 A 
ATOM      3  C   UNL     1      48.029   7.985  11.852  0.00  0.00    +0.000 A 
ATOM      4  N   UNL     1      46.939   7.221  12.052  0.00  0.00    +0.000 NA
ATOM      5  C   UNL     1      45.779   7.847  12.299  0.00  0.00    +0.000 A 
ATOM      6  N   UNL     1      44.628   7.103  12.520  0.00  0.00    +0.000 N 
ATOM      7  N   UNL     1      45.662   9.179  12.358  0.00  0.00    +0.000 NA
ATOM      8  C   UNL     1      46.783   9.909  12.146  0.00  0.00    +0.000 A 
ATOM      9  H   UNL     1      43.965   7.706  12.991  0.00  0.00    +0.000 HD
BRANCH   2  11
ATOM     10  F   UNL     1      49.246  10.853  10.513  0.00  0.00    +0.000 F 
ATOM     11  C   UNL     1      49.240  10.171  11.693  0.00  0.00    +0.000 C 
ATOM     12  F   UNL     1      50.374   9.418  11.687  0.00  0.00    +0.000 F 
ATOM     13  F   UNL     1      49.417  11.107  12.664  0.00  0.00    +0.000 F 
ENDBRANCH   2  11
ENDBRANCH   1   6
BRANCH   1  14
ATOM     14  C   UNL     1      44.460   4.694  12.251  0.00  0.00    +0.000 A 
ATOM     15  C   UNL     1      43.402   3.859  12.581  0.00  0.00    +0.000 A 
ATOM     16  N   UNL     1      43.006   2.813  11.827  0.00  0.00    +0.000 NA
ATOM     17  C   UNL     1      43.696   2.594  10.679  0.00  0.00    +0.000 A 
ATOM     18  C   UNL     1      44.785   3.347  10.233  0.00  0.00    +0.000 A 
ATOM     19  C   UNL     1      45.158   4.412  11.067  0.00  0.00    +0.000 A 
BRANCH  18  20
ATOM     20  C   UNL     1      45.480   3.057   8.959  0.00  0.00    +0.000 A 
ATOM     21  C   UNL     1      45.799   4.078   8.041  0.00  0.00    +0.000 A 
ATOM     22  C   UNL     1      46.496   3.809   6.860  0.00  0.00    +0.000 A 
ATOM     23  C   UNL     1      46.881   2.507   6.558  0.00  0.00    +0.000 A 
ATOM     24  C   UNL     1      46.563   1.480   7.440  0.00  0.00    +0.000 A 
ATOM     25 CL   UNL     1      47.032  -0.134   7.073  0.00  0.00    +0.000 Cl
ATOM     26  C   UNL     1      45.875   1.748   8.625  0.00  0.00    +0.000 A 
ENDBRANCH  18  20
ENDBRANCH   1  14
TORSDOF 4
ENDMDL
MODEL 7
REMARK VINA RESULT:    -6.850      5.156      6.503
REMARK INTER + INTRA:          -9.073
REMARK INTER:                  -8.555
REMARK INTRA:                  -0.518
REMARK UNBOUND:                -0.621
REMARK  Name = 
REMARK  4 active torsions:
REMARK  status: ('A' for Active; 'I' for Inactive)
REMARK    1  A    between atoms: C_2  and  C_5
REMARK    2  A    between atoms: N_9  and  C_10
REMARK    3  A    between atoms: C_10  and  C_11
REMARK    4  A    between atoms: C_15  and  C_16
REMARK                            x       y       z     vdW  Elec       q    Type
REMARK                         _______ _______ _______ _____ _____    ______ ____
ROOT
ATOM      1  C   UNL     1      47.377   3.726  15.392  0.00  0.00    +0.000 C 
ENDROOT
BRANCH   1   6
ATOM      2  C   UNL     1      45.054   4.385  11.139  0.00  0.00    +0.000 A 
ATOM      3  C   UNL     1      45.155   3.358  12.043  0.00  0.00    +0.000 A 
ATOM      4  N   UNL     1      45.684   3.495  13.274  0.00  0.00    +0.000 NA
ATOM      5  C   UNL     1      46.129   4.710  13.627  0.00  0.00    +0.000 A 
ATOM      6  N   UNL     1      46.689   4.900  14.883  0.00  0.00    +0.000 N 
ATOM      7  N   UNL     1      46.074   5.775  12.819  0.00  0.00    +0.000 NA
ATOM      8  C   UNL     1      45.531   5.593  11.591  0.00  0.00    +0.000 A 
ATOM      9  H   UNL     1      47.237   5.751  14.843  0.00  0.00    +0.000 HD
BRANCH   2  11
ATOM     10  F   UNL     1      45.352   4.556   8.786  0.00  0.00    +0.000 F 
ATOM     11  C   UNL     1      44.490   4.197   9.780  0.00  0.00    +0.000 C 
ATOM     12  F   UNL     1      43.365   4.934   9.575  0.00  0.00    +0.000 F 
ATOM     13  F   UNL     1      44.146   2.906   9.524  0.00  0.00    +0.000 F 
ENDBRANCH   2  11
ENDBRANCH   1   6
BRANCH   1  14
ATOM     14  C   UNL     1      48.000   4.020  16.730  0.00  0.00    +0.000 A 
ATOM     15  C   UNL     1      48.931   3.162  17.300  0.00  0.00    +0.000 A 
ATOM     16  N   UNL     1      49.493   3.359  18.510  0.00  0.00    +0.000 NA
ATOM     17  C   UNL     1      49.112   4.474  19.184  0.00  0.00    +0.000 A 
ATOM     18  C   UNL     1      48.181   5.413  18.735  0.00  0.00    +0.000 A 
ATOM     19  C   UNL     1      47.621   5.146  17.476  0.00  0.00    +0.000 A 
BRANCH  18  20
ATOM     20  C   UNL     1      47.826   6.616  19.521  0.00  0.00    +0.000 A 
ATOM     21  C   UNL     1      47.610   6.553  20.912  0.00  0.00    +0.000 A 
ATOM     22  C   UNL     1      47.320   7.697  21.661  0.00  0.00    +0.000 A 
ATOM     23  C   UNL     1      47.224   8.935  21.034  0.00  0.00    +0.000 A 
ATOM     24  C   UNL     1      47.417   9.021  19.659  0.00  0.00    +0.000 A 
ATOM     25 CL   UNL     1      47.298  10.547  18.875  0.00  0.00    +0.000 Cl
ATOM     26  C   UNL     1      47.717   7.880  18.912  0.00  0.00    +0.000 A 
ENDBRANCH  18  20
ENDBRANCH   1  14
TORSDOF 4
ENDMDL
MODEL 8
REMARK VINA RESULT:    -6.610      5.684      7.214
REMARK INTER + INTRA:          -8.777
REMARK INTER:                  -8.311
REMARK INTRA:                  -0.466
REMARK UNBOUND:                -0.621
REMARK  Name = 
REMARK  4 active torsions:
REMARK  status: ('A' for Active; 'I' for Inactive)
REMARK    1  A    between atoms: C_2  and  C_5
REMARK    2  A    between atoms: N_9  and  C_10
REMARK    3  A    between atoms: C_10  and  C_11
REMARK    4  A    between atoms: C_15  and  C_16
REMARK                            x       y       z     vdW  Elec       q    Type
REMARK                         _______ _______ _______ _____ _____    ______ ____
ROOT
ATOM      1  C   UNL     1      47.277   3.854  15.637  0.00  0.00    +0.000 C 
ENDROOT
BRANCH   1   6
ATOM      2  C   UNL     1      45.118   4.571  11.308  0.00  0.00    +0.000 A 
ATOM      3  C   UNL     1      44.950   3.688  12.344  0.00  0.00    +0.000 A 
ATOM      4  N   UNL     1      45.529   3.832  13.551  0.00  0.00    +0.000 NA
ATOM      5  C   UNL     1      46.309   4.907  13.740  0.00  0.00    +0.000 A 
ATOM      6  N   UNL     1      46.935   5.096  14.965  0.00  0.00    +0.000 N 
ATOM      7  N   UNL     1      46.535   5.826  12.794  0.00  0.00    +0.000 NA
ATOM      8  C   UNL     1      45.928   5.643  11.597  0.00  0.00    +0.000 A 
ATOM      9  H   UNL     1      47.699   5.743  14.816  0.00  0.00    +0.000 HD
BRANCH   2  11
ATOM     10  F   UNL     1      44.231   3.062   9.698  0.00  0.00    +0.000 F 
ATOM     11  C   UNL     1      44.486   4.371   9.980  0.00  0.00    +0.000 C 
ATOM     12  F   UNL     1      45.263   4.822   8.958  0.00  0.00    +0.000 F 
ATOM     13  F   UNL     1      43.295   5.015   9.859  0.00  0.00    +0.000 F 
ENDBRANCH   2  11
ENDBRANCH   1   6
BRANCH   1  14
ATOM     14  C   UNL     1      48.073   4.132  16.883  0.00  0.00    +0.000 A 
ATOM     15  C   UNL     1      47.558   4.905  17.914  0.00  0.00    +0.000 A 
ATOM     16  N   UNL     1      48.241   5.215  19.036  0.00  0.00    +0.000 NA
ATOM     17  C   UNL     1      49.501   4.721  19.137  0.00  0.00    +0.000 A 
ATOM     18  C   UNL     1      50.145   3.942  18.173  0.00  0.00    +0.000 A 
ATOM     19  C   UNL     1      49.389   3.666  17.024  0.00  0.00    +0.000 A 
BRANCH  18  20
ATOM     20  C   UNL     1      51.519   3.425  18.361  0.00  0.00    +0.000 A 
ATOM     21  C   UNL     1      52.433   4.054  19.230  0.00  0.00    +0.000 A 
ATOM     22  C   UNL     1      53.716   3.539  19.442  0.00  0.00    +0.000 A 
ATOM     23  C   UNL     1      54.123   2.388  18.776  0.00  0.00    +0.000 A 
ATOM     24  C   UNL     1      53.245   1.759  17.900  0.00  0.00    +0.000 A 
ATOM     25 CL   UNL     1      53.742   0.336  17.070  0.00  0.00    +0.000 Cl
ATOM     26  C   UNL     1      51.960   2.267  17.695  0.00  0.00    +0.000 A 
ENDBRANCH  18  20
ENDBRANCH   1  14
TORSDOF 4
ENDMDL
MODEL 9
REMARK VINA RESULT:    -6.553      5.698      8.506
REMARK INTER + INTRA:          -8.706
REMARK INTER:                  -8.169
REMARK INTRA:                  -0.538
REMARK UNBOUND:                -0.621
REMARK  Name = 
REMARK  4 active torsions:
REMARK  status: ('A' for Active; 'I' for Inactive)
REMARK    1  A    between atoms: C_2  and  C_5
REMARK    2  A    between atoms: N_9  and  C_10
REMARK    3  A    between atoms: C_10  and  C_11
REMARK    4  A    between atoms: C_15  and  C_16
REMARK                            x       y       z     vdW  Elec       q    Type
REMARK                         _______ _______ _______ _____ _____    ______ ____
ROOT
ATOM      1  C   UNL     1      48.837   7.039  15.192  0.00  0.00    +0.000 C 
ENDROOT
BRANCH   1   6
ATOM      2  C   UNL     1      51.390   3.673  17.655  0.00  0.00    +0.000 A 
ATOM      3  C   UNL     1      51.596   4.981  17.299  0.00  0.00    +0.000 A 
ATOM      4  N   UNL     1      50.634   5.783  16.804  0.00  0.00    +0.000 NA
ATOM      5  C   UNL     1      49.406   5.262  16.661  0.00  0.00    +0.000 A 
ATOM      6  N   UNL     1      48.381   6.045  16.148  0.00  0.00    +0.000 N 
ATOM      7  N   UNL     1      49.103   3.998  16.981  0.00  0.00    +0.000 NA
ATOM      8  C   UNL     1      50.101   3.229  17.479  0.00  0.00    +0.000 A 
ATOM      9  H   UNL     1      47.656   5.418  15.823  0.00  0.00    +0.000 HD
BRANCH   2  11
ATOM     10  F   UNL     1      52.830   3.097  19.458  0.00  0.00    +0.000 F 
ATOM     11  C   UNL     1      52.478   2.807  18.173  0.00  0.00    +0.000 C 
ATOM     12  F   UNL     1      53.623   2.915  17.445  0.00  0.00    +0.000 F 
ATOM     13  F   UNL     1      52.152   1.487  18.167  0.00  0.00    +0.000 F 
ENDBRANCH   2  11
ENDBRANCH   1   6
BRANCH   1  14
ATOM     14  C   UNL     1      47.793   7.267  14.133  0.00  0.00    +0.000 A 
ATOM     15  C   UNL     1      47.448   8.547  13.720  0.00  0.00    +0.000 A 
ATOM     16  N   UNL     1      46.496   8.810  12.801  0.00  0.00    +0.000 NA
ATOM     17  C   UNL     1      45.859   7.740  12.261  0.00  0.00    +0.000 A 
ATOM     18  C   UNL     1      46.098   6.404  12.591  0.00  0.00    +0.000 A 
ATOM     19  C   UNL     1      47.089   6.196  13.562  0.00  0.00    +0.000 A 
BRANCH  18  20
ATOM     20  C   UNL     1      45.373   5.287  11.947  0.00  0.00    +0.000 A 
ATOM     21  C   UNL     1      44.646   4.344  12.701  0.00  0.00    +0.000 A 
ATOM     22  C   UNL     1      43.924   3.315  12.089  0.00  0.00    +0.000 A 
ATOM     23  C   UNL     1      43.923   3.194  10.703  0.00  0.00    +0.000 A 
ATOM     24  C   UNL     1      44.646   4.103   9.937  0.00  0.00    +0.000 A 
ATOM     25 CL   UNL     1      44.652   3.958   8.223  0.00  0.00    +0.000 Cl
ATOM     26  C   UNL     1      45.359   5.136  10.548  0.00  0.00    +0.000 A 
ENDBRANCH  18  20
ENDBRANCH   1  14
TORSDOF 4
ENDMDL
