MODEL 1
REMARK VINA RESULT:    -8.469      0.000      0.000
REMARK INTER + INTRA:         -12.990
REMARK INTER:                 -12.182
REMARK INTRA:                  -0.807
REMARK UNBOUND:                -0.807
REMARK  Name = 
REMARK  8 active torsions:
REMARK  status: ('A' for Active; 'I' for Inactive)
REMARK    1  A    between atoms: N_1  and  C_2
REMARK    2  A    between atoms: C_2  and  C_3
REMARK    3  A    between atoms: C_2  and  C_24
REMARK    4  A    between atoms: C_3  and  C_4
REMARK    5  A    between atoms: C_8  and  C_9
REMARK    6  A    between atoms: C_9  and  N_10
REMARK    7  A    between atoms: C_11  and  C_13
REMARK    8  A    between atoms: C_24  and  C_26
REMARK                            x       y       z     vdW  Elec       q    Type
REMARK                         _______ _______ _______ _____ _____    ______ ____
ROOT
ATOM      1  C   UNL     1      44.091   4.838  10.563  0.00  0.00    +0.000 A 
ATOM      2  C   UNL     1      43.255   4.312  11.557  0.00  0.00    +0.000 A 
ATOM      3  C   UNL     1      43.476   4.620  12.900  0.00  0.00    +0.000 A 
ATOM      4  C   UNL     1      44.547   5.434  13.265  0.00  0.00    +0.000 A 
ATOM      5  C   UNL     1      45.406   5.952  12.290  0.00  0.00    +0.000 A 
ATOM      6  C   UNL     1      45.139   5.690  10.940  0.00  0.00    +0.000 A 
ENDROOT
BRANCH   1   7
ATOM      7  C   UNL     1      43.926   4.425   9.116  0.00  0.00    +0.000 C 
BRANCH   7   8
ATOM      8  C   UNL     1      44.766   3.199   8.692  0.00  0.00    +0.000 C 
BRANCH   8   9
ATOM      9  N   UNL     1      45.233   2.386   9.837  0.00  0.00    +0.000 NA
ATOM     10  H   UNL     1      45.864   2.931  10.418  0.00  0.00    +0.000 HD
ATOM     11  H   UNL     1      45.799   1.622   9.449  0.00  0.00    +0.000 HD
ENDBRANCH   8   9
BRANCH   8  12
ATOM     12  C   UNL     1      45.989   3.608   7.843  0.00  0.00    +0.000 C 
ATOM     13  O   UNL     1      46.498   4.729   7.937  0.00  0.00    +0.000 OA
BRANCH  12  14
ATOM     14  C   UNL     1      46.570   2.654   6.847  0.00  0.00    +0.000 A 
ATOM     15  C   UNL     1      46.804   2.988   5.514  0.00  0.00    +0.000 A 
ATOM     16  C   UNL     1      47.304   2.007   4.672  0.00  0.00    +0.000 A 
ATOM     17  N   UNL     1      47.593   0.752   5.069  0.00  0.00    +0.000 NA
ATOM     18  C   UNL     1      47.372   0.453   6.366  0.00  0.00    +0.000 A 
ATOM     19  C   UNL     1      46.869   1.358   7.281  0.00  0.00    +0.000 A 
ENDBRANCH  12  14
ENDBRANCH   8  12
ENDBRANCH   7   8
ENDBRANCH   1   7
BRANCH   5  20
ATOM     20  C   UNL     1      46.622   6.749  12.681  0.00  0.00    +0.000 C 
BRANCH  20  21
ATOM     21  N   UNL     1      47.013   6.495  14.042  0.00  0.00    +0.000 N 
ATOM     22  C   UNL     1      48.337   6.494  14.396  0.00  0.00    +0.000 C 
ATOM     23  O   UNL     1      49.224   6.779  13.596  0.00  0.00    +0.000 OA
ATOM     24  H   UNL     1      46.331   6.036  14.639  0.00  0.00    +0.000 HD
BRANCH  22  25
ATOM     25  C   UNL     1      48.645   6.191  15.798  0.00  0.00    +0.000 A 
ATOM     26  C   UNL     1      49.293   7.142  16.576  0.00  0.00    +0.000 A 
ATOM     27  S   UNL     1      49.530   6.660  18.192  0.00  0.00    +0.000 S 
ATOM     28  C   UNL     1      48.821   5.141  17.899  0.00  0.00    +0.000 A 
ATOM     29  N   UNL     1      48.724   4.215  18.889  0.00  0.00    +0.000 NA
ATOM     30  C   UNL     1      48.195   3.096  18.522  0.00  0.00    +0.000 A 
ATOM     31  N   UNL     1      47.749   2.821  17.255  0.00  0.00    +0.000 N 
ATOM     32  C   UNL     1      47.801   3.736  16.232  0.00  0.00    +0.000 A 
ATOM     33  O   UNL     1      47.358   3.468  15.118  0.00  0.00    +0.000 OA
ATOM     34  C   UNL     1      48.397   5.009  16.588  0.00  0.00    +0.000 A 
ATOM     35  H   UNL     1      47.338   1.926  17.035  0.00  0.00    +0.000 HD
ENDBRANCH  22  25
ENDBRANCH  20  21
ENDBRANCH   5  20
TORSDOF 8
ENDMDL
MODEL 2
REMARK VINA RESULT:    -8.394      1.911      2.946
REMARK INTER + INTRA:         -12.882
REMARK INTER:                 -11.623
REMARK INTRA:                  -1.259
REMARK UNBOUND:                -0.807
REMARK  Name = 
REMARK  8 active torsions:
REMARK  status: ('A' for Active; 'I' for Inactive)
REMARK    1  A    between atoms: N_1  and  C_2
REMARK    2  A    between atoms: C_2  and  C_3
REMARK    3  A    between atoms: C_2  and  C_24
REMARK    4  A    between atoms: C_3  and  C_4
REMARK    5  A    between atoms: C_8  and  C_9
REMARK    6  A    between atoms: C_9  and  N_10
REMARK    7  A    between atoms: C_11  and  C_13
REMARK    8  A    between atoms: C_24  and  C_26
REMARK                            x       y       z     vdW  Elec       q    Type
REMARK                         _______ _______ _______ _____ _____    ______ ____
ROOT
ATOM      1  C   UNL     1      45.118   6.840  12.123  0.00  0.00    +0.000 A 
ATOM      2  C   UNL     1      44.348   7.786  11.433  0.00  0.00    +0.000 A 
ATOM      3  C   UNL     1      44.728   9.128  11.413  0.00  0.00    +0.000 A 
ATOM      4  C   UNL     1      45.866   9.544  12.102  0.00  0.00    +0.000 A 
ATOM      5  C   UNL     1      46.638   8.620  12.815  0.00  0.00    +0.000 A 
ATOM      6  C   UNL     1      46.285   7.264  12.776  0.00  0.00    +0.000 A 
ENDROOT
BRANCH   1   7
ATOM      7  C   UNL     1      44.658   5.404  12.240  0.00  0.00    +0.000 C 
BRANCH   7   8
ATOM      8  C   UNL     1      43.571   4.986  11.224  0.00  0.00    +0.000 C 
BRANCH   8   9
ATOM      9  N   UNL     1      42.196   5.097  11.761  0.00  0.00    +0.000 NA
ATOM     10  H   UNL     1      42.086   4.492  12.570  0.00  0.00    +0.000 HD
ATOM     11  H   UNL     1      41.564   4.724  11.042  0.00  0.00    +0.000 HD
ENDBRANCH   8   9
BRANCH   8  12
ATOM     12  C   UNL     1      43.787   3.545  10.712  0.00  0.00    +0.000 C 
ATOM     13  O   UNL     1      43.225   2.579  11.237  0.00  0.00    +0.000 OA
BRANCH  12  14
ATOM     14  C   UNL     1      44.727   3.281   9.577  0.00  0.00    +0.000 A 
ATOM     15  C   UNL     1      45.119   2.001   9.192  0.00  0.00    +0.000 A 
ATOM     16  C   UNL     1      46.029   1.881   8.153  0.00  0.00    +0.000 A 
ATOM     17  N   UNL     1      46.547   2.929   7.482  0.00  0.00    +0.000 NA
ATOM     18  C   UNL     1      46.143   4.159   7.862  0.00  0.00    +0.000 A 
ATOM     19  C   UNL     1      45.246   4.383   8.890  0.00  0.00    +0.000 A 
ENDBRANCH  12  14
ENDBRANCH   8  12
ENDBRANCH   7   8
ENDBRANCH   1   7
BRANCH   5  20
ATOM     20  C   UNL     1      47.811   9.073  13.642  0.00  0.00    +0.000 C 
BRANCH  20  21
ATOM     21  N   UNL     1      47.939   8.306  14.852  0.00  0.00    +0.000 N 
ATOM     22  C   UNL     1      48.845   7.278  14.932  0.00  0.00    +0.000 C 
ATOM     23  O   UNL     1      49.622   7.025  14.016  0.00  0.00    +0.000 OA
ATOM     24  H   UNL     1      47.164   8.346  15.507  0.00  0.00    +0.000 HD
BRANCH  22  25
ATOM     25  C   UNL     1      48.882   6.528  16.192  0.00  0.00    +0.000 A 
ATOM     26  C   UNL     1      49.559   7.058  17.282  0.00  0.00    +0.000 A 
ATOM     27  S   UNL     1      49.464   6.093  18.683  0.00  0.00    +0.000 S 
ATOM     28  C   UNL     1      48.558   4.906  17.869  0.00  0.00    +0.000 A 
ATOM     29  N   UNL     1      48.156   3.776  18.508  0.00  0.00    +0.000 NA
ATOM     30  C   UNL     1      47.504   2.946  17.765  0.00  0.00    +0.000 A 
ATOM     31  N   UNL     1      47.213   3.146  16.440  0.00  0.00    +0.000 N 
ATOM     32  C   UNL     1      47.574   4.285  15.762  0.00  0.00    +0.000 A 
ATOM     33  O   UNL     1      47.264   4.446  14.584  0.00  0.00    +0.000 OA
ATOM     34  C   UNL     1      48.319   5.248  16.548  0.00  0.00    +0.000 A 
ATOM     35  H   UNL     1      46.693   2.458  15.916  0.00  0.00    +0.000 HD
ENDBRANCH  22  25
ENDBRANCH  20  21
ENDBRANCH   5  20
TORSDOF 8
ENDMDL
MODEL 3
REMARK VINA RESULT:    -8.247      2.041      2.534
REMARK INTER + INTRA:         -12.671
REMARK INTER:                 -12.029
REMARK INTRA:                  -0.642
REMARK UNBOUND:                -0.807
REMARK  Name = 
REMARK  8 active torsions:
REMARK  status: ('A' for Active; 'I' for Inactive)
REMARK    1  A    between atoms: N_1  and  C_2
REMARK    2  A    between atoms: C_2  and  C_3
REMARK    3  A    between atoms: C_2  and  C_24
REMARK    4  A    between atoms: C_3  and  C_4
REMARK    5  A    between atoms: C_8  and  C_9
REMARK    6  A    between atoms: C_9  and  N_10
REMARK    7  A    between atoms: C_11  and  C_13
REMARK    8  A    between atoms: C_24  and  C_26
REMARK                            x       y       z     vdW  Elec       q    Type
REMARK                         _______ _______ _______ _____ _____    ______ ____
ROOT
ATOM      1  C   UNL     1      45.844   5.872  10.686  0.00  0.00    +0.000 A 
ATOM      2  C   UNL     1      45.512   7.216  10.899  0.00  0.00    +0.000 A 
ATOM      3  C   UNL     1      45.396   7.718  12.196  0.00  0.00    +0.000 A 
ATOM      4  C   UNL     1      45.584   6.877  13.292  0.00  0.00    +0.000 A 
ATOM      5  C   UNL     1      45.895   5.527  13.102  0.00  0.00    +0.000 A 
ATOM      6  C   UNL     1      46.073   5.046  11.797  0.00  0.00    +0.000 A 
ENDROOT
BRANCH   1   7
ATOM      7  C   UNL     1      45.867   5.293   9.289  0.00  0.00    +0.000 C 
BRANCH   7   8
ATOM      8  C   UNL     1      44.601   4.497   8.895  0.00  0.00    +0.000 C 
BRANCH   8   9
ATOM      9  N   UNL     1      43.476   4.686   9.837  0.00  0.00    +0.000 NA
ATOM     10  H   UNL     1      43.129   5.639   9.781  0.00  0.00    +0.000 HD
ATOM     11  H   UNL     1      43.859   4.581  10.784  0.00  0.00    +0.000 HD
ENDBRANCH   8   9
BRANCH   8  12
ATOM     12  C   UNL     1      44.892   2.986   8.766  0.00  0.00    +0.000 C 
ATOM     13  O   UNL     1      44.317   2.152   9.473  0.00  0.00    +0.000 OA
BRANCH  12  14
ATOM     14  C   UNL     1      45.918   2.495   7.794  0.00  0.00    +0.000 A 
ATOM     15  C   UNL     1      46.312   3.218   6.669  0.00  0.00    +0.000 A 
ATOM     16  C   UNL     1      47.241   2.643   5.815  0.00  0.00    +0.000 A 
ATOM     17  N   UNL     1      47.797   1.432   6.014  0.00  0.00    +0.000 NA
ATOM     18  C   UNL     1      47.412   0.755   7.116  0.00  0.00    +0.000 A 
ATOM     19  C   UNL     1      46.489   1.239   8.024  0.00  0.00    +0.000 A 
ENDBRANCH  12  14
ENDBRANCH   8  12
ENDBRANCH   7   8
ENDBRANCH   1   7
BRANCH   5  20
ATOM     20  C   UNL     1      46.003   4.589  14.275  0.00  0.00    +0.000 C 
BRANCH  20  21
ATOM     21  N   UNL     1      47.203   4.820  15.034  0.00  0.00    +0.000 N 
ATOM     22  C   UNL     1      47.385   4.211  16.249  0.00  0.00    +0.000 C 
ATOM     23  O   UNL     1      46.579   3.399  16.696  0.00  0.00    +0.000 OA
ATOM     24  H   UNL     1      47.746   5.645  14.798  0.00  0.00    +0.000 HD
BRANCH  22  25
ATOM     25  C   UNL     1      48.622   4.531  16.970  0.00  0.00    +0.000 A 
ATOM     26  C   UNL     1      48.786   5.798  17.514  0.00  0.00    +0.000 A 
ATOM     27  S   UNL     1      50.249   5.996  18.363  0.00  0.00    +0.000 S 
ATOM     28  C   UNL     1      50.741   4.410  17.990  0.00  0.00    +0.000 A 
ATOM     29  N   UNL     1      51.943   3.936  18.413  0.00  0.00    +0.000 NA
ATOM     30  C   UNL     1      52.203   2.729  18.034  0.00  0.00    +0.000 A 
ATOM     31  N   UNL     1      51.368   1.953  17.273  0.00  0.00    +0.000 N 
ATOM     32  C   UNL     1      50.133   2.380  16.848  0.00  0.00    +0.000 A 
ATOM     33  O   UNL     1      49.395   1.643  16.200  0.00  0.00    +0.000 OA
ATOM     34  C   UNL     1      49.794   3.734  17.239  0.00  0.00    +0.000 A 
ATOM     35  H   UNL     1      51.629   1.013  17.015  0.00  0.00    +0.000 HD
ENDBRANCH  22  25
ENDBRANCH  20  21
ENDBRANCH   5  20
TORSDOF 8
ENDMDL
MODEL 4
REMARK VINA RESULT:    -7.977      3.883      8.451
REMARK INTER + INTRA:         -12.282
REMARK INTER:                 -11.344
REMARK INTRA:                  -0.938
REMARK UNBOUND:                -0.807
REMARK  Name = 
REMARK  8 active torsions:
REMARK  status: ('A' for Active; 'I' for Inactive)
REMARK    1  A    between atoms: N_1  and  C_2
REMARK    2  A    between atoms: C_2  and  C_3
REMARK    3  A    between atoms: C_2  and  C_24
REMARK    4  A    between atoms: C_3  and  C_4
REMARK    5  A    between atoms: C_8  and  C_9
REMARK    6  A    between atoms: C_9  and  N_10
REMARK    7  A    between atoms: C_11  and  C_13
REMARK    8  A    between atoms: C_24  and  C_26
REMARK                            x       y       z     vdW  Elec       q    Type
REMARK                         _______ _______ _______ _____ _____    ______ ____
ROOT
ATOM      1  C   UNL     1      48.756   5.692  18.453  0.00  0.00    +0.000 A 
ATOM      2  C   UNL     1      48.977   6.538  19.548  0.00  0.00    +0.000 A 
ATOM      3  C   UNL     1      49.114   7.914  19.361  0.00  0.00    +0.000 A 
ATOM      4  C   UNL     1      49.058   8.456  18.077  0.00  0.00    +0.000 A 
ATOM      5  C   UNL     1      48.859   7.627  16.968  0.00  0.00    +0.000 A 
ATOM      6  C   UNL     1      48.658   6.255  17.171  0.00  0.00    +0.000 A 
ENDROOT
BRANCH   1   7
ATOM      7  C   UNL     1      48.713   4.190  18.632  0.00  0.00    +0.000 C 
BRANCH   7   8
ATOM      8  C   UNL     1      48.184   3.406  17.409  0.00  0.00    +0.000 C 
BRANCH   8   9
ATOM      9  N   UNL     1      46.962   2.624  17.700  0.00  0.00    +0.000 NA
ATOM     10  H   UNL     1      46.157   3.241  17.756  0.00  0.00    +0.000 HD
ATOM     11  H   UNL     1      47.079   2.228  18.641  0.00  0.00    +0.000 HD
ENDBRANCH   8   9
BRANCH   8  12
ATOM     12  C   UNL     1      49.255   2.455  16.831  0.00  0.00    +0.000 C 
ATOM     13  O   UNL     1      48.976   1.603  15.982  0.00  0.00    +0.000 OA
BRANCH  12  14
ATOM     14  C   UNL     1      50.667   2.523  17.323  0.00  0.00    +0.000 A 
ATOM     15  C   UNL     1      51.347   3.721  17.533  0.00  0.00    +0.000 A 
ATOM     16  C   UNL     1      52.668   3.659  17.949  0.00  0.00    +0.000 A 
ATOM     17  N   UNL     1      53.331   2.508  18.177  0.00  0.00    +0.000 NA
ATOM     18  C   UNL     1      52.651   1.360  17.980  0.00  0.00    +0.000 A 
ATOM     19  C   UNL     1      51.335   1.316  17.561  0.00  0.00    +0.000 A 
ENDBRANCH  12  14
ENDBRANCH   8  12
ENDBRANCH   7   8
ENDBRANCH   1   7
BRANCH   5  20
ATOM     20  C   UNL     1      48.895   8.188  15.572  0.00  0.00    +0.000 C 
BRANCH  20  21
ATOM     21  N   UNL     1      47.774   7.741  14.788  0.00  0.00    +0.000 N 
ATOM     22  C   UNL     1      47.962   6.896  13.725  0.00  0.00    +0.000 C 
ATOM     23  O   UNL     1      49.066   6.432  13.449  0.00  0.00    +0.000 OA
ATOM     24  H   UNL     1      46.921   8.288  14.852  0.00  0.00    +0.000 HD
BRANCH  22  25
ATOM     25  C   UNL     1      46.767   6.521  12.961  0.00  0.00    +0.000 A 
ATOM     26  C   UNL     1      46.022   7.509  12.330  0.00  0.00    +0.000 A 
ATOM     27  S   UNL     1      44.699   6.908  11.442  0.00  0.00    +0.000 S 
ATOM     28  C   UNL     1      45.043   5.309  11.910  0.00  0.00    +0.000 A 
ATOM     29  N   UNL     1      44.259   4.278  11.497  0.00  0.00    +0.000 NA
ATOM     30  C   UNL     1      44.615   3.122  11.950  0.00  0.00    +0.000 A 
ATOM     31  N   UNL     1      45.686   2.904  12.777  0.00  0.00    +0.000 N 
ATOM     32  C   UNL     1      46.522   3.911  13.196  0.00  0.00    +0.000 A 
ATOM     33  O   UNL     1      47.495   3.673  13.906  0.00  0.00    +0.000 OA
ATOM     34  C   UNL     1      46.162   5.233  12.722  0.00  0.00    +0.000 A 
ATOM     35  H   UNL     1      45.914   1.973  13.092  0.00  0.00    +0.000 HD
ENDBRANCH  22  25
ENDBRANCH  20  21
ENDBRANCH   5  20
TORSDOF 8
ENDMDL
MODEL 5
REMARK VINA RESULT:    -7.880      3.942      8.777
REMARK INTER + INTRA:         -12.142
REMARK INTER:                 -10.977
REMARK INTRA:                  -1.165
REMARK UNBOUND:                -0.807
REMARK  Name = 
REMARK  8 active torsions:
REMARK  status: ('A' for Active; 'I' for Inactive)
REMARK    1  A    between atoms: N_1  and  C_2
REMARK    2  A    between atoms: C_2  and  C_3
REMARK    3  A    between atoms: C_2  and  C_24
REMARK    4  A    between atoms: C_3  and  C_4
REMARK    5  A    between atoms: C_8  and  C_9
REMARK    6  A    between atoms: C_9  and  N_10
REMARK    7  A    between atoms: C_11  and  C_13
REMARK    8  A    between atoms: C_24  and  C_26
REMARK                            x       y       z     vdW  Elec       q    Type
REMARK                         _______ _______ _______ _____ _____    ______ ____
ROOT
ATOM      1  C   UNL     1      48.347   7.661  19.228  0.00  0.00    +0.000 A 
ATOM      2  C   UNL     1      48.024   9.001  19.482  0.00  0.00    +0.000 A 
ATOM      3  C   UNL     1      47.907   9.910  18.430  0.00  0.00    +0.000 A 
ATOM      4  C   UNL     1      48.138   9.498  17.118  0.00  0.00    +0.000 A 
ATOM      5  C   UNL     1      48.482   8.170  16.845  0.00  0.00    +0.000 A 
ATOM      6  C   UNL     1      48.533   7.249  17.900  0.00  0.00    +0.000 A 
ENDROOT
BRANCH   1   7
ATOM      7  C   UNL     1      48.580   6.692  20.367  0.00  0.00    +0.000 C 
BRANCH   7   8
ATOM      8  C   UNL     1      48.475   5.199  19.981  0.00  0.00    +0.000 C 
BRANCH   8   9
ATOM      9  N   UNL     1      48.122   4.325  21.121  0.00  0.00    +0.000 NA
ATOM     10  H   UNL     1      48.945   3.824  21.446  0.00  0.00    +0.000 HD
ATOM     11  H   UNL     1      47.481   3.608  20.760  0.00  0.00    +0.000 HD
ENDBRANCH   8   9
BRANCH   8  12
ATOM     12  C   UNL     1      49.782   4.679  19.343  0.00  0.00    +0.000 C 
ATOM     13  O   UNL     1      50.885   5.127  19.669  0.00  0.00    +0.000 OA
BRANCH  12  14
ATOM     14  C   UNL     1      49.735   3.631  18.275  0.00  0.00    +0.000 A 
ATOM     15  C   UNL     1      50.843   2.875  17.898  0.00  0.00    +0.000 A 
ATOM     16  C   UNL     1      50.690   1.963  16.865  0.00  0.00    +0.000 A 
ATOM     17  N   UNL     1      49.530   1.752  16.213  0.00  0.00    +0.000 NA
ATOM     18  C   UNL     1      48.467   2.485  16.604  0.00  0.00    +0.000 A 
ATOM     19  C   UNL     1      48.518   3.424  17.617  0.00  0.00    +0.000 A 
ENDBRANCH  12  14
ENDBRANCH   8  12
ENDBRANCH   7   8
ENDBRANCH   1   7
BRANCH   5  20
ATOM     20  C   UNL     1      48.829   7.737  15.445  0.00  0.00    +0.000 C 
BRANCH  20  21
ATOM     21  N   UNL     1      47.658   7.373  14.693  0.00  0.00    +0.000 N 
ATOM     22  C   UNL     1      47.767   6.596  13.569  0.00  0.00    +0.000 C 
ATOM     23  O   UNL     1      48.842   6.124  13.207  0.00  0.00    +0.000 OA
ATOM     24  H   UNL     1      46.825   7.935  14.838  0.00  0.00    +0.000 HD
BRANCH  22  25
ATOM     25  C   UNL     1      46.525   6.303  12.845  0.00  0.00    +0.000 A 
ATOM     26  C   UNL     1      45.810   7.344  12.268  0.00  0.00    +0.000 A 
ATOM     27  S   UNL     1      44.423   6.836  11.420  0.00  0.00    +0.000 S 
ATOM     28  C   UNL     1      44.699   5.210  11.837  0.00  0.00    +0.000 A 
ATOM     29  N   UNL     1      43.845   4.232  11.433  0.00  0.00    +0.000 NA
ATOM     30  C   UNL     1      44.156   3.049  11.845  0.00  0.00    +0.000 A 
ATOM     31  N   UNL     1      45.245   2.754  12.623  0.00  0.00    +0.000 N 
ATOM     32  C   UNL     1      46.149   3.705  13.031  0.00  0.00    +0.000 A 
ATOM     33  O   UNL     1      47.135   3.398  13.696  0.00  0.00    +0.000 OA
ATOM     34  C   UNL     1      45.843   5.055  12.602  0.00  0.00    +0.000 A 
ATOM     35  H   UNL     1      45.435   1.805  12.908  0.00  0.00    +0.000 HD
ENDBRANCH  22  25
ENDBRANCH  20  21
ENDBRANCH   5  20
TORSDOF 8
ENDMDL
MODEL 6
REMARK VINA RESULT:    -7.829      2.433      3.680
REMARK INTER + INTRA:         -12.070
REMARK INTER:                 -10.693
REMARK INTRA:                  -1.376
REMARK UNBOUND:                -0.807
REMARK  Name = 
REMARK  8 active torsions:
REMARK  status: ('A' for Active; 'I' for Inactive)
REMARK    1  A    between atoms: N_1  and  C_2
REMARK    2  A    between atoms: C_2  and  C_3
REMARK    3  A    between atoms: C_2  and  C_24
REMARK    4  A    between atoms: C_3  and  C_4
REMARK    5  A    between atoms: C_8  and  C_9
REMARK    6  A    between atoms: C_9  and  N_10
REMARK    7  A    between atoms: C_11  and  C_13
REMARK    8  A    between atoms: C_24  and  C_26
REMARK                            x       y       z     vdW  Elec       q    Type
REMARK                         _______ _______ _______ _____ _____    ______ ____
ROOT
ATOM      1  C   UNL     1      45.097   6.700  12.521  0.00  0.00    +0.000 A 
ATOM      2  C   UNL     1      44.714   7.837  11.798  0.00  0.00    +0.000 A 
ATOM      3  C   UNL     1      45.534   8.966  11.770  0.00  0.00    +0.000 A 
ATOM      4  C   UNL     1      46.730   8.981  12.485  0.00  0.00    +0.000 A 
ATOM      5  C   UNL     1      47.122   7.864  13.231  0.00  0.00    +0.000 A 
ATOM      6  C   UNL     1      46.325   6.711  13.201  0.00  0.00    +0.000 A 
ENDROOT
BRANCH   1   7
ATOM      7  C   UNL     1      44.168   5.512  12.645  0.00  0.00    +0.000 C 
BRANCH   7   8
ATOM      8  C   UNL     1      43.355   5.189  11.371  0.00  0.00    +0.000 C 
BRANCH   8   9
ATOM      9  N   UNL     1      41.898   5.381  11.544  0.00  0.00    +0.000 NA
ATOM     10  H   UNL     1      41.672   5.478  12.530  0.00  0.00    +0.000 HD
ATOM     11  H   UNL     1      41.444   4.513  11.235  0.00  0.00    +0.000 HD
ENDBRANCH   8   9
BRANCH   8  12
ATOM     12  C   UNL     1      43.610   3.748  10.878  0.00  0.00    +0.000 C 
ATOM     13  O   UNL     1      43.051   2.777  11.397  0.00  0.00    +0.000 OA
BRANCH  12  14
ATOM     14  C   UNL     1      44.583   3.490   9.770  0.00  0.00    +0.000 A 
ATOM     15  C   UNL     1      45.194   4.508   9.039  0.00  0.00    +0.000 A 
ATOM     16  C   UNL     1      46.045   4.148   8.005  0.00  0.00    +0.000 A 
ATOM     17  N   UNL     1      46.330   2.873   7.674  0.00  0.00    +0.000 NA
ATOM     18  C   UNL     1      45.738   1.905   8.404  0.00  0.00    +0.000 A 
ATOM     19  C   UNL     1      44.870   2.160   9.449  0.00  0.00    +0.000 A 
ENDBRANCH  12  14
ENDBRANCH   8  12
ENDBRANCH   7   8
ENDBRANCH   1   7
BRANCH   5  20
ATOM     20  C   UNL     1      48.361   7.904  14.085  0.00  0.00    +0.000 C 
BRANCH  20  21
ATOM     21  N   UNL     1      48.158   7.255  15.352  0.00  0.00    +0.000 N 
ATOM     22  C   UNL     1      49.192   6.603  15.973  0.00  0.00    +0.000 C 
ATOM     23  O   UNL     1      50.333   6.611  15.518  0.00  0.00    +0.000 OA
ATOM     24  H   UNL     1      47.200   7.041  15.612  0.00  0.00    +0.000 HD
BRANCH  22  25
ATOM     25  C   UNL     1      48.885   5.939  17.245  0.00  0.00    +0.000 A 
ATOM     26  C   UNL     1      49.075   4.569  17.363  0.00  0.00    +0.000 A 
ATOM     27  S   UNL     1      48.725   3.959  18.915  0.00  0.00    +0.000 S 
ATOM     28  C   UNL     1      48.257   5.497  19.472  0.00  0.00    +0.000 A 
ATOM     29  N   UNL     1      47.819   5.674  20.746  0.00  0.00    +0.000 NA
ATOM     30  C   UNL     1      47.467   6.884  21.027  0.00  0.00    +0.000 A 
ATOM     31  N   UNL     1      47.518   7.935  20.149  0.00  0.00    +0.000 N 
ATOM     32  C   UNL     1      47.980   7.809  18.861  0.00  0.00    +0.000 A 
ATOM     33  O   UNL     1      48.046   8.781  18.113  0.00  0.00    +0.000 OA
ATOM     34  C   UNL     1      48.380   6.466  18.490  0.00  0.00    +0.000 A 
ATOM     35  H   UNL     1      47.233   8.861  20.433  0.00  0.00    +0.000 HD
ENDBRANCH  22  25
ENDBRANCH  20  21
ENDBRANCH   5  20
TORSDOF 8
ENDMDL
MODEL 7
REMARK VINA RESULT:    -7.551      3.729      6.225
REMARK INTER + INTRA:         -11.670
REMARK INTER:                  -9.802
REMARK INTRA:                  -1.868
REMARK UNBOUND:                -0.807
REMARK  Name = 
REMARK  8 active torsions:
REMARK  status: ('A' for Active; 'I' for Inactive)
REMARK    1  A    between atoms: N_1  and  C_2
REMARK    2  A    between atoms: C_2  and  C_3
REMARK    3  A    between atoms: C_2  and  C_24
REMARK    4  A    between atoms: C_3  and  C_4
REMARK    5  A    between atoms: C_8  and  C_9
REMARK    6  A    between atoms: C_9  and  N_10
REMARK    7  A    between atoms: C_11  and  C_13
REMARK    8  A    between atoms: C_24  and  C_26
REMARK                            x       y       z     vdW  Elec       q    Type
REMARK                         _______ _______ _______ _____ _____    ______ ____
ROOT
ATOM      1  C   UNL     1      46.661   5.022  13.790  0.00  0.00    +0.000 A 
ATOM      2  C   UNL     1      46.942   4.388  15.008  0.00  0.00    +0.000 A 
ATOM      3  C   UNL     1      47.900   4.915  15.874  0.00  0.00    +0.000 A 
ATOM      4  C   UNL     1      48.605   6.066  15.523  0.00  0.00    +0.000 A 
ATOM      5  C   UNL     1      48.354   6.703  14.303  0.00  0.00    +0.000 A 
ATOM      6  C   UNL     1      47.346   6.203  13.468  0.00  0.00    +0.000 A 
ENDROOT
BRANCH   1   7
ATOM      7  C   UNL     1      45.703   4.401  12.798  0.00  0.00    +0.000 C 
BRANCH   7   8
ATOM      8  C   UNL     1      44.839   5.412  12.009  0.00  0.00    +0.000 C 
BRANCH   8   9
ATOM      9  N   UNL     1      43.911   6.181  12.868  0.00  0.00    +0.000 NA
ATOM     10  H   UNL     1      42.951   5.903  12.682  0.00  0.00    +0.000 HD
ATOM     11  H   UNL     1      43.980   7.163  12.577  0.00  0.00    +0.000 HD
ENDBRANCH   8   9
BRANCH   8  12
ATOM     12  C   UNL     1      44.025   4.722  10.893  0.00  0.00    +0.000 C 
ATOM     13  O   UNL     1      42.792   4.783  10.858  0.00  0.00    +0.000 OA
BRANCH  12  14
ATOM     14  C   UNL     1      44.721   3.923   9.836  0.00  0.00    +0.000 A 
ATOM     15  C   UNL     1      44.686   2.530   9.785  0.00  0.00    +0.000 A 
ATOM     16  C   UNL     1      45.406   1.895   8.784  0.00  0.00    +0.000 A 
ATOM     17  N   UNL     1      46.126   2.544   7.848  0.00  0.00    +0.000 NA
ATOM     18  C   UNL     1      46.135   3.892   7.909  0.00  0.00    +0.000 A 
ATOM     19  C   UNL     1      45.456   4.617   8.870  0.00  0.00    +0.000 A 
ENDBRANCH  12  14
ENDBRANCH   8  12
ENDBRANCH   7   8
ENDBRANCH   1   7
BRANCH   5  20
ATOM     20  C   UNL     1      49.177   7.887  13.870  0.00  0.00    +0.000 C 
BRANCH  20  21
ATOM     21  N   UNL     1      48.464   8.721  12.939  0.00  0.00    +0.000 N 
ATOM     22  C   UNL     1      48.311  10.062  13.183  0.00  0.00    +0.000 C 
ATOM     23  O   UNL     1      48.832  10.611  14.150  0.00  0.00    +0.000 OA
ATOM     24  H   UNL     1      47.844   8.255  12.284  0.00  0.00    +0.000 HD
BRANCH  22  25
ATOM     25  C   UNL     1      47.540  10.828  12.198  0.00  0.00    +0.000 A 
ATOM     26  C   UNL     1      48.140  11.894  11.541  0.00  0.00    +0.000 A 
ATOM     27  S   UNL     1      47.132  12.646  10.391  0.00  0.00    +0.000 S 
ATOM     28  C   UNL     1      45.839  11.607  10.767  0.00  0.00    +0.000 A 
ATOM     29  N   UNL     1      44.640  11.730  10.138  0.00  0.00    +0.000 NA
ATOM     30  C   UNL     1      43.738  10.900  10.541  0.00  0.00    +0.000 A 
ATOM     31  N   UNL     1      43.927   9.953  11.515  0.00  0.00    +0.000 N 
ATOM     32  C   UNL     1      45.129   9.774  12.157  0.00  0.00    +0.000 A 
ATOM     33  O   UNL     1      45.273   8.891  12.998  0.00  0.00    +0.000 OA
ATOM     34  C   UNL     1      46.176  10.689  11.748  0.00  0.00    +0.000 A 
ATOM     35  H   UNL     1      43.181   9.329  11.781  0.00  0.00    +0.000 HD
ENDBRANCH  22  25
ENDBRANCH  20  21
ENDBRANCH   5  20
TORSDOF 8
ENDMDL
MODEL 8
REMARK VINA RESULT:    -7.392      4.219      8.738
REMARK INTER + INTRA:         -11.440
REMARK INTER:                  -9.841
REMARK INTRA:                  -1.599
REMARK UNBOUND:                -0.807
REMARK  Name = 
REMARK  8 active torsions:
REMARK  status: ('A' for Active; 'I' for Inactive)
REMARK    1  A    between atoms: N_1  and  C_2
REMARK    2  A    between atoms: C_2  and  C_3
REMARK    3  A    between atoms: C_2  and  C_24
REMARK    4  A    between atoms: C_3  and  C_4
REMARK    5  A    between atoms: C_8  and  C_9
REMARK    6  A    between atoms: C_9  and  N_10
REMARK    7  A    between atoms: C_11  and  C_13
REMARK    8  A    between atoms: C_24  and  C_26
REMARK                            x       y       z     vdW  Elec       q    Type
REMARK                         _______ _______ _______ _____ _____    ______ ____
ROOT
ATOM      1  C   UNL     1      48.561   8.371  18.207  0.00  0.00    +0.000 A 
ATOM      2  C   UNL     1      48.565   9.728  18.557  0.00  0.00    +0.000 A 
ATOM      3  C   UNL     1      48.511  10.711  17.569  0.00  0.00    +0.000 A 
ATOM      4  C   UNL     1      48.479  10.352  16.222  0.00  0.00    +0.000 A 
ATOM      5  C   UNL     1      48.496   9.003  15.851  0.00  0.00    +0.000 A 
ATOM      6  C   UNL     1      48.484   8.021  16.851  0.00  0.00    +0.000 A 
ENDROOT
BRANCH   1   7
ATOM      7  C   UNL     1      48.727   7.300  19.263  0.00  0.00    +0.000 C 
BRANCH   7   8
ATOM      8  C   UNL     1      48.059   5.947  18.925  0.00  0.00    +0.000 C 
BRANCH   8   9
ATOM      9  N   UNL     1      46.856   5.670  19.742  0.00  0.00    +0.000 NA
ATOM     10  H   UNL     1      46.994   4.827  20.292  0.00  0.00    +0.000 HD
ATOM     11  H   UNL     1      46.094   5.457  19.087  0.00  0.00    +0.000 HD
ENDBRANCH   8   9
BRANCH   8  12
ATOM     12  C   UNL     1      49.044   4.768  19.078  0.00  0.00    +0.000 C 
ATOM     13  O   UNL     1      49.776   4.658  20.066  0.00  0.00    +0.000 OA
BRANCH  12  14
ATOM     14  C   UNL     1      49.159   3.737  17.998  0.00  0.00    +0.000 A 
ATOM     15  C   UNL     1      48.112   3.412  17.137  0.00  0.00    +0.000 A 
ATOM     16  C   UNL     1      48.323   2.410  16.203  0.00  0.00    +0.000 A 
ATOM     17  N   UNL     1      49.484   1.740  16.067  0.00  0.00    +0.000 NA
ATOM     18  C   UNL     1      50.488   2.080  16.901  0.00  0.00    +0.000 A 
ATOM     19  C   UNL     1      50.376   3.060  17.869  0.00  0.00    +0.000 A 
ENDBRANCH  12  14
ENDBRANCH   8  12
ENDBRANCH   7   8
ENDBRANCH   1   7
BRANCH   5  20
ATOM     20  C   UNL     1      48.561   8.605  14.400  0.00  0.00    +0.000 C 
BRANCH  20  21
ATOM     21  N   UNL     1      47.509   7.688  14.051  0.00  0.00    +0.000 N 
ATOM     22  C   UNL     1      47.776   6.583  13.284  0.00  0.00    +0.000 C 
ATOM     23  O   UNL     1      48.917   6.295  12.934  0.00  0.00    +0.000 OA
ATOM     24  H   UNL     1      46.556   8.030  14.126  0.00  0.00    +0.000 HD
BRANCH  22  25
ATOM     25  C   UNL     1      46.636   5.723  12.946  0.00  0.00    +0.000 A 
ATOM     26  C   UNL     1      46.704   4.363  13.219  0.00  0.00    +0.000 A 
ATOM     27  S   UNL     1      45.284   3.512  12.819  0.00  0.00    +0.000 S 
ATOM     28  C   UNL     1      44.545   4.922  12.218  0.00  0.00    +0.000 A 
ATOM     29  N   UNL     1      43.291   4.883  11.694  0.00  0.00    +0.000 NA
ATOM     30  C   UNL     1      42.864   6.016  11.247  0.00  0.00    +0.000 A 
ATOM     31  N   UNL     1      43.577   7.187  11.279  0.00  0.00    +0.000 N 
ATOM     32  C   UNL     1      44.835   7.279  11.824  0.00  0.00    +0.000 A 
ATOM     33  O   UNL     1      45.429   8.353  11.870  0.00  0.00    +0.000 OA
ATOM     34  C   UNL     1      45.367   6.030  12.334  0.00  0.00    +0.000 A 
ATOM     35  H   UNL     1      43.183   8.042  10.917  0.00  0.00    +0.000 HD
ENDBRANCH  22  25
ENDBRANCH  20  21
ENDBRANCH   5  20
TORSDOF 8
ENDMDL
MODEL 9
REMARK VINA RESULT:    -7.379      2.342      3.490
REMARK INTER + INTRA:         -11.421
REMARK INTER:                 -10.415
REMARK INTRA:                  -1.006
REMARK UNBOUND:                -0.807
REMARK  Name = 
REMARK  8 active torsions:
REMARK  status: ('A' for Active; 'I' for Inactive)
REMARK    1  A    between atoms: N_1  and  C_2
REMARK    2  A    between atoms: C_2  and  C_3
REMARK    3  A    between atoms: C_2  and  C_24
REMARK    4  A    between atoms: C_3  and  C_4
REMARK    5  A    between atoms: C_8  and  C_9
REMARK    6  A    between atoms: C_9  and  N_10
REMARK    7  A    between atoms: C_11  and  C_13
REMARK    8  A    between atoms: C_24  and  C_26
REMARK                            x       y       z     vdW  Elec       q    Type
REMARK                         _______ _______ _______ _____ _____    ______ ____
ROOT
ATOM      1  C   UNL     1      46.363   5.806  12.820  0.00  0.00    +0.000 A 
ATOM      2  C   UNL     1      45.595   6.956  12.592  0.00  0.00    +0.000 A 
ATOM      3  C   UNL     1      46.105   8.218  12.897  0.00  0.00    +0.000 A 
ATOM      4  C   UNL     1      47.376   8.344  13.455  0.00  0.00    +0.000 A 
ATOM      5  C   UNL     1      48.152   7.208  13.710  0.00  0.00    +0.000 A 
ATOM      6  C   UNL     1      47.658   5.950  13.342  0.00  0.00    +0.000 A 
ENDROOT
BRANCH   1   7
ATOM      7  C   UNL     1      45.780   4.429  12.594  0.00  0.00    +0.000 C 
BRANCH   7   8
ATOM      8  C   UNL     1      44.246   4.396  12.410  0.00  0.00    +0.000 C 
BRANCH   8   9
ATOM      9  N   UNL     1      43.620   3.167  12.948  0.00  0.00    +0.000 NA
ATOM     10  H   UNL     1      43.620   2.436  12.241  0.00  0.00    +0.000 HD
ATOM     11  H   UNL     1      42.632   3.388  13.123  0.00  0.00    +0.000 HD
ENDBRANCH   8   9
BRANCH   8  12
ATOM     12  C   UNL     1      43.842   4.550  10.928  0.00  0.00    +0.000 C 
ATOM     13  O   UNL     1      42.838   5.184  10.592  0.00  0.00    +0.000 OA
BRANCH  12  14
ATOM     14  C   UNL     1      44.652   3.892   9.854  0.00  0.00    +0.000 A 
ATOM     15  C   UNL     1      45.405   4.604   8.921  0.00  0.00    +0.000 A 
ATOM     16  C   UNL     1      46.080   3.888   7.944  0.00  0.00    +0.000 A 
ATOM     17  N   UNL     1      46.065   2.544   7.851  0.00  0.00    +0.000 NA
ATOM     18  C   UNL     1      45.341   1.875   8.772  0.00  0.00    +0.000 A 
ATOM     19  C   UNL     1      44.628   2.496   9.780  0.00  0.00    +0.000 A 
ENDBRANCH  12  14
ENDBRANCH   8  12
ENDBRANCH   7   8
ENDBRANCH   1   7
BRANCH   5  20
ATOM     20  C   UNL     1      49.483   7.325  14.403  0.00  0.00    +0.000 C 
BRANCH  20  21
ATOM     21  N   UNL     1      49.334   7.457  15.828  0.00  0.00    +0.000 N 
ATOM     22  C   UNL     1      50.108   6.711  16.680  0.00  0.00    +0.000 C 
ATOM     23  O   UNL     1      50.997   5.969  16.270  0.00  0.00    +0.000 OA
ATOM     24  H   UNL     1      48.470   7.870  16.164  0.00  0.00    +0.000 HD
BRANCH  22  25
ATOM     25  C   UNL     1      49.864   6.885  18.116  0.00  0.00    +0.000 A 
ATOM     26  C   UNL     1      50.127   8.112  18.710  0.00  0.00    +0.000 A 
ATOM     27  S   UNL     1      49.741   8.169  20.368  0.00  0.00    +0.000 S 
ATOM     28  C   UNL     1      49.257   6.538  20.365  0.00  0.00    +0.000 A 
ATOM     29  N   UNL     1      48.820   5.938  21.504  0.00  0.00    +0.000 NA
ATOM     30  C   UNL     1      48.514   4.692  21.368  0.00  0.00    +0.000 A 
ATOM     31  N   UNL     1      48.602   3.990  20.193  0.00  0.00    +0.000 N 
ATOM     32  C   UNL     1      49.009   4.562  19.012  0.00  0.00    +0.000 A 
ATOM     33  O   UNL     1      49.039   3.913  17.970  0.00  0.00    +0.000 OA
ATOM     34  C   UNL     1      49.374   5.962  19.111  0.00  0.00    +0.000 A 
ATOM     35  H   UNL     1      48.341   3.017  20.152  0.00  0.00    +0.000 HD
ENDBRANCH  22  25
ENDBRANCH  20  21
ENDBRANCH   5  20
TORSDOF 8
ENDMDL
