MODEL 1
REMARK VINA RESULT:    -7.890      0.000      0.000
REMARK INTER + INTRA:         -12.187
REMARK INTER:                 -11.579
REMARK INTRA:                  -0.607
REMARK UNBOUND:                -0.607
REMARK  Name = 
REMARK  10 active torsions:
REMARK  status: ('A' for Active; 'I' for Inactive)
REMARK    1  A    between atoms: C_1  and  C_2
REMARK    2  A    between atoms: C_2  and  N_3
REMARK    3  A    between atoms: C_2  and  C_21
REMARK    4  A    between atoms: N_3  and  C_4
REMARK    5  A    between atoms: C_4  and  C_5
REMARK    6  A    between atoms: C_8  and  C_9
REMARK    7  A    between atoms: C_9  and  N_10
REMARK    8  A    between atoms: N_10  and  C_11
REMARK    9  A    between atoms: N_10  and  C_12
REMARK   10  A    between atoms: C_12  and  C_13
REMARK                            x       y       z     vdW  Elec       q    Type
REMARK                         _______ _______ _______ _____ _____    ______ ____
ROOT
ATOM      1  C   UNL     1      48.809   6.514  14.993  0.00  0.00    +0.000 C 
ENDROOT
BRANCH   1   2
ATOM      2  C   UNL     1      47.653   6.411  14.033  0.00  0.00    +0.000 A 
ATOM      3  C   UNL     1      47.078   7.536  13.438  0.00  0.00    +0.000 A 
ATOM      4  C   UNL     1      46.084   7.377  12.474  0.00  0.00    +0.000 A 
ATOM      5  C   UNL     1      45.705   6.089  12.099  0.00  0.00    +0.000 A 
ATOM      6  N   UNL     1      46.223   4.981  12.683  0.00  0.00    +0.000 NA
ATOM      7  C   UNL     1      47.169   5.168  13.633  0.00  0.00    +0.000 A 
BRANCH   5   8
ATOM      8  C   UNL     1      44.765   5.888  10.921  0.00  0.00    +0.000 C 
BRANCH   8   9
ATOM      9  N   UNL     1      44.549   4.452  10.594  0.00  0.00    +0.000 NA
ATOM     10  C   UNL     1      43.412   3.919  11.360  0.00  0.00    +0.000 C 
BRANCH   9  11
ATOM     11  C   UNL     1      44.279   4.279   9.151  0.00  0.00    +0.000 C 
BRANCH  11  12
ATOM     12  C   UNL     1      45.256   3.364   8.446  0.00  0.00    +0.000 A 
ATOM     13  C   UNL     1      45.341   2.018   8.785  0.00  0.00    +0.000 A 
ATOM     14  N   UNL     1      46.230   1.169   8.214  0.00  0.00    +0.000 NA
ATOM     15  C   UNL     1      47.038   1.724   7.285  0.00  0.00    +0.000 A 
ATOM     16  C   UNL     1      46.958   3.061   6.934  0.00  0.00    +0.000 A 
ATOM     17  N   UNL     1      46.072   3.908   7.503  0.00  0.00    +0.000 NA
ENDBRANCH  11  12
ENDBRANCH   9  11
ENDBRANCH   8   9
ENDBRANCH   5   8
ENDBRANCH   1   2
BRANCH   1  18
ATOM     18  N   UNL     1      48.428   6.177  16.361  0.00  0.00    +0.000 NA
ATOM     19  H   UNL     1      49.066   6.641  17.005  0.00  0.00    +0.000 HD
BRANCH  18  21
ATOM     20  C   UNL     1      47.223   4.241  17.395  0.00  0.00    +0.000 C 
ATOM     21  C   UNL     1      48.470   4.732  16.650  0.00  0.00    +0.000 C 
BRANCH  21  22
ATOM     22  C   UNL     1      49.721   4.516  17.484  0.00  0.00    +0.000 A 
ATOM     23  C   UNL     1      50.271   5.488  18.311  0.00  0.00    +0.000 A 
ATOM     24  S   UNL     1      51.739   5.014  19.034  0.00  0.00    +0.000 S 
ATOM     25  C   UNL     1      51.691   3.492  18.271  0.00  0.00    +0.000 A 
ATOM     26  N   UNL     1      52.703   2.600  18.423  0.00  0.00    +0.000 NA
ATOM     27  C   UNL     1      52.531   1.490  17.785  0.00  0.00    +0.000 A 
ATOM     28  N   UNL     1      51.426   1.180  17.035  0.00  0.00    +0.000 N 
ATOM     29  C   UNL     1      50.348   2.029  16.899  0.00  0.00    +0.000 A 
ATOM     30  O   UNL     1      49.329   1.681  16.316  0.00  0.00    +0.000 OA
ATOM     31  C   UNL     1      50.534   3.323  17.529  0.00  0.00    +0.000 A 
ATOM     32  H   UNL     1      51.335   0.272  16.605  0.00  0.00    +0.000 HD
ENDBRANCH  21  22
ENDBRANCH  18  21
ENDBRANCH   1  18
TORSDOF 8
ENDMDL
MODEL 2
REMARK VINA RESULT:    -7.323      1.940      2.556
REMARK INTER + INTRA:         -11.354
REMARK INTER:                  -9.960
REMARK INTRA:                  -1.394
REMARK UNBOUND:                -0.607
REMARK  Name = 
REMARK  10 active torsions:
REMARK  status: ('A' for Active; 'I' for Inactive)
REMARK    1  A    between atoms: C_1  and  C_2
REMARK    2  A    between atoms: C_2  and  N_3
REMARK    3  A    between atoms: C_2  and  C_21
REMARK    4  A    between atoms: N_3  and  C_4
REMARK    5  A    between atoms: C_4  and  C_5
REMARK    6  A    between atoms: C_8  and  C_9
REMARK    7  A    between atoms: C_9  and  N_10
REMARK    8  A    between atoms: N_10  and  C_11
REMARK    9  A    between atoms: N_10  and  C_12
REMARK   10  A    between atoms: C_12  and  C_13
REMARK                            x       y       z     vdW  Elec       q    Type
REMARK                         _______ _______ _______ _____ _____    ______ ____
ROOT
ATOM      1  C   UNL     1      49.027   8.695  13.901  0.00  0.00    +0.000 C 
ENDROOT
BRANCH   1   2
ATOM      2  C   UNL     1      47.884   8.126  13.102  0.00  0.00    +0.000 A 
ATOM      3  C   UNL     1      48.057   7.078  12.196  0.00  0.00    +0.000 A 
ATOM      4  C   UNL     1      46.948   6.518  11.565  0.00  0.00    +0.000 A 
ATOM      5  C   UNL     1      45.677   6.998  11.879  0.00  0.00    +0.000 A 
ATOM      6  N   UNL     1      45.482   8.035  12.730  0.00  0.00    +0.000 NA
ATOM      7  C   UNL     1      46.581   8.575  13.308  0.00  0.00    +0.000 A 
BRANCH   5   8
ATOM      8  C   UNL     1      44.445   6.280  11.351  0.00  0.00    +0.000 C 
BRANCH   8   9
ATOM      9  N   UNL     1      44.628   4.805  11.267  0.00  0.00    +0.000 NA
ATOM     10  C   UNL     1      44.050   4.150  12.450  0.00  0.00    +0.000 C 
BRANCH   9  11
ATOM     11  C   UNL     1      43.978   4.266  10.054  0.00  0.00    +0.000 C 
BRANCH  11  12
ATOM     12  C   UNL     1      44.924   3.555   9.111  0.00  0.00    +0.000 A 
ATOM     13  C   UNL     1      45.145   2.186   9.225  0.00  0.00    +0.000 A 
ATOM     14  N   UNL     1      46.015   1.512   8.434  0.00  0.00    +0.000 NA
ATOM     15  C   UNL     1      46.662   2.268   7.519  0.00  0.00    +0.000 A 
ATOM     16  C   UNL     1      46.444   3.629   7.392  0.00  0.00    +0.000 A 
ATOM     17  N   UNL     1      45.576   4.301   8.180  0.00  0.00    +0.000 NA
ENDBRANCH  11  12
ENDBRANCH   9  11
ENDBRANCH   8   9
ENDBRANCH   5   8
ENDBRANCH   1   2
BRANCH   1  18
ATOM     18  N   UNL     1      49.460   7.798  14.969  0.00  0.00    +0.000 NA
ATOM     19  H   UNL     1      49.561   6.859  14.589  0.00  0.00    +0.000 HD
BRANCH  18  21
ATOM     20  C   UNL     1      48.522   9.001  16.955  0.00  0.00    +0.000 C 
ATOM     21  C   UNL     1      48.519   7.727  16.101  0.00  0.00    +0.000 C 
BRANCH  21  22
ATOM     22  C   UNL     1      48.952   6.523  16.920  0.00  0.00    +0.000 A 
ATOM     23  C   UNL     1      49.831   6.599  17.992  0.00  0.00    +0.000 A 
ATOM     24  S   UNL     1      50.234   5.080  18.652  0.00  0.00    +0.000 S 
ATOM     25  C   UNL     1      49.244   4.266  17.529  0.00  0.00    +0.000 A 
ATOM     26  N   UNL     1      49.179   2.910  17.507  0.00  0.00    +0.000 NA
ATOM     27  C   UNL     1      48.391   2.433  16.602  0.00  0.00    +0.000 A 
ATOM     28  N   UNL     1      47.638   3.189  15.740  0.00  0.00    +0.000 N 
ATOM     29  C   UNL     1      47.626   4.567  15.764  0.00  0.00    +0.000 A 
ATOM     30  O   UNL     1      46.861   5.213  15.058  0.00  0.00    +0.000 OA
ATOM     31  C   UNL     1      48.563   5.148  16.708  0.00  0.00    +0.000 A 
ATOM     32  H   UNL     1      47.003   2.748  15.091  0.00  0.00    +0.000 HD
ENDBRANCH  21  22
ENDBRANCH  18  21
ENDBRANCH   1  18
TORSDOF 8
ENDMDL
MODEL 3
REMARK VINA RESULT:    -7.304      2.081      2.838
REMARK INTER + INTRA:         -11.327
REMARK INTER:                 -10.444
REMARK INTRA:                  -0.883
REMARK UNBOUND:                -0.607
REMARK  Name = 
REMARK  10 active torsions:
REMARK  status: ('A' for Active; 'I' for Inactive)
REMARK    1  A    between atoms: C_1  and  C_2
REMARK    2  A    between atoms: C_2  and  N_3
REMARK    3  A    between atoms: C_2  and  C_21
REMARK    4  A    between atoms: N_3  and  C_4
REMARK    5  A    between atoms: C_4  and  C_5
REMARK    6  A    between atoms: C_8  and  C_9
REMARK    7  A    between atoms: C_9  and  N_10
REMARK    8  A    between atoms: N_10  and  C_11
REMARK    9  A    between atoms: N_10  and  C_12
REMARK   10  A    between atoms: C_12  and  C_13
REMARK                            x       y       z     vdW  Elec       q    Type
REMARK                         _______ _______ _______ _____ _____    ______ ____
ROOT
ATOM      1  C   UNL     1      49.337   7.283  13.877  0.00  0.00    +0.000 C 
ENDROOT
BRANCH   1   2
ATOM      2  C   UNL     1      48.124   6.594  13.309  0.00  0.00    +0.000 A 
ATOM      3  C   UNL     1      47.406   5.637  14.029  0.00  0.00    +0.000 A 
ATOM      4  C   UNL     1      46.230   5.111  13.499  0.00  0.00    +0.000 A 
ATOM      5  C   UNL     1      45.775   5.578  12.267  0.00  0.00    +0.000 A 
ATOM      6  N   UNL     1      46.468   6.482  11.532  0.00  0.00    +0.000 NA
ATOM      7  C   UNL     1      47.620   6.956  12.062  0.00  0.00    +0.000 A 
BRANCH   5   8
ATOM      8  C   UNL     1      44.403   5.162  11.759  0.00  0.00    +0.000 C 
BRANCH   8   9
ATOM      9  N   UNL     1      44.403   3.808  11.141  0.00  0.00    +0.000 NA
ATOM     10  C   UNL     1      43.431   2.937  11.818  0.00  0.00    +0.000 C 
BRANCH   9  11
ATOM     11  C   UNL     1      44.057   3.888   9.706  0.00  0.00    +0.000 C 
BRANCH  11  12
ATOM     12  C   UNL     1      45.115   3.323   8.783  0.00  0.00    +0.000 A 
ATOM     13  C   UNL     1      45.444   1.971   8.822  0.00  0.00    +0.000 A 
ATOM     14  N   UNL     1      46.414   1.427   8.049  0.00  0.00    +0.000 NA
ATOM     15  C   UNL     1      47.049   2.294   7.230  0.00  0.00    +0.000 A 
ATOM     16  C   UNL     1      46.726   3.639   7.177  0.00  0.00    +0.000 A 
ATOM     17  N   UNL     1      45.758   4.183   7.949  0.00  0.00    +0.000 NA
ENDBRANCH  11  12
ENDBRANCH   9  11
ENDBRANCH   8   9
ENDBRANCH   5   8
ENDBRANCH   1   2
BRANCH   1  18
ATOM     18  N   UNL     1      49.889   6.578  15.029  0.00  0.00    +0.000 NA
ATOM     19  H   UNL     1      49.156   6.009  15.449  0.00  0.00    +0.000 HD
BRANCH  18  21
ATOM     20  C   UNL     1      51.853   7.122  16.485  0.00  0.00    +0.000 C 
ATOM     21  C   UNL     1      50.417   7.473  16.075  0.00  0.00    +0.000 C 
BRANCH  21  22
ATOM     22  C   UNL     1      49.467   7.336  17.252  0.00  0.00    +0.000 A 
ATOM     23  C   UNL     1      48.695   8.382  17.742  0.00  0.00    +0.000 A 
ATOM     24  S   UNL     1      47.811   7.977  19.141  0.00  0.00    +0.000 S 
ATOM     25  C   UNL     1      48.424   6.388  19.139  0.00  0.00    +0.000 A 
ATOM     26  N   UNL     1      48.103   5.512  20.126  0.00  0.00    +0.000 NA
ATOM     27  C   UNL     1      48.643   4.346  19.995  0.00  0.00    +0.000 A 
ATOM     28  N   UNL     1      49.448   3.967  18.951  0.00  0.00    +0.000 N 
ATOM     29  C   UNL     1      49.754   4.802  17.898  0.00  0.00    +0.000 A 
ATOM     30  O   UNL     1      50.383   4.402  16.926  0.00  0.00    +0.000 OA
ATOM     31  C   UNL     1      49.239   6.151  18.045  0.00  0.00    +0.000 A 
ATOM     32  H   UNL     1      49.795   3.022  18.887  0.00  0.00    +0.000 HD
ENDBRANCH  21  22
ENDBRANCH  18  21
ENDBRANCH   1  18
TORSDOF 8
ENDMDL
MODEL 4
REMARK VINA RESULT:    -7.257      3.222      8.675
REMARK INTER + INTRA:         -11.258
REMARK INTER:                  -9.953
REMARK INTRA:                  -1.305
REMARK UNBOUND:                -0.607
REMARK  Name = 
REMARK  10 active torsions:
REMARK  status: ('A' for Active; 'I' for Inactive)
REMARK    1  A    between atoms: C_1  and  C_2
REMARK    2  A    between atoms: C_2  and  N_3
REMARK    3  A    between atoms: C_2  and  C_21
REMARK    4  A    between atoms: N_3  and  C_4
REMARK    5  A    between atoms: C_4  and  C_5
REMARK    6  A    between atoms: C_8  and  C_9
REMARK    7  A    between atoms: C_9  and  N_10
REMARK    8  A    between atoms: N_10  and  C_11
REMARK    9  A    between atoms: N_10  and  C_12
REMARK   10  A    between atoms: C_12  and  C_13
REMARK                            x       y       z     vdW  Elec       q    Type
REMARK                         _______ _______ _______ _____ _____    ______ ____
ROOT
ATOM      1  C   UNL     1      48.029   7.634  11.523  0.00  0.00    +0.000 C 
ENDROOT
BRANCH   1   2
ATOM      2  C   UNL     1      48.890   7.461  12.747  0.00  0.00    +0.000 A 
ATOM      3  C   UNL     1      50.009   8.260  12.990  0.00  0.00    +0.000 A 
ATOM      4  C   UNL     1      50.705   8.131  14.189  0.00  0.00    +0.000 A 
ATOM      5  C   UNL     1      50.248   7.222  15.142  0.00  0.00    +0.000 A 
ATOM      6  N   UNL     1      49.185   6.410  14.920  0.00  0.00    +0.000 NA
ATOM      7  C   UNL     1      48.544   6.542  13.735  0.00  0.00    +0.000 A 
BRANCH   5   8
ATOM      8  C   UNL     1      50.873   7.197  16.528  0.00  0.00    +0.000 C 
BRANCH   8   9
ATOM      9  N   UNL     1      51.421   5.861  16.890  0.00  0.00    +0.000 NA
ATOM     10  C   UNL     1      52.857   5.962  17.190  0.00  0.00    +0.000 C 
BRANCH   9  11
ATOM     11  C   UNL     1      50.722   5.311  18.070  0.00  0.00    +0.000 C 
BRANCH  11  12
ATOM     12  C   UNL     1      49.447   4.565  17.740  0.00  0.00    +0.000 A 
ATOM     13  C   UNL     1      48.211   5.057  18.147  0.00  0.00    +0.000 A 
ATOM     14  N   UNL     1      47.046   4.404  17.915  0.00  0.00    +0.000 NA
ATOM     15  C   UNL     1      47.168   3.230  17.257  0.00  0.00    +0.000 A 
ATOM     16  C   UNL     1      48.391   2.735  16.841  0.00  0.00    +0.000 A 
ATOM     17  N   UNL     1      49.554   3.386  17.072  0.00  0.00    +0.000 NA
ENDBRANCH  11  12
ENDBRANCH   9  11
ENDBRANCH   8   9
ENDBRANCH   5   8
ENDBRANCH   1   2
BRANCH   1  18
ATOM     18  N   UNL     1      47.073   6.543  11.357  0.00  0.00    +0.000 NA
ATOM     19  H   UNL     1      47.258   6.075  10.471  0.00  0.00    +0.000 HD
BRANCH  18  21
ATOM     20  C   UNL     1      45.342   7.954  12.490  0.00  0.00    +0.000 C 
ATOM     21  C   UNL     1      45.666   6.985  11.347  0.00  0.00    +0.000 C 
BRANCH  21  22
ATOM     22  C   UNL     1      44.837   5.717  11.457  0.00  0.00    +0.000 A 
ATOM     23  C   UNL     1      44.025   5.423  12.545  0.00  0.00    +0.000 A 
ATOM     24  S   UNL     1      43.303   3.882  12.458  0.00  0.00    +0.000 S 
ATOM     25  C   UNL     1      44.048   3.554  10.961  0.00  0.00    +0.000 A 
ATOM     26  N   UNL     1      43.889   2.353  10.348  0.00  0.00    +0.000 NA
ATOM     27  C   UNL     1      44.513   2.247   9.223  0.00  0.00    +0.000 A 
ATOM     28  N   UNL     1      45.254   3.243   8.639  0.00  0.00    +0.000 N 
ATOM     29  C   UNL     1      45.394   4.497   9.194  0.00  0.00    +0.000 A 
ATOM     30  O   UNL     1      45.969   5.400   8.598  0.00  0.00    +0.000 OA
ATOM     31  C   UNL     1      44.781   4.635  10.503  0.00  0.00    +0.000 A 
ATOM     32  H   UNL     1      45.673   3.107   7.731  0.00  0.00    +0.000 HD
ENDBRANCH  21  22
ENDBRANCH  18  21
ENDBRANCH   1  18
TORSDOF 8
ENDMDL
MODEL 5
REMARK VINA RESULT:    -6.981      2.810      4.014
REMARK INTER + INTRA:         -10.853
REMARK INTER:                  -9.643
REMARK INTRA:                  -1.211
REMARK UNBOUND:                -0.607
REMARK  Name = 
REMARK  10 active torsions:
REMARK  status: ('A' for Active; 'I' for Inactive)
REMARK    1  A    between atoms: C_1  and  C_2
REMARK    2  A    between atoms: C_2  and  N_3
REMARK    3  A    between atoms: C_2  and  C_21
REMARK    4  A    between atoms: N_3  and  C_4
REMARK    5  A    between atoms: C_4  and  C_5
REMARK    6  A    between atoms: C_8  and  C_9
REMARK    7  A    between atoms: C_9  and  N_10
REMARK    8  A    between atoms: N_10  and  C_11
REMARK    9  A    between atoms: N_10  and  C_12
REMARK   10  A    between atoms: C_12  and  C_13
REMARK                            x       y       z     vdW  Elec       q    Type
REMARK                         _______ _______ _______ _____ _____    ______ ____
ROOT
ATOM      1  C   UNL     1      47.776   4.285  16.239  0.00  0.00    +0.000 C 
ENDROOT
BRANCH   1   2
ATOM      2  C   UNL     1      47.242   4.523  14.851  0.00  0.00    +0.000 A 
ATOM      3  C   UNL     1      46.810   3.479  14.030  0.00  0.00    +0.000 A 
ATOM      4  C   UNL     1      46.224   3.764  12.798  0.00  0.00    +0.000 A 
ATOM      5  C   UNL     1      46.052   5.095  12.423  0.00  0.00    +0.000 A 
ATOM      6  N   UNL     1      46.490   6.127  13.185  0.00  0.00    +0.000 NA
ATOM      7  C   UNL     1      47.078   5.818  14.365  0.00  0.00    +0.000 A 
BRANCH   5   8
ATOM      8  C   UNL     1      45.247   5.434  11.178  0.00  0.00    +0.000 C 
BRANCH   8   9
ATOM      9  N   UNL     1      44.347   4.326  10.754  0.00  0.00    +0.000 NA
ATOM     10  C   UNL     1      43.024   4.476  11.377  0.00  0.00    +0.000 C 
BRANCH   9  11
ATOM     11  C   UNL     1      44.187   4.316   9.284  0.00  0.00    +0.000 C 
BRANCH  11  12
ATOM     12  C   UNL     1      45.161   3.409   8.564  0.00  0.00    +0.000 A 
ATOM     13  C   UNL     1      45.273   2.066   8.913  0.00  0.00    +0.000 A 
ATOM     14  N   UNL     1      46.160   1.225   8.329  0.00  0.00    +0.000 NA
ATOM     15  C   UNL     1      46.939   1.784   7.377  0.00  0.00    +0.000 A 
ATOM     16  C   UNL     1      46.832   3.115   7.016  0.00  0.00    +0.000 A 
ATOM     17  N   UNL     1      45.947   3.955   7.598  0.00  0.00    +0.000 NA
ENDBRANCH  11  12
ENDBRANCH   9  11
ENDBRANCH   8   9
ENDBRANCH   5   8
ENDBRANCH   1   2
BRANCH   1  18
ATOM     18  N   UNL     1      47.348   5.313  17.183  0.00  0.00    +0.000 NA
ATOM     19  H   UNL     1      46.979   6.106  16.662  0.00  0.00    +0.000 HD
BRANCH  18  21
ATOM     20  C   UNL     1      48.253   5.398  19.516  0.00  0.00    +0.000 C 
ATOM     21  C   UNL     1      48.432   5.810  18.050  0.00  0.00    +0.000 C 
BRANCH  21  22
ATOM     22  C   UNL     1      48.414   7.322  17.904  0.00  0.00    +0.000 A 
ATOM     23  C   UNL     1      47.761   8.171  18.787  0.00  0.00    +0.000 A 
ATOM     24  S   UNL     1      47.805   9.808  18.316  0.00  0.00    +0.000 S 
ATOM     25  C   UNL     1      48.704   9.440  16.916  0.00  0.00    +0.000 A 
ATOM     26  N   UNL     1      49.035  10.407  16.022  0.00  0.00    +0.000 NA
ATOM     27  C   UNL     1      49.714   9.982  15.009  0.00  0.00    +0.000 A 
ATOM     28  N   UNL     1      50.120   8.684  14.827  0.00  0.00    +0.000 N 
ATOM     29  C   UNL     1      49.859   7.681  15.735  0.00  0.00    +0.000 A 
ATOM     30  O   UNL     1      50.329   6.557  15.600  0.00  0.00    +0.000 OA
ATOM     31  C   UNL     1      49.024   8.095  16.847  0.00  0.00    +0.000 A 
ATOM     32  H   UNL     1      50.694   8.432  14.036  0.00  0.00    +0.000 HD
ENDBRANCH  21  22
ENDBRANCH  18  21
ENDBRANCH   1  18
TORSDOF 8
ENDMDL
MODEL 6
REMARK VINA RESULT:    -6.958      2.472      3.286
REMARK INTER + INTRA:         -10.820
REMARK INTER:                  -9.784
REMARK INTRA:                  -1.035
REMARK UNBOUND:                -0.607
REMARK  Name = 
REMARK  10 active torsions:
REMARK  status: ('A' for Active; 'I' for Inactive)
REMARK    1  A    between atoms: C_1  and  C_2
REMARK    2  A    between atoms: C_2  and  N_3
REMARK    3  A    between atoms: C_2  and  C_21
REMARK    4  A    between atoms: N_3  and  C_4
REMARK    5  A    between atoms: C_4  and  C_5
REMARK    6  A    between atoms: C_8  and  C_9
REMARK    7  A    between atoms: C_9  and  N_10
REMARK    8  A    between atoms: N_10  and  C_11
REMARK    9  A    between atoms: N_10  and  C_12
REMARK   10  A    between atoms: C_12  and  C_13
REMARK                            x       y       z     vdW  Elec       q    Type
REMARK                         _______ _______ _______ _____ _____    ______ ____
ROOT
ATOM      1  C   UNL     1      49.093   8.094  13.930  0.00  0.00    +0.000 C 
ENDROOT
BRANCH   1   2
ATOM      2  C   UNL     1      47.796   7.498  13.449  0.00  0.00    +0.000 A 
ATOM      3  C   UNL     1      46.649   8.270  13.252  0.00  0.00    +0.000 A 
ATOM      4  C   UNL     1      45.509   7.688  12.702  0.00  0.00    +0.000 A 
ATOM      5  C   UNL     1      45.548   6.346  12.329  0.00  0.00    +0.000 A 
ATOM      6  N   UNL     1      46.636   5.565  12.538  0.00  0.00    +0.000 NA
ATOM      7  C   UNL     1      47.720   6.152  13.097  0.00  0.00    +0.000 A 
BRANCH   5   8
ATOM      8  C   UNL     1      44.387   5.740  11.555  0.00  0.00    +0.000 C 
BRANCH   8   9
ATOM      9  N   UNL     1      44.521   4.269  11.371  0.00  0.00    +0.000 NA
ATOM     10  C   UNL     1      43.825   3.553  12.450  0.00  0.00    +0.000 C 
BRANCH   9  11
ATOM     11  C   UNL     1      43.953   3.850  10.073  0.00  0.00    +0.000 C 
BRANCH  11  12
ATOM     12  C   UNL     1      44.981   3.356   9.079  0.00  0.00    +0.000 A 
ATOM     13  C   UNL     1      45.302   2.004   9.002  0.00  0.00    +0.000 A 
ATOM     14  N   UNL     1      46.247   1.518   8.161  0.00  0.00    +0.000 NA
ATOM     15  C   UNL     1      46.865   2.444   7.396  0.00  0.00    +0.000 A 
ATOM     16  C   UNL     1      46.550   3.790   7.459  0.00  0.00    +0.000 A 
ATOM     17  N   UNL     1      45.607   4.276   8.297  0.00  0.00    +0.000 NA
ENDBRANCH  11  12
ENDBRANCH   9  11
ENDBRANCH   8   9
ENDBRANCH   5   8
ENDBRANCH   1   2
BRANCH   1  18
ATOM     18  N   UNL     1      50.015   7.083  14.439  0.00  0.00    +0.000 NA
ATOM     19  H   UNL     1      49.483   6.258  14.708  0.00  0.00    +0.000 HD
BRANCH  18  21
ATOM     20  C   UNL     1      52.295   7.585  15.343  0.00  0.00    +0.000 C 
ATOM     21  C   UNL     1      50.788   7.523  15.615  0.00  0.00    +0.000 C 
BRANCH  21  22
ATOM     22  C   UNL     1      50.474   6.521  16.712  0.00  0.00    +0.000 A 
ATOM     23  C   UNL     1      51.279   5.429  17.008  0.00  0.00    +0.000 A 
ATOM     24  S   UNL     1      50.625   4.406  18.204  0.00  0.00    +0.000 S 
ATOM     25  C   UNL     1      49.244   5.389  18.371  0.00  0.00    +0.000 A 
ATOM     26  N   UNL     1      48.235   5.041  19.211  0.00  0.00    +0.000 NA
ATOM     27  C   UNL     1      47.252   5.879  19.233  0.00  0.00    +0.000 A 
ATOM     28  N   UNL     1      47.202   7.047  18.516  0.00  0.00    +0.000 N 
ATOM     29  C   UNL     1      48.226   7.471  17.697  0.00  0.00    +0.000 A 
ATOM     30  O   UNL     1      48.202   8.570  17.156  0.00  0.00    +0.000 OA
ATOM     31  C   UNL     1      49.315   6.518  17.574  0.00  0.00    +0.000 A 
ATOM     32  H   UNL     1      46.424   7.682  18.621  0.00  0.00    +0.000 HD
ENDBRANCH  21  22
ENDBRANCH  18  21
ENDBRANCH   1  18
TORSDOF 8
ENDMDL
MODEL 7
REMARK VINA RESULT:    -6.886      2.705      4.081
REMARK INTER + INTRA:         -10.714
REMARK INTER:                  -9.693
REMARK INTRA:                  -1.020
REMARK UNBOUND:                -0.607
REMARK  Name = 
REMARK  10 active torsions:
REMARK  status: ('A' for Active; 'I' for Inactive)
REMARK    1  A    between atoms: C_1  and  C_2
REMARK    2  A    between atoms: C_2  and  N_3
REMARK    3  A    between atoms: C_2  and  C_21
REMARK    4  A    between atoms: N_3  and  C_4
REMARK    5  A    between atoms: C_4  and  C_5
REMARK    6  A    between atoms: C_8  and  C_9
REMARK    7  A    between atoms: C_9  and  N_10
REMARK    8  A    between atoms: N_10  and  C_11
REMARK    9  A    between atoms: N_10  and  C_12
REMARK   10  A    between atoms: C_12  and  C_13
REMARK                            x       y       z     vdW  Elec       q    Type
REMARK                         _______ _______ _______ _____ _____    ______ ____
ROOT
ATOM      1  C   UNL     1      47.785   4.363  16.186  0.00  0.00    +0.000 C 
ENDROOT
BRANCH   1   2
ATOM      2  C   UNL     1      47.267   4.593  14.791  0.00  0.00    +0.000 A 
ATOM      3  C   UNL     1      46.639   3.586  14.054  0.00  0.00    +0.000 A 
ATOM      4  C   UNL     1      46.082   3.881  12.812  0.00  0.00    +0.000 A 
ATOM      5  C   UNL     1      46.134   5.193  12.342  0.00  0.00    +0.000 A 
ATOM      6  N   UNL     1      46.765   6.183  13.020  0.00  0.00    +0.000 NA
ATOM      7  C   UNL     1      47.319   5.859  14.212  0.00  0.00    +0.000 A 
BRANCH   5   8
ATOM      8  C   UNL     1      45.371   5.579  11.085  0.00  0.00    +0.000 C 
BRANCH   8   9
ATOM      9  N   UNL     1      44.363   4.557  10.686  0.00  0.00    +0.000 NA
ATOM     10  C   UNL     1      43.051   4.881  11.265  0.00  0.00    +0.000 C 
BRANCH   9  11
ATOM     11  C   UNL     1      44.236   4.495   9.214  0.00  0.00    +0.000 C 
BRANCH  11  12
ATOM     12  C   UNL     1      45.158   3.491   8.557  0.00  0.00    +0.000 A 
ATOM     13  C   UNL     1      45.183   2.166   8.982  0.00  0.00    +0.000 A 
ATOM     14  N   UNL     1      46.021   1.240   8.456  0.00  0.00    +0.000 NA
ATOM     15  C   UNL     1      46.841   1.695   7.483  0.00  0.00    +0.000 A 
ATOM     16  C   UNL     1      46.819   3.008   7.047  0.00  0.00    +0.000 A 
ATOM     17  N   UNL     1      45.983   3.933   7.571  0.00  0.00    +0.000 NA
ENDBRANCH  11  12
ENDBRANCH   9  11
ENDBRANCH   8   9
ENDBRANCH   5   8
ENDBRANCH   1   2
BRANCH   1  18
ATOM     18  N   UNL     1      48.008   5.612  16.909  0.00  0.00    +0.000 NA
ATOM     19  H   UNL     1      48.027   6.380  16.241  0.00  0.00    +0.000 HD
BRANCH  18  21
ATOM     20  C   UNL     1      50.088   4.352  17.506  0.00  0.00    +0.000 C 
ATOM     21  C   UNL     1      49.273   5.641  17.665  0.00  0.00    +0.000 C 
BRANCH  21  22
ATOM     22  C   UNL     1      48.880   5.860  19.116  0.00  0.00    +0.000 A 
ATOM     23  C   UNL     1      48.960   4.875  20.091  0.00  0.00    +0.000 A 
ATOM     24  S   UNL     1      48.343   5.361  21.603  0.00  0.00    +0.000 S 
ATOM     25  C   UNL     1      47.949   6.908  21.009  0.00  0.00    +0.000 A 
ATOM     26  N   UNL     1      47.323   7.821  21.795  0.00  0.00    +0.000 NA
ATOM     27  C   UNL     1      47.085   8.948  21.211  0.00  0.00    +0.000 A 
ATOM     28  N   UNL     1      47.446   9.256  19.924  0.00  0.00    +0.000 N 
ATOM     29  C   UNL     1      48.135   8.384  19.108  0.00  0.00    +0.000 A 
ATOM     30  O   UNL     1      48.541   8.725  18.004  0.00  0.00    +0.000 OA
ATOM     31  C   UNL     1      48.347   7.072  19.693  0.00  0.00    +0.000 A 
ATOM     32  H   UNL     1      47.274  10.177  19.548  0.00  0.00    +0.000 HD
ENDBRANCH  21  22
ENDBRANCH  18  21
ENDBRANCH   1  18
TORSDOF 8
ENDMDL
MODEL 8
REMARK VINA RESULT:    -6.773      2.673      3.937
REMARK INTER + INTRA:         -10.547
REMARK INTER:                  -8.951
REMARK INTRA:                  -1.596
REMARK UNBOUND:                -0.607
REMARK  Name = 
REMARK  10 active torsions:
REMARK  status: ('A' for Active; 'I' for Inactive)
REMARK    1  A    between atoms: C_1  and  C_2
REMARK    2  A    between atoms: C_2  and  N_3
REMARK    3  A    between atoms: C_2  and  C_21
REMARK    4  A    between atoms: N_3  and  C_4
REMARK    5  A    between atoms: C_4  and  C_5
REMARK    6  A    between atoms: C_8  and  C_9
REMARK    7  A    between atoms: C_9  and  N_10
REMARK    8  A    between atoms: N_10  and  C_11
REMARK    9  A    between atoms: N_10  and  C_12
REMARK   10  A    between atoms: C_12  and  C_13
REMARK                            x       y       z     vdW  Elec       q    Type
REMARK                         _______ _______ _______ _____ _____    ______ ____
ROOT
ATOM      1  C   UNL     1      49.405   7.711  17.500  0.00  0.00    +0.000 C 
ENDROOT
BRANCH   1   2
ATOM      2  C   UNL     1      48.932   7.727  16.070  0.00  0.00    +0.000 A 
ATOM      3  C   UNL     1      48.753   6.556  15.332  0.00  0.00    +0.000 A 
ATOM      4  C   UNL     1      48.210   6.621  14.051  0.00  0.00    +0.000 A 
ATOM      5  C   UNL     1      47.824   7.860  13.542  0.00  0.00    +0.000 A 
ATOM      6  N   UNL     1      48.015   9.016  14.223  0.00  0.00    +0.000 NA
ATOM      7  C   UNL     1      48.568   8.923  15.455  0.00  0.00    +0.000 A 
BRANCH   5   8
ATOM      8  C   UNL     1      47.057   7.935  12.230  0.00  0.00    +0.000 C 
BRANCH   8   9
ATOM      9  N   UNL     1      45.583   7.852  12.419  0.00  0.00    +0.000 NA
ATOM     10  C   UNL     1      44.998   9.200  12.476  0.00  0.00    +0.000 C 
BRANCH   9  11
ATOM     11  C   UNL     1      44.955   7.104  11.309  0.00  0.00    +0.000 C 
BRANCH  11  12
ATOM     12  C   UNL     1      44.432   5.739  11.703  0.00  0.00    +0.000 A 
ATOM     13  C   UNL     1      44.632   5.246  12.989  0.00  0.00    +0.000 A 
ATOM     14  N   UNL     1      44.222   4.014  13.377  0.00  0.00    +0.000 NA
ATOM     15  C   UNL     1      43.602   3.288  12.420  0.00  0.00    +0.000 A 
ATOM     16  C   UNL     1      43.392   3.771  11.140  0.00  0.00    +0.000 A 
ATOM     17  N   UNL     1      43.800   5.000  10.753  0.00  0.00    +0.000 NA
ENDBRANCH  11  12
ENDBRANCH   9  11
ENDBRANCH   8   9
ENDBRANCH   5   8
ENDBRANCH   1   2
BRANCH   1  18
ATOM     18  N   UNL     1      48.478   7.012  18.385  0.00  0.00    +0.000 NA
ATOM     19  H   UNL     1      47.858   7.694  18.817  0.00  0.00    +0.000 HD
BRANCH  18  21
ATOM     20  C   UNL     1      50.219   7.082  20.183  0.00  0.00    +0.000 C 
ATOM     21  C   UNL     1      49.142   6.260  19.465  0.00  0.00    +0.000 C 
BRANCH  21  22
ATOM     22  C   UNL     1      49.746   5.035  18.801  0.00  0.00    +0.000 A 
ATOM     23  C   UNL     1      51.092   4.701  18.883  0.00  0.00    +0.000 A 
ATOM     24  S   UNL     1      51.515   3.343  17.945  0.00  0.00    +0.000 S 
ATOM     25  C   UNL     1      49.913   3.149  17.399  0.00  0.00    +0.000 A 
ATOM     26  N   UNL     1      49.591   2.182  16.502  0.00  0.00    +0.000 NA
ATOM     27  C   UNL     1      48.342   2.156  16.177  0.00  0.00    +0.000 A 
ATOM     28  N   UNL     1      47.380   2.987  16.692  0.00  0.00    +0.000 N 
ATOM     29  C   UNL     1      47.648   3.944  17.648  0.00  0.00    +0.000 A 
ATOM     30  O   UNL     1      46.752   4.597  18.169  0.00  0.00    +0.000 OA
ATOM     31  C   UNL     1      49.056   4.068  17.980  0.00  0.00    +0.000 A 
ATOM     32  H   UNL     1      46.411   2.877  16.431  0.00  0.00    +0.000 HD
ENDBRANCH  21  22
ENDBRANCH  18  21
ENDBRANCH   1  18
TORSDOF 8
ENDMDL
MODEL 9
REMARK VINA RESULT:    -6.736      3.574      8.484
REMARK INTER + INTRA:         -10.493
REMARK INTER:                  -9.065
REMARK INTRA:                  -1.429
REMARK UNBOUND:                -0.607
REMARK  Name = 
REMARK  10 active torsions:
REMARK  status: ('A' for Active; 'I' for Inactive)
REMARK    1  A    between atoms: C_1  and  C_2
REMARK    2  A    between atoms: C_2  and  N_3
REMARK    3  A    between atoms: C_2  and  C_21
REMARK    4  A    between atoms: N_3  and  C_4
REMARK    5  A    between atoms: C_4  and  C_5
REMARK    6  A    between atoms: C_8  and  C_9
REMARK    7  A    between atoms: C_9  and  N_10
REMARK    8  A    between atoms: N_10  and  C_11
REMARK    9  A    between atoms: N_10  and  C_12
REMARK   10  A    between atoms: C_12  and  C_13
REMARK                            x       y       z     vdW  Elec       q    Type
REMARK                         _______ _______ _______ _____ _____    ______ ____
ROOT
ATOM      1  C   UNL     1      48.601   8.151  14.637  0.00  0.00    +0.000 C 
ENDROOT
BRANCH   1   2
ATOM      2  C   UNL     1      49.016   7.949  16.071  0.00  0.00    +0.000 A 
ATOM      3  C   UNL     1      48.308   8.507  17.137  0.00  0.00    +0.000 A 
ATOM      4  C   UNL     1      48.672   8.200  18.446  0.00  0.00    +0.000 A 
ATOM      5  C   UNL     1      49.723   7.310  18.665  0.00  0.00    +0.000 A 
ATOM      6  N   UNL     1      50.448   6.779  17.650  0.00  0.00    +0.000 NA
ATOM      7  C   UNL     1      50.086   7.116  16.390  0.00  0.00    +0.000 A 
BRANCH   5   8
ATOM      8  C   UNL     1      50.014   6.813  20.072  0.00  0.00    +0.000 C 
BRANCH   8   9
ATOM      9  N   UNL     1      50.174   5.334  20.140  0.00  0.00    +0.000 NA
ATOM     10  C   UNL     1      50.847   4.949  21.389  0.00  0.00    +0.000 C 
BRANCH   9  11
ATOM     11  C   UNL     1      48.859   4.662  20.076  0.00  0.00    +0.000 C 
BRANCH  11  12
ATOM     12  C   UNL     1      48.493   4.151  18.699  0.00  0.00    +0.000 A 
ATOM     13  C   UNL     1      49.301   3.224  18.048  0.00  0.00    +0.000 A 
ATOM     14  N   UNL     1      49.040   2.770  16.798  0.00  0.00    +0.000 NA
ATOM     15  C   UNL     1      47.932   3.285  16.220  0.00  0.00    +0.000 A 
ATOM     16  C   UNL     1      47.117   4.201  16.861  0.00  0.00    +0.000 A 
ATOM     17  N   UNL     1      47.377   4.655  18.108  0.00  0.00    +0.000 NA
ENDBRANCH  11  12
ENDBRANCH   9  11
ENDBRANCH   8   9
ENDBRANCH   5   8
ENDBRANCH   1   2
BRANCH   1  18
ATOM     18  N   UNL     1      47.301   7.553  14.346  0.00  0.00    +0.000 NA
ATOM     19  H   UNL     1      46.824   7.358  15.224  0.00  0.00    +0.000 HD
BRANCH  18  21
ATOM     20  C   UNL     1      48.637   6.210  12.709  0.00  0.00    +0.000 C 
ATOM     21  C   UNL     1      47.385   6.290  13.590  0.00  0.00    +0.000 C 
BRANCH  21  22
ATOM     22  C   UNL     1      46.122   6.230  12.748  0.00  0.00    +0.000 A 
ATOM     23  C   UNL     1      45.538   7.344  12.160  0.00  0.00    +0.000 A 
ATOM     24  S   UNL     1      44.065   7.004  11.372  0.00  0.00    +0.000 S 
ATOM     25  C   UNL     1      44.159   5.354  11.786  0.00  0.00    +0.000 A 
ATOM     26  N   UNL     1      43.162   4.492  11.458  0.00  0.00    +0.000 NA
ATOM     27  C   UNL     1      43.369   3.275  11.838  0.00  0.00    +0.000 A 
ATOM     28  N   UNL     1      44.495   2.836  12.486  0.00  0.00    +0.000 N 
ATOM     29  C   UNL     1      45.557   3.661  12.788  0.00  0.00    +0.000 A 
ATOM     30  O   UNL     1      46.595   3.219  13.267  0.00  0.00    +0.000 OA
ATOM     31  C   UNL     1      45.333   5.056  12.457  0.00  0.00    +0.000 A 
ATOM     32  H   UNL     1      44.612   1.858  12.708  0.00  0.00    +0.000 HD
ENDBRANCH  21  22
ENDBRANCH  18  21
ENDBRANCH   1  18
TORSDOF 8
ENDMDL
