MODEL 1
REMARK VINA RESULT:    -7.485      0.000      0.000
REMARK INTER + INTRA:         -12.869
REMARK INTER:                 -11.642
REMARK INTRA:                  -1.228
REMARK UNBOUND:                -1.228
REMARK  Name = 
REMARK  11 active torsions:
REMARK  status: ('A' for Active; 'I' for Inactive)
REMARK    1  A    between atoms: C_1  and  C_2
REMARK    2  A    between atoms: C_2  and  N_3
REMARK    3  A    between atoms: C_2  and  C_14
REMARK    4  A    between atoms: N_3  and  CA_4
REMARK    5  A    between atoms: CA_4  and  C_5
REMARK    6  A    between atoms: CA_4  and  C_7
REMARK    7  A    between atoms: C_5  and  O_6
REMARK    8  A    between atoms: C_17  and  C_18
REMARK    9  A    between atoms: C_18  and  O_19
REMARK   10  A    between atoms: O_19  and  C_20
REMARK   11  A    between atoms: C_20  and  C_21
REMARK                            x       y       z     vdW  Elec       q    Type
REMARK                         _______ _______ _______ _____ _____    ______ ____
ROOT
ATOM      1  C   UNL     1      44.033   6.881  11.414  0.00  0.00    +0.000 C 
ATOM      2  C   UNL     1      45.368   6.112  11.355  0.00  0.00    +0.000 C 
ENDROOT
BRANCH   2   3
ATOM      3  C   UNL     1      46.365   6.642  12.417  0.00  0.00    +0.000 A 
ATOM      4  C   UNL     1      46.429   8.007  12.753  0.00  0.00    +0.000 A 
ATOM      5  C   UNL     1      47.316   8.476  13.737  0.00  0.00    +0.000 A 
ATOM      6  C   UNL     1      48.146   7.589  14.437  0.00  0.00    +0.000 A 
ATOM      7  C   UNL     1      48.096   6.233  14.113  0.00  0.00    +0.000 A 
ATOM      8  C   UNL     1      47.214   5.774  13.130  0.00  0.00    +0.000 A 
BRANCH   6   9
ATOM      9  C   UNL     1      49.021   8.044  15.575  0.00  0.00    +0.000 C 
BRANCH   9  10
ATOM     10  O   UNL     1      48.596   7.466  16.808  0.00  0.00    +0.000 OA
BRANCH  10  11
ATOM     11  C   UNL     1      49.590   6.620  17.401  0.00  0.00    +0.000 C 
BRANCH  11  12
ATOM     12  C   UNL     1      49.147   5.190  17.278  0.00  0.00    +0.000 A 
ATOM     13  C   UNL     1      47.805   4.852  17.411  0.00  0.00    +0.000 A 
ATOM     14  C   UNL     1      47.439   3.519  17.300  0.00  0.00    +0.000 A 
ATOM     15  C   UNL     1      48.434   2.597  17.046  0.00  0.00    +0.000 A 
ATOM     16  N   UNL     1      49.729   2.941  16.899  0.00  0.00    +0.000 NA
ATOM     17  N   UNL     1      50.089   4.255  17.015  0.00  0.00    +0.000 NA
ENDBRANCH  11  12
ENDBRANCH  10  11
ENDBRANCH   9  10
ENDBRANCH   6   9
ENDBRANCH   2   3
BRANCH   2  18
ATOM     18  N   UNL     1      45.220   4.641  11.461  0.00  0.00    +0.000 NA
ATOM     19  H   UNL     1      44.826   4.444  12.383  0.00  0.00    +0.000 HD
BRANCH  18  20
ATOM     20  CA  UNL     1      44.367   3.966  10.460  0.00  0.00    +0.000 C 
BRANCH  20  21
ATOM     21  C   UNL     1      45.073   3.437   9.212  0.00  0.00    +0.000 A 
ATOM     22  C   UNL     1      45.692   4.273   8.269  0.00  0.00    +0.000 A 
ATOM     23  C   UNL     1      46.558   3.746   7.302  0.00  0.00    +0.000 A 
ATOM     24  C   UNL     1      46.797   2.374   7.247  0.00  0.00    +0.000 A 
ATOM     25  C   UNL     1      46.131   1.534   8.127  0.00  0.00    +0.000 A 
ATOM     26  F   UNL     1      46.352   0.214   8.077  0.00  0.00    +0.000 F 
ATOM     27  C   UNL     1      45.273   2.048   9.096  0.00  0.00    +0.000 A 
ENDBRANCH  20  21
BRANCH  20  28
ATOM     28  C   UNL     1      43.610   2.775  11.134  0.00  0.00    +0.000 C 
BRANCH  28  29
ATOM     29  O   UNL     1      43.989   2.527  12.487  0.00  0.00    +0.000 OA
ATOM     30  H   UNL     1      43.338   2.972  13.056  0.00  0.00    +0.000 HD
ENDBRANCH  28  29
ENDBRANCH  20  28
ENDBRANCH  18  20
ENDBRANCH   2  18
TORSDOF 10
ENDMDL
MODEL 2
REMARK VINA RESULT:    -7.414      2.822      8.342
REMARK INTER + INTRA:         -12.759
REMARK INTER:                 -11.318
REMARK INTRA:                  -1.441
REMARK UNBOUND:                -1.228
REMARK  Name = 
REMARK  11 active torsions:
REMARK  status: ('A' for Active; 'I' for Inactive)
REMARK    1  A    between atoms: C_1  and  C_2
REMARK    2  A    between atoms: C_2  and  N_3
REMARK    3  A    between atoms: C_2  and  C_14
REMARK    4  A    between atoms: N_3  and  CA_4
REMARK    5  A    between atoms: CA_4  and  C_5
REMARK    6  A    between atoms: CA_4  and  C_7
REMARK    7  A    between atoms: C_5  and  O_6
REMARK    8  A    between atoms: C_17  and  C_18
REMARK    9  A    between atoms: C_18  and  O_19
REMARK   10  A    between atoms: O_19  and  C_20
REMARK   11  A    between atoms: C_20  and  C_21
REMARK                            x       y       z     vdW  Elec       q    Type
REMARK                         _______ _______ _______ _____ _____    ______ ____
ROOT
ATOM      1  C   UNL     1      49.113   7.866  11.860  0.00  0.00    +0.000 C 
ATOM      2  C   UNL     1      48.277   7.323  13.037  0.00  0.00    +0.000 C 
ENDROOT
BRANCH   2   3
ATOM      3  C   UNL     1      47.036   6.547  12.528  0.00  0.00    +0.000 A 
ATOM      4  C   UNL     1      46.658   6.565  11.173  0.00  0.00    +0.000 A 
ATOM      5  C   UNL     1      45.548   5.836  10.713  0.00  0.00    +0.000 A 
ATOM      6  C   UNL     1      44.797   5.042  11.592  0.00  0.00    +0.000 A 
ATOM      7  C   UNL     1      45.158   5.017  12.940  0.00  0.00    +0.000 A 
ATOM      8  C   UNL     1      46.261   5.747  13.390  0.00  0.00    +0.000 A 
BRANCH   6   9
ATOM      9  C   UNL     1      43.676   4.160  11.111  0.00  0.00    +0.000 C 
BRANCH   9  10
ATOM     10  O   UNL     1      43.910   3.720   9.775  0.00  0.00    +0.000 OA
BRANCH  10  11
ATOM     11  C   UNL     1      44.519   2.424   9.711  0.00  0.00    +0.000 C 
BRANCH  11  12
ATOM     12  C   UNL     1      45.507   2.407   8.578  0.00  0.00    +0.000 A 
ATOM     13  C   UNL     1      45.724   3.548   7.813  0.00  0.00    +0.000 A 
ATOM     14  C   UNL     1      46.638   3.488   6.772  0.00  0.00    +0.000 A 
ATOM     15  C   UNL     1      47.296   2.294   6.561  0.00  0.00    +0.000 A 
ATOM     16  N   UNL     1      47.090   1.202   7.323  0.00  0.00    +0.000 NA
ATOM     17  N   UNL     1      46.185   1.260   8.345  0.00  0.00    +0.000 NA
ENDBRANCH  11  12
ENDBRANCH  10  11
ENDBRANCH   9  10
ENDBRANCH   6   9
ENDBRANCH   2   3
BRANCH   2  18
ATOM     18  N   UNL     1      49.052   6.502  13.998  0.00  0.00    +0.000 NA
ATOM     19  H   UNL     1      49.947   6.286  13.555  0.00  0.00    +0.000 HD
BRANCH  18  20
ATOM     20  CA  UNL     1      49.343   7.094  15.321  0.00  0.00    +0.000 C 
BRANCH  20  21
ATOM     21  C   UNL     1      48.760   6.367  16.533  0.00  0.00    +0.000 A 
ATOM     22  C   UNL     1      48.584   6.981  17.784  0.00  0.00    +0.000 A 
ATOM     23  C   UNL     1      47.799   6.377  18.775  0.00  0.00    +0.000 A 
ATOM     24  C   UNL     1      47.201   5.140  18.540  0.00  0.00    +0.000 A 
ATOM     25  C   UNL     1      47.431   4.493  17.335  0.00  0.00    +0.000 A 
ATOM     26  F   UNL     1      46.864   3.302  17.105  0.00  0.00    +0.000 F 
ATOM     27  C   UNL     1      48.205   5.087  16.341  0.00  0.00    +0.000 A 
ENDBRANCH  20  21
BRANCH  20  28
ATOM     28  C   UNL     1      50.891   7.204  15.517  0.00  0.00    +0.000 C 
BRANCH  28  29
ATOM     29  O   UNL     1      51.608   7.570  14.339  0.00  0.00    +0.000 OA
ATOM     30  H   UNL     1      51.342   6.954  13.635  0.00  0.00    +0.000 HD
ENDBRANCH  28  29
ENDBRANCH  20  28
ENDBRANCH  18  20
ENDBRANCH   2  18
TORSDOF 10
ENDMDL
MODEL 3
REMARK VINA RESULT:    -6.994      3.123      5.966
REMARK INTER + INTRA:         -12.105
REMARK INTER:                 -11.004
REMARK INTRA:                  -1.101
REMARK UNBOUND:                -1.228
REMARK  Name = 
REMARK  11 active torsions:
REMARK  status: ('A' for Active; 'I' for Inactive)
REMARK    1  A    between atoms: C_1  and  C_2
REMARK    2  A    between atoms: C_2  and  N_3
REMARK    3  A    between atoms: C_2  and  C_14
REMARK    4  A    between atoms: N_3  and  CA_4
REMARK    5  A    between atoms: CA_4  and  C_5
REMARK    6  A    between atoms: CA_4  and  C_7
REMARK    7  A    between atoms: C_5  and  O_6
REMARK    8  A    between atoms: C_17  and  C_18
REMARK    9  A    between atoms: C_18  and  O_19
REMARK   10  A    between atoms: O_19  and  C_20
REMARK   11  A    between atoms: C_20  and  C_21
REMARK                            x       y       z     vdW  Elec       q    Type
REMARK                         _______ _______ _______ _____ _____    ______ ____
ROOT
ATOM      1  C   UNL     1      46.668   4.232  14.414  0.00  0.00    +0.000 C 
ATOM      2  C   UNL     1      45.682   4.773  13.359  0.00  0.00    +0.000 C 
ENDROOT
BRANCH   2   3
ATOM      3  C   UNL     1      46.092   6.191  12.887  0.00  0.00    +0.000 A 
ATOM      4  C   UNL     1      45.185   7.266  12.903  0.00  0.00    +0.000 A 
ATOM      5  C   UNL     1      45.572   8.556  12.500  0.00  0.00    +0.000 A 
ATOM      6  C   UNL     1      46.889   8.816  12.097  0.00  0.00    +0.000 A 
ATOM      7  C   UNL     1      47.800   7.760  12.073  0.00  0.00    +0.000 A 
ATOM      8  C   UNL     1      47.407   6.479  12.471  0.00  0.00    +0.000 A 
BRANCH   6   9
ATOM      9  C   UNL     1      47.364  10.208  11.771  0.00  0.00    +0.000 C 
BRANCH   9  10
ATOM     10  O   UNL     1      46.353  11.172  12.061  0.00  0.00    +0.000 OA
BRANCH  10  11
ATOM     11  C   UNL     1      45.873  11.847  10.891  0.00  0.00    +0.000 C 
BRANCH  11  12
ATOM     12  C   UNL     1      44.447  11.440  10.647  0.00  0.00    +0.000 A 
ATOM     13  C   UNL     1      44.022  11.082   9.373  0.00  0.00    +0.000 A 
ATOM     14  C   UNL     1      42.696  10.721   9.189  0.00  0.00    +0.000 A 
ATOM     15  C   UNL     1      41.869  10.723  10.293  0.00  0.00    +0.000 A 
ATOM     16  N   UNL     1      42.299  11.053  11.527  0.00  0.00    +0.000 NA
ATOM     17  N   UNL     1      43.605  11.414  11.707  0.00  0.00    +0.000 NA
ENDBRANCH  11  12
ENDBRANCH  10  11
ENDBRANCH   9  10
ENDBRANCH   6   9
ENDBRANCH   2   3
BRANCH   2  18
ATOM     18  N   UNL     1      45.485   3.870  12.200  0.00  0.00    +0.000 NA
ATOM     19  H   UNL     1      44.947   3.068  12.532  0.00  0.00    +0.000 HD
BRANCH  18  20
ATOM     20  CA  UNL     1      44.784   4.418  11.019  0.00  0.00    +0.000 C 
BRANCH  20  21
ATOM     21  C   UNL     1      45.195   3.849   9.661  0.00  0.00    +0.000 A 
ATOM     22  C   UNL     1      45.738   4.637   8.633  0.00  0.00    +0.000 A 
ATOM     23  C   UNL     1      46.354   4.044   7.524  0.00  0.00    +0.000 A 
ATOM     24  C   UNL     1      46.413   2.655   7.413  0.00  0.00    +0.000 A 
ATOM     25  C   UNL     1      45.813   1.871   8.387  0.00  0.00    +0.000 A 
ATOM     26  F   UNL     1      45.862   0.537   8.285  0.00  0.00    +0.000 F 
ATOM     27  C   UNL     1      45.203   2.451   9.497  0.00  0.00    +0.000 A 
ENDBRANCH  20  21
BRANCH  20  28
ATOM     28  C   UNL     1      43.242   4.216  11.186  0.00  0.00    +0.000 C 
BRANCH  28  29
ATOM     29  O   UNL     1      42.853   2.880  11.496  0.00  0.00    +0.000 OA
ATOM     30  H   UNL     1      42.230   2.592  10.807  0.00  0.00    +0.000 HD
ENDBRANCH  28  29
ENDBRANCH  20  28
ENDBRANCH  18  20
ENDBRANCH   2  18
TORSDOF 10
ENDMDL
MODEL 4
REMARK VINA RESULT:    -6.822      1.452      2.031
REMARK INTER + INTRA:         -11.838
REMARK INTER:                 -10.562
REMARK INTRA:                  -1.276
REMARK UNBOUND:                -1.228
REMARK  Name = 
REMARK  11 active torsions:
REMARK  status: ('A' for Active; 'I' for Inactive)
REMARK    1  A    between atoms: C_1  and  C_2
REMARK    2  A    between atoms: C_2  and  N_3
REMARK    3  A    between atoms: C_2  and  C_14
REMARK    4  A    between atoms: N_3  and  CA_4
REMARK    5  A    between atoms: CA_4  and  C_5
REMARK    6  A    between atoms: CA_4  and  C_7
REMARK    7  A    between atoms: C_5  and  O_6
REMARK    8  A    between atoms: C_17  and  C_18
REMARK    9  A    between atoms: C_18  and  O_19
REMARK   10  A    between atoms: O_19  and  C_20
REMARK   11  A    between atoms: C_20  and  C_21
REMARK                            x       y       z     vdW  Elec       q    Type
REMARK                         _______ _______ _______ _____ _____    ______ ____
ROOT
ATOM      1  C   UNL     1      44.961   8.477  11.723  0.00  0.00    +0.000 C 
ATOM      2  C   UNL     1      45.818   7.205  11.882  0.00  0.00    +0.000 C 
ENDROOT
BRANCH   2   3
ATOM      3  C   UNL     1      46.820   7.350  13.055  0.00  0.00    +0.000 A 
ATOM      4  C   UNL     1      47.609   6.270  13.490  0.00  0.00    +0.000 A 
ATOM      5  C   UNL     1      48.536   6.416  14.536  0.00  0.00    +0.000 A 
ATOM      6  C   UNL     1      48.725   7.658  15.159  0.00  0.00    +0.000 A 
ATOM      7  C   UNL     1      47.948   8.738  14.740  0.00  0.00    +0.000 A 
ATOM      8  C   UNL     1      47.025   8.585  13.702  0.00  0.00    +0.000 A 
BRANCH   6   9
ATOM      9  C   UNL     1      49.791   7.875  16.200  0.00  0.00    +0.000 C 
BRANCH   9  10
ATOM     10  O   UNL     1      49.304   7.559  17.503  0.00  0.00    +0.000 OA
BRANCH  10  11
ATOM     11  C   UNL     1      49.980   6.443  18.098  0.00  0.00    +0.000 C 
BRANCH  11  12
ATOM     12  C   UNL     1      49.292   5.176  17.673  0.00  0.00    +0.000 A 
ATOM     13  C   UNL     1      47.920   5.026  17.844  0.00  0.00    +0.000 A 
ATOM     14  C   UNL     1      47.325   3.838  17.447  0.00  0.00    +0.000 A 
ATOM     15  C   UNL     1      48.132   2.870  16.887  0.00  0.00    +0.000 A 
ATOM     16  N   UNL     1      49.457   3.037  16.708  0.00  0.00    +0.000 NA
ATOM     17  N   UNL     1      50.044   4.206  17.105  0.00  0.00    +0.000 NA
ENDBRANCH  11  12
ENDBRANCH  10  11
ENDBRANCH   9  10
ENDBRANCH   6   9
ENDBRANCH   2   3
BRANCH   2  18
ATOM     18  N   UNL     1      45.026   5.959  12.019  0.00  0.00    +0.000 NA
ATOM     19  H   UNL     1      44.385   6.095  12.803  0.00  0.00    +0.000 HD
BRANCH  18  20
ATOM     20  CA  UNL     1      44.221   5.531  10.856  0.00  0.00    +0.000 C 
BRANCH  20  21
ATOM     21  C   UNL     1      44.799   4.398  10.009  0.00  0.00    +0.000 A 
ATOM     22  C   UNL     1      44.420   3.054  10.164  0.00  0.00    +0.000 A 
ATOM     23  C   UNL     1      44.756   2.098   9.197  0.00  0.00    +0.000 A 
ATOM     24  C   UNL     1      45.498   2.465   8.075  0.00  0.00    +0.000 A 
ATOM     25  C   UNL     1      45.940   3.773   7.953  0.00  0.00    +0.000 A 
ATOM     26  F   UNL     1      46.657   4.132   6.880  0.00  0.00    +0.000 F 
ATOM     27  C   UNL     1      45.606   4.733   8.905  0.00  0.00    +0.000 A 
ENDBRANCH  20  21
BRANCH  20  28
ATOM     28  C   UNL     1      42.795   5.103  11.335  0.00  0.00    +0.000 C 
BRANCH  28  29
ATOM     29  O   UNL     1      41.953   6.187  11.720  0.00  0.00    +0.000 OA
ATOM     30  H   UNL     1      42.524   6.962  11.859  0.00  0.00    +0.000 HD
ENDBRANCH  28  29
ENDBRANCH  20  28
ENDBRANCH  18  20
ENDBRANCH   2  18
TORSDOF 10
ENDMDL
MODEL 5
REMARK VINA RESULT:    -6.677      2.642      3.556
REMARK INTER + INTRA:         -11.612
REMARK INTER:                 -10.557
REMARK INTRA:                  -1.055
REMARK UNBOUND:                -1.228
REMARK  Name = 
REMARK  11 active torsions:
REMARK  status: ('A' for Active; 'I' for Inactive)
REMARK    1  A    between atoms: C_1  and  C_2
REMARK    2  A    between atoms: C_2  and  N_3
REMARK    3  A    between atoms: C_2  and  C_14
REMARK    4  A    between atoms: N_3  and  CA_4
REMARK    5  A    between atoms: CA_4  and  C_5
REMARK    6  A    between atoms: CA_4  and  C_7
REMARK    7  A    between atoms: C_5  and  O_6
REMARK    8  A    between atoms: C_17  and  C_18
REMARK    9  A    between atoms: C_18  and  O_19
REMARK   10  A    between atoms: O_19  and  C_20
REMARK   11  A    between atoms: C_20  and  C_21
REMARK                            x       y       z     vdW  Elec       q    Type
REMARK                         _______ _______ _______ _____ _____    ______ ____
ROOT
ATOM      1  C   UNL     1      47.758   7.198  11.902  0.00  0.00    +0.000 C 
ATOM      2  C   UNL     1      46.885   6.045  12.438  0.00  0.00    +0.000 C 
ENDROOT
BRANCH   2   3
ATOM      3  C   UNL     1      47.332   5.621  13.860  0.00  0.00    +0.000 A 
ATOM      4  C   UNL     1      48.136   6.453  14.660  0.00  0.00    +0.000 A 
ATOM      5  C   UNL     1      48.514   6.074  15.960  0.00  0.00    +0.000 A 
ATOM      6  C   UNL     1      48.073   4.862  16.511  0.00  0.00    +0.000 A 
ATOM      7  C   UNL     1      47.277   4.025  15.728  0.00  0.00    +0.000 A 
ATOM      8  C   UNL     1      46.908   4.407  14.435  0.00  0.00    +0.000 A 
BRANCH   6   9
ATOM      9  C   UNL     1      48.363   4.482  17.939  0.00  0.00    +0.000 C 
BRANCH   9  10
ATOM     10  O   UNL     1      49.375   3.480  18.004  0.00  0.00    +0.000 OA
BRANCH  10  11
ATOM     11  C   UNL     1      50.702   4.018  17.928  0.00  0.00    +0.000 C 
BRANCH  11  12
ATOM     12  C   UNL     1      51.676   2.886  17.767  0.00  0.00    +0.000 A 
ATOM     13  C   UNL     1      53.029   3.074  18.030  0.00  0.00    +0.000 A 
ATOM     14  C   UNL     1      53.896   2.006  17.861  0.00  0.00    +0.000 A 
ATOM     15  C   UNL     1      53.362   0.801  17.452  0.00  0.00    +0.000 A 
ATOM     16  N   UNL     1      52.046   0.627  17.220  0.00  0.00    +0.000 NA
ATOM     17  N   UNL     1      51.192   1.682  17.382  0.00  0.00    +0.000 NA
ENDBRANCH  11  12
ENDBRANCH  10  11
ENDBRANCH   9  10
ENDBRANCH   6   9
ENDBRANCH   2   3
BRANCH   2  18
ATOM     18  N   UNL     1      45.430   6.327  12.406  0.00  0.00    +0.000 NA
ATOM     19  H   UNL     1      45.307   7.302  12.684  0.00  0.00    +0.000 HD
BRANCH  18  20
ATOM     20  CA  UNL     1      44.726   6.139  11.120  0.00  0.00    +0.000 C 
BRANCH  20  21
ATOM     21  C   UNL     1      44.982   4.819  10.392  0.00  0.00    +0.000 A 
ATOM     22  C   UNL     1      44.550   3.576  10.883  0.00  0.00    +0.000 A 
ATOM     23  C   UNL     1      44.555   2.440  10.063  0.00  0.00    +0.000 A 
ATOM     24  C   UNL     1      45.018   2.524   8.751  0.00  0.00    +0.000 A 
ATOM     25  C   UNL     1      45.516   3.730   8.283  0.00  0.00    +0.000 A 
ATOM     26  F   UNL     1      45.967   3.817   7.025  0.00  0.00    +0.000 F 
ATOM     27  C   UNL     1      45.510   4.867   9.087  0.00  0.00    +0.000 A 
ENDBRANCH  20  21
BRANCH  20  28
ATOM     28  C   UNL     1      43.184   6.283  11.340  0.00  0.00    +0.000 C 
BRANCH  28  29
ATOM     29  O   UNL     1      42.650   7.548  10.954  0.00  0.00    +0.000 OA
ATOM     30  H   UNL     1      43.032   7.771  10.088  0.00  0.00    +0.000 HD
ENDBRANCH  28  29
ENDBRANCH  20  28
ENDBRANCH  18  20
ENDBRANCH   2  18
TORSDOF 10
ENDMDL
MODEL 6
REMARK VINA RESULT:    -6.600      2.865      8.506
REMARK INTER + INTRA:         -11.493
REMARK INTER:                 -10.061
REMARK INTRA:                  -1.432
REMARK UNBOUND:                -1.228
REMARK  Name = 
REMARK  11 active torsions:
REMARK  status: ('A' for Active; 'I' for Inactive)
REMARK    1  A    between atoms: C_1  and  C_2
REMARK    2  A    between atoms: C_2  and  N_3
REMARK    3  A    between atoms: C_2  and  C_14
REMARK    4  A    between atoms: N_3  and  CA_4
REMARK    5  A    between atoms: CA_4  and  C_5
REMARK    6  A    between atoms: CA_4  and  C_7
REMARK    7  A    between atoms: C_5  and  O_6
REMARK    8  A    between atoms: C_17  and  C_18
REMARK    9  A    between atoms: C_18  and  O_19
REMARK   10  A    between atoms: O_19  and  C_20
REMARK   11  A    between atoms: C_20  and  C_21
REMARK                            x       y       z     vdW  Elec       q    Type
REMARK                         _______ _______ _______ _____ _____    ______ ____
ROOT
ATOM      1  C   UNL     1      50.178   8.666  12.721  0.00  0.00    +0.000 C 
ATOM      2  C   UNL     1      49.517   7.842  13.844  0.00  0.00    +0.000 C 
ENDROOT
BRANCH   2   3
ATOM      3  C   UNL     1      48.311   7.031  13.305  0.00  0.00    +0.000 A 
ATOM      4  C   UNL     1      47.809   7.229  12.006  0.00  0.00    +0.000 A 
ATOM      5  C   UNL     1      46.733   6.470  11.514  0.00  0.00    +0.000 A 
ATOM      6  C   UNL     1      46.145   5.467  12.298  0.00  0.00    +0.000 A 
ATOM      7  C   UNL     1      46.630   5.261  13.590  0.00  0.00    +0.000 A 
ATOM      8  C   UNL     1      47.698   6.022  14.074  0.00  0.00    +0.000 A 
BRANCH   6   9
ATOM      9  C   UNL     1      45.070   4.561  11.759  0.00  0.00    +0.000 C 
BRANCH   9  10
ATOM     10  O   UNL     1      44.397   5.166  10.657  0.00  0.00    +0.000 OA
BRANCH  10  11
ATOM     11  C   UNL     1      43.852   4.209   9.739  0.00  0.00    +0.000 C 
BRANCH  11  12
ATOM     12  C   UNL     1      44.957   3.699   8.858  0.00  0.00    +0.000 A 
ATOM     13  C   UNL     1      45.256   2.342   8.813  0.00  0.00    +0.000 A 
ATOM     14  C   UNL     1      46.288   1.913   7.992  0.00  0.00    +0.000 A 
ATOM     15  C   UNL     1      46.957   2.864   7.250  0.00  0.00    +0.000 A 
ATOM     16  N   UNL     1      46.644   4.174   7.288  0.00  0.00    +0.000 NA
ATOM     17  N   UNL     1      45.630   4.596   8.101  0.00  0.00    +0.000 NA
ENDBRANCH  11  12
ENDBRANCH  10  11
ENDBRANCH   9  10
ENDBRANCH   6   9
ENDBRANCH   2   3
BRANCH   2  18
ATOM     18  N   UNL     1      50.456   6.961  14.578  0.00  0.00    +0.000 NA
ATOM     19  H   UNL     1      51.339   6.969  14.065  0.00  0.00    +0.000 HD
BRANCH  18  20
ATOM     20  CA  UNL     1      50.757   7.305  15.984  0.00  0.00    +0.000 C 
BRANCH  20  21
ATOM     21  C   UNL     1      49.802   6.746  17.039  0.00  0.00    +0.000 A 
ATOM     22  C   UNL     1      48.999   7.560  17.855  0.00  0.00    +0.000 A 
ATOM     23  C   UNL     1      47.948   7.013  18.601  0.00  0.00    +0.000 A 
ATOM     24  C   UNL     1      47.700   5.641  18.564  0.00  0.00    +0.000 A 
ATOM     25  C   UNL     1      48.535   4.822  17.820  0.00  0.00    +0.000 A 
ATOM     26  F   UNL     1      48.307   3.503  17.784  0.00  0.00    +0.000 F 
ATOM     27  C   UNL     1      49.580   5.356  17.070  0.00  0.00    +0.000 A 
ENDBRANCH  20  21
BRANCH  20  28
ATOM     28  C   UNL     1      52.206   6.836  16.340  0.00  0.00    +0.000 C 
BRANCH  28  29
ATOM     29  O   UNL     1      53.117   6.858  15.244  0.00  0.00    +0.000 OA
ATOM     30  H   UNL     1      52.619   6.605  14.447  0.00  0.00    +0.000 HD
ENDBRANCH  28  29
ENDBRANCH  20  28
ENDBRANCH  18  20
ENDBRANCH   2  18
TORSDOF 10
ENDMDL
MODEL 7
REMARK VINA RESULT:    -6.520      2.755      3.747
REMARK INTER + INTRA:         -11.369
REMARK INTER:                 -10.372
REMARK INTRA:                  -0.997
REMARK UNBOUND:                -1.228
REMARK  Name = 
REMARK  11 active torsions:
REMARK  status: ('A' for Active; 'I' for Inactive)
REMARK    1  A    between atoms: C_1  and  C_2
REMARK    2  A    between atoms: C_2  and  N_3
REMARK    3  A    between atoms: C_2  and  C_14
REMARK    4  A    between atoms: N_3  and  CA_4
REMARK    5  A    between atoms: CA_4  and  C_5
REMARK    6  A    between atoms: CA_4  and  C_7
REMARK    7  A    between atoms: C_5  and  O_6
REMARK    8  A    between atoms: C_17  and  C_18
REMARK    9  A    between atoms: C_18  and  O_19
REMARK   10  A    between atoms: O_19  and  C_20
REMARK   11  A    between atoms: C_20  and  C_21
REMARK                            x       y       z     vdW  Elec       q    Type
REMARK                         _______ _______ _______ _____ _____    ______ ____
ROOT
ATOM      1  C   UNL     1      47.183   7.129  11.772  0.00  0.00    +0.000 C 
ATOM      2  C   UNL     1      46.470   5.933  12.434  0.00  0.00    +0.000 C 
ENDROOT
BRANCH   2   3
ATOM      3  C   UNL     1      47.111   5.589  13.803  0.00  0.00    +0.000 A 
ATOM      4  C   UNL     1      48.052   6.439  14.412  0.00  0.00    +0.000 A 
ATOM      5  C   UNL     1      48.608   6.135  15.666  0.00  0.00    +0.000 A 
ATOM      6  C   UNL     1      48.217   4.983  16.364  0.00  0.00    +0.000 A 
ATOM      7  C   UNL     1      47.288   4.128  15.771  0.00  0.00    +0.000 A 
ATOM      8  C   UNL     1      46.741   4.435  14.522  0.00  0.00    +0.000 A 
BRANCH   6   9
ATOM      9  C   UNL     1      48.706   4.690  17.758  0.00  0.00    +0.000 C 
BRANCH   9  10
ATOM     10  O   UNL     1      47.703   4.994  18.725  0.00  0.00    +0.000 OA
BRANCH  10  11
ATOM     11  C   UNL     1      48.245   5.495  19.954  0.00  0.00    +0.000 C 
BRANCH  11  12
ATOM     12  C   UNL     1      47.801   6.919  20.135  0.00  0.00    +0.000 A 
ATOM     13  C   UNL     1      47.618   7.446  21.409  0.00  0.00    +0.000 A 
ATOM     14  C   UNL     1      47.200   8.762  21.532  0.00  0.00    +0.000 A 
ATOM     15  C   UNL     1      47.000   9.486  20.374  0.00  0.00    +0.000 A 
ATOM     16  N   UNL     1      47.201   8.969  19.146  0.00  0.00    +0.000 NA
ATOM     17  N   UNL     1      47.608   7.670  19.025  0.00  0.00    +0.000 NA
ENDBRANCH  11  12
ENDBRANCH  10  11
ENDBRANCH   9  10
ENDBRANCH   6   9
ENDBRANCH   2   3
BRANCH   2  18
ATOM     18  N   UNL     1      45.004   6.106  12.570  0.00  0.00    +0.000 NA
ATOM     19  H   UNL     1      44.837   7.087  12.801  0.00  0.00    +0.000 HD
BRANCH  18  20
ATOM     20  CA  UNL     1      44.166   5.776  11.397  0.00  0.00    +0.000 C 
BRANCH  20  21
ATOM     21  C   UNL     1      44.646   4.617  10.524  0.00  0.00    +0.000 A 
ATOM     22  C   UNL     1      44.245   3.287  10.727  0.00  0.00    +0.000 A 
ATOM     23  C   UNL     1      44.478   2.310   9.751  0.00  0.00    +0.000 A 
ATOM     24  C   UNL     1      45.140   2.643   8.569  0.00  0.00    +0.000 A 
ATOM     25  C   UNL     1      45.605   3.937   8.394  0.00  0.00    +0.000 A 
ATOM     26  F   UNL     1      46.245   4.263   7.264  0.00  0.00    +0.000 F 
ATOM     27  C   UNL     1      45.373   4.917   9.356  0.00  0.00    +0.000 A 
ENDBRANCH  20  21
BRANCH  20  28
ATOM     28  C   UNL     1      42.708   5.461  11.867  0.00  0.00    +0.000 C 
BRANCH  28  29
ATOM     29  O   UNL     1      42.537   5.442  13.283  0.00  0.00    +0.000 OA
ATOM     30  H   UNL     1      42.773   6.325  13.615  0.00  0.00    +0.000 HD
ENDBRANCH  28  29
ENDBRANCH  20  28
ENDBRANCH  18  20
ENDBRANCH   2  18
TORSDOF 10
ENDMDL
MODEL 8
REMARK VINA RESULT:    -6.471      2.346      3.326
REMARK INTER + INTRA:         -11.292
REMARK INTER:                  -9.945
REMARK INTRA:                  -1.347
REMARK UNBOUND:                -1.228
REMARK  Name = 
REMARK  11 active torsions:
REMARK  status: ('A' for Active; 'I' for Inactive)
REMARK    1  A    between atoms: C_1  and  C_2
REMARK    2  A    between atoms: C_2  and  N_3
REMARK    3  A    between atoms: C_2  and  C_14
REMARK    4  A    between atoms: N_3  and  CA_4
REMARK    5  A    between atoms: CA_4  and  C_5
REMARK    6  A    between atoms: CA_4  and  C_7
REMARK    7  A    between atoms: C_5  and  O_6
REMARK    8  A    between atoms: C_17  and  C_18
REMARK    9  A    between atoms: C_18  and  O_19
REMARK   10  A    between atoms: O_19  and  C_20
REMARK   11  A    between atoms: C_20  and  C_21
REMARK                            x       y       z     vdW  Elec       q    Type
REMARK                         _______ _______ _______ _____ _____    ______ ____
ROOT
ATOM      1  C   UNL     1      46.430   4.269  14.403  0.00  0.00    +0.000 C 
ATOM      2  C   UNL     1      45.579   4.897  13.281  0.00  0.00    +0.000 C 
ENDROOT
BRANCH   2   3
ATOM      3  C   UNL     1      46.184   6.244  12.810  0.00  0.00    +0.000 A 
ATOM      4  C   UNL     1      45.459   7.447  12.888  0.00  0.00    +0.000 A 
ATOM      5  C   UNL     1      46.025   8.669  12.485  0.00  0.00    +0.000 A 
ATOM      6  C   UNL     1      47.345   8.729  12.017  0.00  0.00    +0.000 A 
ATOM      7  C   UNL     1      48.076   7.543  11.930  0.00  0.00    +0.000 A 
ATOM      8  C   UNL     1      47.506   6.331  12.330  0.00  0.00    +0.000 A 
BRANCH   6   9
ATOM      9  C   UNL     1      48.017  10.036  11.688  0.00  0.00    +0.000 C 
BRANCH   9  10
ATOM     10  O   UNL     1      48.002  10.914  12.812  0.00  0.00    +0.000 OA
BRANCH  10  11
ATOM     11  C   UNL     1      49.266  10.983  13.485  0.00  0.00    +0.000 C 
BRANCH  11  12
ATOM     12  C   UNL     1      49.476   9.710  14.255  0.00  0.00    +0.000 A 
ATOM     13  C   UNL     1      48.568   9.316  15.231  0.00  0.00    +0.000 A 
ATOM     14  C   UNL     1      48.803   8.139  15.924  0.00  0.00    +0.000 A 
ATOM     15  C   UNL     1      49.927   7.410  15.593  0.00  0.00    +0.000 A 
ATOM     16  N   UNL     1      50.789   7.794  14.631  0.00  0.00    +0.000 NA
ATOM     17  N   UNL     1      50.559   8.957  13.952  0.00  0.00    +0.000 NA
ENDBRANCH  11  12
ENDBRANCH  10  11
ENDBRANCH   9  10
ENDBRANCH   6   9
ENDBRANCH   2   3
BRANCH   2  18
ATOM     18  N   UNL     1      45.342   3.995  12.129  0.00  0.00    +0.000 NA
ATOM     19  H   UNL     1      44.680   3.281  12.438  0.00  0.00    +0.000 HD
BRANCH  18  20
ATOM     20  CA  UNL     1      44.801   4.597  10.892  0.00  0.00    +0.000 C 
BRANCH  20  21
ATOM     21  C   UNL     1      45.227   3.944   9.576  0.00  0.00    +0.000 A 
ATOM     22  C   UNL     1      45.870   4.648   8.544  0.00  0.00    +0.000 A 
ATOM     23  C   UNL     1      46.487   3.966   7.488  0.00  0.00    +0.000 A 
ATOM     24  C   UNL     1      46.450   2.573   7.434  0.00  0.00    +0.000 A 
ATOM     25  C   UNL     1      45.754   1.876   8.410  0.00  0.00    +0.000 A 
ATOM     26  F   UNL     1      45.709   0.538   8.362  0.00  0.00    +0.000 F 
ATOM     27  C   UNL     1      45.141   2.543   9.467  0.00  0.00    +0.000 A 
ENDBRANCH  20  21
BRANCH  20  28
ATOM     28  C   UNL     1      43.238   4.600  10.951  0.00  0.00    +0.000 C 
BRANCH  28  29
ATOM     29  O   UNL     1      42.668   3.420  11.513  0.00  0.00    +0.000 OA
ATOM     30  H   UNL     1      43.340   3.021  12.093  0.00  0.00    +0.000 HD
ENDBRANCH  28  29
ENDBRANCH  20  28
ENDBRANCH  18  20
ENDBRANCH   2  18
TORSDOF 10
ENDMDL
MODEL 9
REMARK VINA RESULT:    -6.214      2.812      3.862
REMARK INTER + INTRA:         -10.893
REMARK INTER:                  -8.867
REMARK INTRA:                  -2.026
REMARK UNBOUND:                -1.228
REMARK  Name = 
REMARK  11 active torsions:
REMARK  status: ('A' for Active; 'I' for Inactive)
REMARK    1  A    between atoms: C_1  and  C_2
REMARK    2  A    between atoms: C_2  and  N_3
REMARK    3  A    between atoms: C_2  and  C_14
REMARK    4  A    between atoms: N_3  and  CA_4
REMARK    5  A    between atoms: CA_4  and  C_5
REMARK    6  A    between atoms: CA_4  and  C_7
REMARK    7  A    between atoms: C_5  and  O_6
REMARK    8  A    between atoms: C_17  and  C_18
REMARK    9  A    between atoms: C_18  and  O_19
REMARK   10  A    between atoms: O_19  and  C_20
REMARK   11  A    between atoms: C_20  and  C_21
REMARK                            x       y       z     vdW  Elec       q    Type
REMARK                         _______ _______ _______ _____ _____    ______ ____
ROOT
ATOM      1  C   UNL     1      48.425   9.036  11.808  0.00  0.00    +0.000 C 
ATOM      2  C   UNL     1      48.981   7.782  12.513  0.00  0.00    +0.000 C 
ENDROOT
BRANCH   2   3
ATOM      3  C   UNL     1      49.041   7.985  14.048  0.00  0.00    +0.000 A 
ATOM      4  C   UNL     1      48.153   8.850  14.714  0.00  0.00    +0.000 A 
ATOM      5  C   UNL     1      48.195   9.008  16.110  0.00  0.00    +0.000 A 
ATOM      6  C   UNL     1      49.108   8.281  16.887  0.00  0.00    +0.000 A 
ATOM      7  C   UNL     1      49.997   7.421  16.241  0.00  0.00    +0.000 A 
ATOM      8  C   UNL     1      49.952   7.272  14.852  0.00  0.00    +0.000 A 
BRANCH   6   9
ATOM      9  C   UNL     1      49.100   8.339  18.392  0.00  0.00    +0.000 C 
BRANCH   9  10
ATOM     10  O   UNL     1      49.272   7.040  18.954  0.00  0.00    +0.000 OA
BRANCH  10  11
ATOM     11  C   UNL     1      48.030   6.366  19.196  0.00  0.00    +0.000 C 
BRANCH  11  12
ATOM     12  C   UNL     1      48.030   5.064  18.446  0.00  0.00    +0.000 A 
ATOM     13  C   UNL     1      49.218   4.375  18.227  0.00  0.00    +0.000 A 
ATOM     14  C   UNL     1      49.176   3.181  17.524  0.00  0.00    +0.000 A 
ATOM     15  C   UNL     1      47.946   2.732  17.090  0.00  0.00    +0.000 A 
ATOM     16  N   UNL     1      46.800   3.400  17.327  0.00  0.00    +0.000 NA
ATOM     17  N   UNL     1      46.843   4.580  18.016  0.00  0.00    +0.000 NA
ENDBRANCH  11  12
ENDBRANCH  10  11
ENDBRANCH   9  10
ENDBRANCH   6   9
ENDBRANCH   2   3
BRANCH   2  18
ATOM     18  N   UNL     1      48.258   6.532  12.176  0.00  0.00    +0.000 NA
ATOM     19  H   UNL     1      48.893   5.756  12.371  0.00  0.00    +0.000 HD
BRANCH  18  20
ATOM     20  CA  UNL     1      46.993   6.261  12.892  0.00  0.00    +0.000 C 
BRANCH  20  21
ATOM     21  C   UNL     1      45.770   5.969  12.022  0.00  0.00    +0.000 A 
ATOM     22  C   UNL     1      45.861   5.611  10.667  0.00  0.00    +0.000 A 
ATOM     23  C   UNL     1      44.753   5.085   9.989  0.00  0.00    +0.000 A 
ATOM     24  C   UNL     1      43.534   4.933  10.648  0.00  0.00    +0.000 A 
ATOM     25  C   UNL     1      43.417   5.354  11.964  0.00  0.00    +0.000 A 
ATOM     26  F   UNL     1      42.247   5.216  12.601  0.00  0.00    +0.000 F 
ATOM     27  C   UNL     1      44.513   5.873  12.649  0.00  0.00    +0.000 A 
ENDBRANCH  20  21
BRANCH  20  28
ATOM     28  C   UNL     1      47.193   5.059  13.872  0.00  0.00    +0.000 C 
BRANCH  28  29
ATOM     29  O   UNL     1      47.024   5.389  15.249  0.00  0.00    +0.000 OA
ATOM     30  H   UNL     1      46.931   4.553  15.738  0.00  0.00    +0.000 HD
ENDBRANCH  28  29
ENDBRANCH  20  28
ENDBRANCH  18  20
ENDBRANCH   2  18
TORSDOF 10
ENDMDL
