MODEL 1
REMARK VINA RESULT:    -6.978      0.000      0.000
REMARK INTER + INTRA:          -8.458
REMARK INTER:                  -8.202
REMARK INTRA:                  -0.256
REMARK UNBOUND:                -0.256
REMARK  Name = 
REMARK  3 active torsions:
REMARK  status: ('A' for Active; 'I' for Inactive)
REMARK    1  A    between atoms: C_3  and  C_4
REMARK    2  A    between atoms: C_8  and  C_9
REMARK    3  A    between atoms: C_9  and  C_10
REMARK                            x       y       z     vdW  Elec       q    Type
REMARK                         _______ _______ _______ _____ _____    ______ ____
ROOT
ATOM      1  C   UNL     1      45.303   2.962   9.060  0.00  0.00    +0.000 A 
ATOM      2  C   UNL     1      44.309   2.135   9.586  0.00  0.00    +0.000 A 
ATOM      3  N   UNL     1      43.565   2.408  10.683  0.00  0.00    +0.000 NA
ATOM      4  C   UNL     1      43.815   3.583  11.302  0.00  0.00    +0.000 A 
ATOM      5  C   UNL     1      44.770   4.517  10.901  0.00  0.00    +0.000 A 
ATOM      6  C   UNL     1      45.506   4.173   9.752  0.00  0.00    +0.000 A 
ENDROOT
BRANCH   1   9
ATOM      7  C   UNL     1      47.031   3.074   5.701  0.00  0.00    +0.000 A 
ATOM      8  C   UNL     1      46.287   3.475   6.802  0.00  0.00    +0.000 A 
ATOM      9  C   UNL     1      46.089   2.583   7.863  0.00  0.00    +0.000 A 
ATOM     10  C   UNL     1      46.668   1.312   7.736  0.00  0.00    +0.000 A 
ATOM     11  C   UNL     1      47.393   0.998   6.594  0.00  0.00    +0.000 A 
ATOM     12  N   UNL     1      47.589   1.853   5.573  0.00  0.00    +0.000 NA
ENDBRANCH   1   9
BRANCH   5  13
ATOM     13  C   UNL     1      45.022   5.804  11.687  0.00  0.00    +0.000 C 
ATOM     14  C   UNL     1      43.820   6.474  12.354  0.00  0.00    +0.000 C 
ATOM     15  C   UNL     1      44.411   7.094  11.131  0.00  0.00    +0.000 C 
BRANCH  13  16
ATOM     16  C   UNL     1      46.381   5.959  12.374  0.00  0.00    +0.000 A 
ATOM     17  C   UNL     1      47.409   6.718  11.794  0.00  0.00    +0.000 A 
ATOM     18  C   UNL     1      48.569   6.963  12.512  0.00  0.00    +0.000 A 
ATOM     19  N   UNL     1      48.792   6.496  13.757  0.00  0.00    +0.000 NA
ATOM     20  C   UNL     1      47.819   5.735  14.295  0.00  0.00    +0.000 A 
ATOM     21  C   UNL     1      46.628   5.433  13.650  0.00  0.00    +0.000 A 
ENDBRANCH  13  16
ENDBRANCH   5  13
TORSDOF 3
ENDMDL
MODEL 2
REMARK VINA RESULT:    -6.719      1.437      2.258
REMARK INTER + INTRA:          -8.153
REMARK INTER:                  -8.161
REMARK INTRA:                   0.008
REMARK UNBOUND:                -0.256
REMARK  Name = 
REMARK  3 active torsions:
REMARK  status: ('A' for Active; 'I' for Inactive)
REMARK    1  A    between atoms: C_3  and  C_4
REMARK    2  A    between atoms: C_8  and  C_9
REMARK    3  A    between atoms: C_9  and  C_10
REMARK                            x       y       z     vdW  Elec       q    Type
REMARK                         _______ _______ _______ _____ _____    ______ ____
ROOT
ATOM      1  C   UNL     1      45.003   4.479   9.810  0.00  0.00    +0.000 A 
ATOM      2  C   UNL     1      43.623   4.572  10.004  0.00  0.00    +0.000 A 
ATOM      3  N   UNL     1      43.014   5.375  10.907  0.00  0.00    +0.000 NA
ATOM      4  C   UNL     1      43.821   6.146  11.668  0.00  0.00    +0.000 A 
ATOM      5  C   UNL     1      45.214   6.171  11.594  0.00  0.00    +0.000 A 
ATOM      6  C   UNL     1      45.783   5.315  10.633  0.00  0.00    +0.000 A 
ENDROOT
BRANCH   1   9
ATOM      7  C   UNL     1      46.139   1.348   8.025  0.00  0.00    +0.000 A 
ATOM      8  C   UNL     1      45.569   2.170   8.987  0.00  0.00    +0.000 A 
ATOM      9  C   UNL     1      45.596   3.559   8.812  0.00  0.00    +0.000 A 
ATOM     10  C   UNL     1      46.217   4.037   7.649  0.00  0.00    +0.000 A 
ATOM     11  C   UNL     1      46.765   3.138   6.743  0.00  0.00    +0.000 A 
ATOM     12  N   UNL     1      46.737   1.802   6.905  0.00  0.00    +0.000 NA
ENDBRANCH   1   9
BRANCH   5  13
ATOM     13  C   UNL     1      46.056   7.041  12.527  0.00  0.00    +0.000 C 
ATOM     14  C   UNL     1      45.527   8.434  12.868  0.00  0.00    +0.000 C 
ATOM     15  C   UNL     1      46.680   8.306  11.929  0.00  0.00    +0.000 C 
BRANCH  13  16
ATOM     16  C   UNL     1      46.896   6.330  13.592  0.00  0.00    +0.000 A 
ATOM     17  C   UNL     1      47.977   6.971  14.215  0.00  0.00    +0.000 A 
ATOM     18  C   UNL     1      48.618   6.355  15.279  0.00  0.00    +0.000 A 
ATOM     19  N   UNL     1      48.275   5.143  15.759  0.00  0.00    +0.000 NA
ATOM     20  C   UNL     1      47.262   4.514  15.132  0.00  0.00    +0.000 A 
ATOM     21  C   UNL     1      46.567   5.050  14.057  0.00  0.00    +0.000 A 
ENDBRANCH  13  16
ENDBRANCH   5  13
TORSDOF 3
ENDMDL
MODEL 3
REMARK VINA RESULT:    -6.634      1.910      6.369
REMARK INTER + INTRA:          -8.054
REMARK INTER:                  -8.075
REMARK INTRA:                   0.021
REMARK UNBOUND:                -0.256
REMARK  Name = 
REMARK  3 active torsions:
REMARK  status: ('A' for Active; 'I' for Inactive)
REMARK    1  A    between atoms: C_3  and  C_4
REMARK    2  A    between atoms: C_8  and  C_9
REMARK    3  A    between atoms: C_9  and  C_10
REMARK                            x       y       z     vdW  Elec       q    Type
REMARK                         _______ _______ _______ _____ _____    ______ ____
ROOT
ATOM      1  C   UNL     1      47.175   6.743  12.435  0.00  0.00    +0.000 A 
ATOM      2  C   UNL     1      47.362   6.006  13.606  0.00  0.00    +0.000 A 
ATOM      3  N   UNL     1      46.730   4.848  13.910  0.00  0.00    +0.000 NA
ATOM      4  C   UNL     1      45.858   4.380  12.990  0.00  0.00    +0.000 A 
ATOM      5  C   UNL     1      45.563   4.995  11.773  0.00  0.00    +0.000 A 
ATOM      6  C   UNL     1      46.256   6.194  11.519  0.00  0.00    +0.000 A 
ENDROOT
BRANCH   1   9
ATOM      7  C   UNL     1      47.974  10.422  12.102  0.00  0.00    +0.000 A 
ATOM      8  C   UNL     1      47.262   9.256  12.350  0.00  0.00    +0.000 A 
ATOM      9  C   UNL     1      47.891   8.015  12.185  0.00  0.00    +0.000 A 
ATOM     10  C   UNL     1      49.229   8.036  11.766  0.00  0.00    +0.000 A 
ATOM     11  C   UNL     1      49.859   9.252  11.537  0.00  0.00    +0.000 A 
ATOM     12  N   UNL     1      49.261  10.447  11.699  0.00  0.00    +0.000 NA
ENDBRANCH   1   9
BRANCH   5  13
ATOM     13  C   UNL     1      44.526   4.421  10.808  0.00  0.00    +0.000 C 
ATOM     14  C   UNL     1      43.198   5.166  10.670  0.00  0.00    +0.000 C 
ATOM     15  C   UNL     1      43.231   3.875  11.418  0.00  0.00    +0.000 C 
BRANCH  13  16
ATOM     16  C   UNL     1      45.042   3.674   9.576  0.00  0.00    +0.000 A 
ATOM     17  C   UNL     1      45.556   4.364   8.467  0.00  0.00    +0.000 A 
ATOM     18  C   UNL     1      46.153   3.656   7.436  0.00  0.00    +0.000 A 
ATOM     19  N   UNL     1      46.264   2.312   7.416  0.00  0.00    +0.000 NA
ATOM     20  C   UNL     1      45.733   1.651   8.463  0.00  0.00    +0.000 A 
ATOM     21  C   UNL     1      45.113   2.275   9.537  0.00  0.00    +0.000 A 
ENDBRANCH  13  16
ENDBRANCH   5  13
TORSDOF 3
ENDMDL
MODEL 4
REMARK VINA RESULT:    -6.380      2.075      6.959
REMARK INTER + INTRA:          -7.755
REMARK INTER:                  -7.873
REMARK INTRA:                   0.118
REMARK UNBOUND:                -0.256
REMARK  Name = 
REMARK  3 active torsions:
REMARK  status: ('A' for Active; 'I' for Inactive)
REMARK    1  A    between atoms: C_3  and  C_4
REMARK    2  A    between atoms: C_8  and  C_9
REMARK    3  A    between atoms: C_9  and  C_10
REMARK                            x       y       z     vdW  Elec       q    Type
REMARK                         _______ _______ _______ _____ _____    ______ ____
ROOT
ATOM      1  C   UNL     1      47.285   5.510  14.118  0.00  0.00    +0.000 A 
ATOM      2  C   UNL     1      48.005   6.544  13.517  0.00  0.00    +0.000 A 
ATOM      3  N   UNL     1      47.706   7.115  12.327  0.00  0.00    +0.000 NA
ATOM      4  C   UNL     1      46.616   6.636  11.688  0.00  0.00    +0.000 A 
ATOM      5  C   UNL     1      45.792   5.612  12.156  0.00  0.00    +0.000 A 
ATOM      6  C   UNL     1      46.158   5.064  13.400  0.00  0.00    +0.000 A 
ENDROOT
BRANCH   1   9
ATOM      7  C   UNL     1      48.819   5.045  17.541  0.00  0.00    +0.000 A 
ATOM      8  C   UNL     1      48.465   5.638  16.337  0.00  0.00    +0.000 A 
ATOM      9  C   UNL     1      47.688   4.922  15.417  0.00  0.00    +0.000 A 
ATOM     10  C   UNL     1      47.315   3.621  15.784  0.00  0.00    +0.000 A 
ATOM     11  C   UNL     1      47.721   3.109  17.009  0.00  0.00    +0.000 A 
ATOM     12  N   UNL     1      48.463   3.795  17.898  0.00  0.00    +0.000 NA
ENDBRANCH   1   9
BRANCH   5  13
ATOM     13  C   UNL     1      44.603   5.099  11.345  0.00  0.00    +0.000 C 
ATOM     14  C   UNL     1      43.359   5.985  11.271  0.00  0.00    +0.000 C 
ATOM     15  C   UNL     1      43.325   4.756  12.118  0.00  0.00    +0.000 C 
BRANCH  13  16
ATOM     16  C   UNL     1      44.901   4.208  10.136  0.00  0.00    +0.000 A 
ATOM     17  C   UNL     1      45.496   4.728   8.976  0.00  0.00    +0.000 A 
ATOM     18  C   UNL     1      45.891   3.867   7.964  0.00  0.00    +0.000 A 
ATOM     19  N   UNL     1      45.723   2.531   8.009  0.00  0.00    +0.000 NA
ATOM     20  C   UNL     1      45.114   2.040   9.106  0.00  0.00    +0.000 A 
ATOM     21  C   UNL     1      44.682   2.824  10.166  0.00  0.00    +0.000 A 
ENDBRANCH  13  16
ENDBRANCH   5  13
TORSDOF 3
ENDMDL
MODEL 5
REMARK VINA RESULT:    -6.225      3.412      6.502
REMARK INTER + INTRA:          -7.572
REMARK INTER:                  -7.408
REMARK INTRA:                  -0.165
REMARK UNBOUND:                -0.256
REMARK  Name = 
REMARK  3 active torsions:
REMARK  status: ('A' for Active; 'I' for Inactive)
REMARK    1  A    between atoms: C_3  and  C_4
REMARK    2  A    between atoms: C_8  and  C_9
REMARK    3  A    between atoms: C_9  and  C_10
REMARK                            x       y       z     vdW  Elec       q    Type
REMARK                         _______ _______ _______ _____ _____    ______ ____
ROOT
ATOM      1  C   UNL     1      46.358   4.991  13.725  0.00  0.00    +0.000 A 
ATOM      2  C   UNL     1      47.178   6.069  13.387  0.00  0.00    +0.000 A 
ATOM      3  N   UNL     1      48.246   6.492  14.104  0.00  0.00    +0.000 NA
ATOM      4  C   UNL     1      48.528   5.799  15.229  0.00  0.00    +0.000 A 
ATOM      5  C   UNL     1      47.809   4.701  15.700  0.00  0.00    +0.000 A 
ATOM      6  C   UNL     1      46.713   4.311  14.906  0.00  0.00    +0.000 A 
ENDROOT
BRANCH   1   9
ATOM      7  C   UNL     1      42.952   4.958  12.087  0.00  0.00    +0.000 A 
ATOM      8  C   UNL     1      44.018   5.364  12.878  0.00  0.00    +0.000 A 
ATOM      9  C   UNL     1      45.193   4.601  12.898  0.00  0.00    +0.000 A 
ATOM     10  C   UNL     1      45.210   3.448  12.100  0.00  0.00    +0.000 A 
ATOM     11  C   UNL     1      44.093   3.118  11.344  0.00  0.00    +0.000 A 
ATOM     12  N   UNL     1      42.964   3.850  11.319  0.00  0.00    +0.000 NA
ENDBRANCH   1   9
BRANCH   5  13
ATOM     13  C   UNL     1      48.169   4.001  17.010  0.00  0.00    +0.000 C 
ATOM     14  C   UNL     1      47.071   3.202  17.712  0.00  0.00    +0.000 C 
ATOM     15  C   UNL     1      47.493   4.514  18.285  0.00  0.00    +0.000 C 
BRANCH  13  16
ATOM     16  C   UNL     1      49.610   3.510  17.178  0.00  0.00    +0.000 A 
ATOM     17  C   UNL     1      50.632   4.376  17.596  0.00  0.00    +0.000 A 
ATOM     18  C   UNL     1      51.888   3.865  17.884  0.00  0.00    +0.000 A 
ATOM     19  N   UNL     1      52.210   2.561  17.771  0.00  0.00    +0.000 NA
ATOM     20  C   UNL     1      51.237   1.739  17.330  0.00  0.00    +0.000 A 
ATOM     21  C   UNL     1      49.954   2.161  17.013  0.00  0.00    +0.000 A 
ENDBRANCH  13  16
ENDBRANCH   5  13
TORSDOF 3
ENDMDL
MODEL 6
REMARK VINA RESULT:    -5.917      2.768      4.004
REMARK INTER + INTRA:          -7.210
REMARK INTER:                  -7.214
REMARK INTRA:                   0.003
REMARK UNBOUND:                -0.256
REMARK  Name = 
REMARK  3 active torsions:
REMARK  status: ('A' for Active; 'I' for Inactive)
REMARK    1  A    between atoms: C_3  and  C_4
REMARK    2  A    between atoms: C_8  and  C_9
REMARK    3  A    between atoms: C_9  and  C_10
REMARK                            x       y       z     vdW  Elec       q    Type
REMARK                         _______ _______ _______ _____ _____    ______ ____
ROOT
ATOM      1  C   UNL     1      45.018   4.691  10.599  0.00  0.00    +0.000 A 
ATOM      2  C   UNL     1      44.144   4.231  11.585  0.00  0.00    +0.000 A 
ATOM      3  N   UNL     1      43.744   4.939  12.667  0.00  0.00    +0.000 NA
ATOM      4  C   UNL     1      44.237   6.192  12.781  0.00  0.00    +0.000 A 
ATOM      5  C   UNL     1      45.116   6.797  11.881  0.00  0.00    +0.000 A 
ATOM      6  C   UNL     1      45.489   6.007  10.778  0.00  0.00    +0.000 A 
ENDROOT
BRANCH   1   9
ATOM      7  C   UNL     1      46.305   3.570   7.226  0.00  0.00    +0.000 A 
ATOM      8  C   UNL     1      45.938   4.403   8.275  0.00  0.00    +0.000 A 
ATOM      9  C   UNL     1      45.424   3.845   9.452  0.00  0.00    +0.000 A 
ATOM     10  C   UNL     1      45.308   2.448   9.491  0.00  0.00    +0.000 A 
ATOM     11  C   UNL     1      45.696   1.695   8.390  0.00  0.00    +0.000 A 
ATOM     12  N   UNL     1      46.194   2.226   7.258  0.00  0.00    +0.000 NA
ENDBRANCH   1   9
BRANCH   5  13
ATOM     13  C   UNL     1      45.663   8.205  12.110  0.00  0.00    +0.000 C 
ATOM     14  C   UNL     1      47.182   8.381  12.136  0.00  0.00    +0.000 C 
ATOM     15  C   UNL     1      46.420   8.458  13.418  0.00  0.00    +0.000 C 
BRANCH  13  16
ATOM     16  C   UNL     1      44.830   9.382  11.591  0.00  0.00    +0.000 A 
ATOM     17  C   UNL     1      45.280  10.705  11.717  0.00  0.00    +0.000 A 
ATOM     18  C   UNL     1      44.576  11.729  11.102  0.00  0.00    +0.000 A 
ATOM     19  N   UNL     1      43.450  11.539  10.387  0.00  0.00    +0.000 NA
ATOM     20  C   UNL     1      42.999  10.272  10.302  0.00  0.00    +0.000 A 
ATOM     21  C   UNL     1      43.634   9.186  10.888  0.00  0.00    +0.000 A 
ENDBRANCH  13  16
ENDBRANCH   5  13
TORSDOF 3
ENDMDL
MODEL 7
REMARK VINA RESULT:    -5.913      2.076      4.194
REMARK INTER + INTRA:          -7.206
REMARK INTER:                  -7.113
REMARK INTRA:                  -0.093
REMARK UNBOUND:                -0.256
REMARK  Name = 
REMARK  3 active torsions:
REMARK  status: ('A' for Active; 'I' for Inactive)
REMARK    1  A    between atoms: C_3  and  C_4
REMARK    2  A    between atoms: C_8  and  C_9
REMARK    3  A    between atoms: C_9  and  C_10
REMARK                            x       y       z     vdW  Elec       q    Type
REMARK                         _______ _______ _______ _____ _____    ______ ____
ROOT
ATOM      1  C   UNL     1      45.467   5.837  11.217  0.00  0.00    +0.000 A 
ATOM      2  C   UNL     1      44.599   6.923  11.339  0.00  0.00    +0.000 A 
ATOM      3  N   UNL     1      44.773   7.972  12.176  0.00  0.00    +0.000 NA
ATOM      4  C   UNL     1      45.886   7.952  12.942  0.00  0.00    +0.000 A 
ATOM      5  C   UNL     1      46.850   6.944  12.935  0.00  0.00    +0.000 A 
ATOM      6  C   UNL     1      46.609   5.884  12.040  0.00  0.00    +0.000 A 
ENDROOT
BRANCH   1   9
ATOM      7  C   UNL     1      45.267   3.705   8.102  0.00  0.00    +0.000 A 
ATOM      8  C   UNL     1      45.541   4.783   8.933  0.00  0.00    +0.000 A 
ATOM      9  C   UNL     1      45.196   4.714  10.289  0.00  0.00    +0.000 A 
ATOM     10  C   UNL     1      44.577   3.533  10.724  0.00  0.00    +0.000 A 
ATOM     11  C   UNL     1      44.337   2.509   9.818  0.00  0.00    +0.000 A 
ATOM     12  N   UNL     1      44.671   2.568   8.516  0.00  0.00    +0.000 NA
ENDBRANCH   1   9
BRANCH   5  13
ATOM     13  C   UNL     1      48.058   6.976  13.870  0.00  0.00    +0.000 C 
ATOM     14  C   UNL     1      48.765   8.317  14.070  0.00  0.00    +0.000 C 
ATOM     15  C   UNL     1      49.424   7.266  13.239  0.00  0.00    +0.000 C 
BRANCH  13  16
ATOM     16  C   UNL     1      48.070   5.996  15.047  0.00  0.00    +0.000 A 
ATOM     17  C   UNL     1      48.771   6.283  16.228  0.00  0.00    +0.000 A 
ATOM     18  C   UNL     1      48.635   5.447  17.326  0.00  0.00    +0.000 A 
ATOM     19  N   UNL     1      47.869   4.338  17.332  0.00  0.00    +0.000 NA
ATOM     20  C   UNL     1      47.229   4.044  16.183  0.00  0.00    +0.000 A 
ATOM     21  C   UNL     1      47.310   4.819  15.034  0.00  0.00    +0.000 A 
ENDBRANCH  13  16
ENDBRANCH   5  13
TORSDOF 3
ENDMDL
MODEL 8
REMARK VINA RESULT:    -5.861      3.444      6.630
REMARK INTER + INTRA:          -7.144
REMARK INTER:                  -7.101
REMARK INTRA:                  -0.043
REMARK UNBOUND:                -0.256
REMARK  Name = 
REMARK  3 active torsions:
REMARK  status: ('A' for Active; 'I' for Inactive)
REMARK    1  A    between atoms: C_3  and  C_4
REMARK    2  A    between atoms: C_8  and  C_9
REMARK    3  A    between atoms: C_9  and  C_10
REMARK                            x       y       z     vdW  Elec       q    Type
REMARK                         _______ _______ _______ _____ _____    ______ ____
ROOT
ATOM      1  C   UNL     1      46.314   5.009  13.783  0.00  0.00    +0.000 A 
ATOM      2  C   UNL     1      47.165   6.052  13.415  0.00  0.00    +0.000 A 
ATOM      3  N   UNL     1      48.223   6.490  14.137  0.00  0.00    +0.000 NA
ATOM      4  C   UNL     1      48.461   5.849  15.303  0.00  0.00    +0.000 A 
ATOM      5  C   UNL     1      47.708   4.789  15.808  0.00  0.00    +0.000 A 
ATOM      6  C   UNL     1      46.625   4.382  15.006  0.00  0.00    +0.000 A 
ENDROOT
BRANCH   1   9
ATOM      7  C   UNL     1      44.084   3.084  11.415  0.00  0.00    +0.000 A 
ATOM      8  C   UNL     1      45.188   3.425  12.185  0.00  0.00    +0.000 A 
ATOM      9  C   UNL     1      45.162   4.601  12.946  0.00  0.00    +0.000 A 
ATOM     10  C   UNL     1      43.995   5.375  12.872  0.00  0.00    +0.000 A 
ATOM     11  C   UNL     1      42.942   4.957  12.069  0.00  0.00    +0.000 A 
ATOM     12  N   UNL     1      42.961   3.826  11.340  0.00  0.00    +0.000 NA
ENDBRANCH   1   9
BRANCH   5  13
ATOM     13  C   UNL     1      48.020   4.150  17.161  0.00  0.00    +0.000 C 
ATOM     14  C   UNL     1      48.770   2.817  17.159  0.00  0.00    +0.000 C 
ATOM     15  C   UNL     1      47.314   2.830  17.490  0.00  0.00    +0.000 C 
BRANCH  13  16
ATOM     16  C   UNL     1      48.257   5.086  18.349  0.00  0.00    +0.000 A 
ATOM     17  C   UNL     1      49.540   5.270  18.888  0.00  0.00    +0.000 A 
ATOM     18  C   UNL     1      49.742   6.237  19.860  0.00  0.00    +0.000 A 
ATOM     19  N   UNL     1      48.763   7.023  20.350  0.00  0.00    +0.000 NA
ATOM     20  C   UNL     1      47.525   6.816  19.859  0.00  0.00    +0.000 A 
ATOM     21  C   UNL     1      47.228   5.869  18.889  0.00  0.00    +0.000 A 
ENDBRANCH  13  16
ENDBRANCH   5  13
TORSDOF 3
ENDMDL
MODEL 9
REMARK VINA RESULT:    -5.838      2.665      5.020
REMARK INTER + INTRA:          -7.118
REMARK INTER:                  -7.064
REMARK INTRA:                  -0.055
REMARK UNBOUND:                -0.256
REMARK  Name = 
REMARK  3 active torsions:
REMARK  status: ('A' for Active; 'I' for Inactive)
REMARK    1  A    between atoms: C_3  and  C_4
REMARK    2  A    between atoms: C_8  and  C_9
REMARK    3  A    between atoms: C_9  and  C_10
REMARK                            x       y       z     vdW  Elec       q    Type
REMARK                         _______ _______ _______ _____ _____    ______ ____
ROOT
ATOM      1  C   UNL     1      45.527   6.458  11.567  0.00  0.00    +0.000 A 
ATOM      2  C   UNL     1      44.793   7.643  11.643  0.00  0.00    +0.000 A 
ATOM      3  N   UNL     1      45.302   8.858  11.954  0.00  0.00    +0.000 NA
ATOM      4  C   UNL     1      46.630   8.909  12.200  0.00  0.00    +0.000 A 
ATOM      5  C   UNL     1      47.498   7.818  12.161  0.00  0.00    +0.000 A 
ATOM      6  C   UNL     1      46.905   6.585  11.829  0.00  0.00    +0.000 A 
ENDROOT
BRANCH   1   9
ATOM      7  C   UNL     1      44.369   3.384   9.698  0.00  0.00    +0.000 A 
ATOM      8  C   UNL     1      44.981   4.602   9.958  0.00  0.00    +0.000 A 
ATOM      9  C   UNL     1      44.891   5.161  11.239  0.00  0.00    +0.000 A 
ATOM     10  C   UNL     1      44.167   4.434  12.196  0.00  0.00    +0.000 A 
ATOM     11  C   UNL     1      43.584   3.224  11.843  0.00  0.00    +0.000 A 
ATOM     12  N   UNL     1      43.671   2.682  10.614  0.00  0.00    +0.000 NA
ENDBRANCH   1   9
BRANCH   5  13
ATOM     13  C   UNL     1      48.983   7.955  12.499  0.00  0.00    +0.000 C 
ATOM     14  C   UNL     1      49.778   9.042  11.775  0.00  0.00    +0.000 C 
ATOM     15  C   UNL     1      49.986   7.615  11.392  0.00  0.00    +0.000 C 
BRANCH  13  16
ATOM     16  C   UNL     1      49.421   7.595  13.921  0.00  0.00    +0.000 A 
ATOM     17  C   UNL     1      48.598   6.839  14.769  0.00  0.00    +0.000 A 
ATOM     18  C   UNL     1      49.088   6.404  15.990  0.00  0.00    +0.000 A 
ATOM     19  N   UNL     1      50.328   6.678  16.441  0.00  0.00    +0.000 NA
ATOM     20  C   UNL     1      51.102   7.440  15.641  0.00  0.00    +0.000 A 
ATOM     21  C   UNL     1      50.695   7.923  14.406  0.00  0.00    +0.000 A 
ENDBRANCH  13  16
ENDBRANCH   5  13
TORSDOF 3
ENDMDL
