MODEL 1
REMARK VINA RESULT:    -7.676      0.000      0.000
REMARK INTER + INTRA:         -11.144
REMARK INTER:                 -10.368
REMARK INTRA:                  -0.776
REMARK UNBOUND:                -0.776
REMARK  Name = 
REMARK  8 active torsions:
REMARK  status: ('A' for Active; 'I' for Inactive)
REMARK    1  A    between atoms: C_1  and  C_2
REMARK    2  A    between atoms: C_6  and  C_7
REMARK    3  A    between atoms: C_7  and  C_8
REMARK    4  A    between atoms: C_8  and  C_9
REMARK    5  A    between atoms: C_12  and  C_13
REMARK    6  A    between atoms: C_13  and  N_14
REMARK    7  A    between atoms: N_14  and  C_15
REMARK    8  A    between atoms: C_16  and  C_18
REMARK                            x       y       z     vdW  Elec       q    Type
REMARK                         _______ _______ _______ _____ _____    ______ ____
ROOT
ATOM      1  C   UNL     1      48.509   6.556  13.814  0.00  0.00    +0.000 C 
ENDROOT
BRANCH   1   5
ATOM      2  C   UNL     1      45.327   4.149  12.318  0.00  0.00    +0.000 A 
ATOM      3  C   UNL     1      45.430   5.454  11.851  0.00  0.00    +0.000 A 
ATOM      4  C   UNL     1      46.409   6.289  12.392  0.00  0.00    +0.000 A 
ATOM      5  C   UNL     1      47.260   5.815  13.396  0.00  0.00    +0.000 A 
ATOM      6  C   UNL     1      46.999   4.539  13.881  0.00  0.00    +0.000 A 
ATOM      7  N   UNL     1      46.061   3.704  13.368  0.00  0.00    +0.000 NA
BRANCH   2   8
ATOM      8  C   UNL     1      44.467   3.130  11.604  0.00  0.00    +0.000 C 
BRANCH   8   9
ATOM      9  C   UNL     1      44.109   3.506  10.151  0.00  0.00    +0.000 C 
BRANCH   9  15
ATOM     10  C   UNL     1      46.747   0.173   7.745  0.00  0.00    +0.000 C 
ATOM     11  C   UNL     1      46.322   1.607   7.879  0.00  0.00    +0.000 A 
ATOM     12  C   UNL     1      46.900   2.575   7.068  0.00  0.00    +0.000 A 
ATOM     13  C   UNL     1      46.628   3.910   7.330  0.00  0.00    +0.000 A 
ATOM     14  C   UNL     1      45.768   4.241   8.370  0.00  0.00    +0.000 A 
ATOM     15  C   UNL     1      45.144   3.222   9.083  0.00  0.00    +0.000 A 
ATOM     16  N   UNL     1      45.445   1.912   8.870  0.00  0.00    +0.000 NA
ENDBRANCH   9  15
ENDBRANCH   8   9
ENDBRANCH   2   8
ENDBRANCH   1   5
BRANCH   1  17
ATOM     17  N   UNL     1      48.475   7.246  15.104  0.00  0.00    +0.000 N 
ATOM     18  C   UNL     1      47.949   8.605  15.112  0.00  0.00    +0.000 C 
ATOM     19  C   UNL     1      49.239   6.694  16.156  0.00  0.00    +0.000 C 
ATOM     20  O   UNL     1      49.861   5.646  16.011  0.00  0.00    +0.000 OA
BRANCH  19  21
ATOM     21  C   UNL     1      49.237   7.360  17.469  0.00  0.00    +0.000 A 
ATOM     22  C   UNL     1      49.840   8.580  17.709  0.00  0.00    +0.000 A 
ATOM     23  S   UNL     1      49.635   9.144  19.308  0.00  0.00    +0.000 S 
ATOM     24  C   UNL     1      48.632   7.830  19.700  0.00  0.00    +0.000 A 
ATOM     25  N   UNL     1      48.044   7.748  20.924  0.00  0.00    +0.000 NA
ATOM     26  C   UNL     1      47.261   6.727  21.065  0.00  0.00    +0.000 A 
ATOM     27  N   UNL     1      47.043   5.771  20.105  0.00  0.00    +0.000 N 
ATOM     28  C   UNL     1      47.706   5.750  18.895  0.00  0.00    +0.000 A 
ATOM     29  O   UNL     1      47.648   4.771  18.163  0.00  0.00    +0.000 OA
ATOM     30  C   UNL     1      48.514   6.933  18.648  0.00  0.00    +0.000 A 
ATOM     31  H   UNL     1      46.466   4.967  20.309  0.00  0.00    +0.000 HD
ENDBRANCH  19  21
ENDBRANCH   1  17
TORSDOF 6
ENDMDL
MODEL 2
REMARK VINA RESULT:    -7.663      3.581      5.228
REMARK INTER + INTRA:         -11.126
REMARK INTER:                  -9.856
REMARK INTRA:                  -1.270
REMARK UNBOUND:                -0.776
REMARK  Name = 
REMARK  8 active torsions:
REMARK  status: ('A' for Active; 'I' for Inactive)
REMARK    1  A    between atoms: C_1  and  C_2
REMARK    2  A    between atoms: C_6  and  C_7
REMARK    3  A    between atoms: C_7  and  C_8
REMARK    4  A    between atoms: C_8  and  C_9
REMARK    5  A    between atoms: C_12  and  C_13
REMARK    6  A    between atoms: C_13  and  N_14
REMARK    7  A    between atoms: N_14  and  C_15
REMARK    8  A    between atoms: C_16  and  C_18
REMARK                            x       y       z     vdW  Elec       q    Type
REMARK                         _______ _______ _______ _____ _____    ______ ____
ROOT
ATOM      1  C   UNL     1      47.921   6.328  14.115  0.00  0.00    +0.000 C 
ENDROOT
BRANCH   1   5
ATOM      2  C   UNL     1      44.983   3.744  12.429  0.00  0.00    +0.000 A 
ATOM      3  C   UNL     1      44.697   5.103  12.487  0.00  0.00    +0.000 A 
ATOM      4  C   UNL     1      45.605   5.957  13.116  0.00  0.00    +0.000 A 
ATOM      5  C   UNL     1      46.775   5.443  13.685  0.00  0.00    +0.000 A 
ATOM      6  C   UNL     1      46.911   4.060  13.683  0.00  0.00    +0.000 A 
ATOM      7  N   UNL     1      46.050   3.208  13.072  0.00  0.00    +0.000 NA
BRANCH   2   8
ATOM      8  C   UNL     1      44.175   2.814  11.551  0.00  0.00    +0.000 C 
BRANCH   8   9
ATOM      9  C   UNL     1      43.913   3.349  10.128  0.00  0.00    +0.000 C 
BRANCH   9  15
ATOM     10  C   UNL     1      46.795   0.226   7.721  0.00  0.00    +0.000 C 
ATOM     11  C   UNL     1      46.302   1.634   7.888  0.00  0.00    +0.000 A 
ATOM     12  C   UNL     1      46.872   2.656   7.140  0.00  0.00    +0.000 A 
ATOM     13  C   UNL     1      46.530   3.967   7.438  0.00  0.00    +0.000 A 
ATOM     14  C   UNL     1      45.613   4.221   8.451  0.00  0.00    +0.000 A 
ATOM     15  C   UNL     1      45.004   3.150   9.098  0.00  0.00    +0.000 A 
ATOM     16  N   UNL     1      45.371   1.864   8.850  0.00  0.00    +0.000 NA
ENDBRANCH   9  15
ENDBRANCH   8   9
ENDBRANCH   2   8
ENDBRANCH   1   5
BRANCH   1  17
ATOM     17  N   UNL     1      48.184   7.519  13.307  0.00  0.00    +0.000 N 
ATOM     18  C   UNL     1      48.865   7.314  12.034  0.00  0.00    +0.000 C 
ATOM     19  C   UNL     1      48.071   8.775  13.943  0.00  0.00    +0.000 C 
ATOM     20  O   UNL     1      47.709   8.868  15.112  0.00  0.00    +0.000 OA
BRANCH  19  21
ATOM     21  C   UNL     1      48.333   9.998  13.166  0.00  0.00    +0.000 A 
ATOM     22  C   UNL     1      49.561  10.630  13.125  0.00  0.00    +0.000 A 
ATOM     23  S   UNL     1      49.597  11.996  12.101  0.00  0.00    +0.000 S 
ATOM     24  C   UNL     1      48.002  11.718  11.587  0.00  0.00    +0.000 A 
ATOM     25  N   UNL     1      47.436  12.502  10.630  0.00  0.00    +0.000 NA
ATOM     26  C   UNL     1      46.239  12.142  10.292  0.00  0.00    +0.000 A 
ATOM     27  N   UNL     1      45.554  11.092  10.849  0.00  0.00    +0.000 N 
ATOM     28  C   UNL     1      46.042  10.343  11.901  0.00  0.00    +0.000 A 
ATOM     29  O   UNL     1      45.318   9.564  12.507  0.00  0.00    +0.000 OA
ATOM     30  C   UNL     1      47.424  10.640  12.242  0.00  0.00    +0.000 A 
ATOM     31  H   UNL     1      44.599  10.907  10.579  0.00  0.00    +0.000 HD
ENDBRANCH  19  21
ENDBRANCH   1  17
TORSDOF 6
ENDMDL
MODEL 3
REMARK VINA RESULT:    -7.586      1.947      2.217
REMARK INTER + INTRA:         -11.022
REMARK INTER:                 -10.118
REMARK INTRA:                  -0.904
REMARK UNBOUND:                -0.776
REMARK  Name = 
REMARK  8 active torsions:
REMARK  status: ('A' for Active; 'I' for Inactive)
REMARK    1  A    between atoms: C_1  and  C_2
REMARK    2  A    between atoms: C_6  and  C_7
REMARK    3  A    between atoms: C_7  and  C_8
REMARK    4  A    between atoms: C_8  and  C_9
REMARK    5  A    between atoms: C_12  and  C_13
REMARK    6  A    between atoms: C_13  and  N_14
REMARK    7  A    between atoms: N_14  and  C_15
REMARK    8  A    between atoms: C_16  and  C_18
REMARK                            x       y       z     vdW  Elec       q    Type
REMARK                         _______ _______ _______ _____ _____    ______ ____
ROOT
ATOM      1  C   UNL     1      48.386   5.802  14.355  0.00  0.00    +0.000 C 
ENDROOT
BRANCH   1   5
ATOM      2  C   UNL     1      44.805   5.134  12.145  0.00  0.00    +0.000 A 
ATOM      3  C   UNL     1      45.445   6.359  11.991  0.00  0.00    +0.000 A 
ATOM      4  C   UNL     1      46.570   6.635  12.771  0.00  0.00    +0.000 A 
ATOM      5  C   UNL     1      47.030   5.693  13.698  0.00  0.00    +0.000 A 
ATOM      6  C   UNL     1      46.252   4.554  13.865  0.00  0.00    +0.000 A 
ATOM      7  N   UNL     1      45.161   4.256  13.115  0.00  0.00    +0.000 NA
BRANCH   2   8
ATOM      8  C   UNL     1      43.748   4.678  11.164  0.00  0.00    +0.000 C 
BRANCH   8   9
ATOM      9  C   UNL     1      44.005   3.285  10.553  0.00  0.00    +0.000 C 
BRANCH   9  15
ATOM     10  C   UNL     1      46.784   0.464   7.693  0.00  0.00    +0.000 C 
ATOM     11  C   UNL     1      46.217   1.825   7.976  0.00  0.00    +0.000 A 
ATOM     12  C   UNL     1      46.617   2.910   7.206  0.00  0.00    +0.000 A 
ATOM     13  C   UNL     1      46.223   4.182   7.596  0.00  0.00    +0.000 A 
ATOM     14  C   UNL     1      45.421   4.334   8.721  0.00  0.00    +0.000 A 
ATOM     15  C   UNL     1      44.973   3.201   9.392  0.00  0.00    +0.000 A 
ATOM     16  N   UNL     1      45.397   1.953   9.050  0.00  0.00    +0.000 NA
ENDBRANCH   9  15
ENDBRANCH   8   9
ENDBRANCH   2   8
ENDBRANCH   1   5
BRANCH   1  17
ATOM     17  N   UNL     1      48.413   6.153  15.775  0.00  0.00    +0.000 N 
ATOM     18  C   UNL     1      48.721   7.538  16.107  0.00  0.00    +0.000 C 
ATOM     19  C   UNL     1      48.471   5.092  16.706  0.00  0.00    +0.000 C 
ATOM     20  O   UNL     1      48.441   3.921  16.340  0.00  0.00    +0.000 OA
BRANCH  19  21
ATOM     21  C   UNL     1      48.505   5.401  18.145  0.00  0.00    +0.000 A 
ATOM     22  C   UNL     1      47.411   5.855  18.856  0.00  0.00    +0.000 A 
ATOM     23  S   UNL     1      47.719   6.080  20.521  0.00  0.00    +0.000 S 
ATOM     24  C   UNL     1      49.295   5.465  20.366  0.00  0.00    +0.000 A 
ATOM     25  N   UNL     1      50.088   5.311  21.461  0.00  0.00    +0.000 NA
ATOM     26  C   UNL     1      51.240   4.778  21.206  0.00  0.00    +0.000 A 
ATOM     27  N   UNL     1      51.675   4.418  19.956  0.00  0.00    +0.000 N 
ATOM     28  C   UNL     1      50.952   4.662  18.805  0.00  0.00    +0.000 A 
ATOM     29  O   UNL     1      51.464   4.527  17.701  0.00  0.00    +0.000 OA
ATOM     30  C   UNL     1      49.608   5.160  19.050  0.00  0.00    +0.000 A 
ATOM     31  H   UNL     1      52.612   4.065  19.825  0.00  0.00    +0.000 HD
ENDBRANCH  19  21
ENDBRANCH   1  17
TORSDOF 6
ENDMDL
MODEL 4
REMARK VINA RESULT:    -7.252      3.486      4.339
REMARK INTER + INTRA:         -10.572
REMARK INTER:                  -9.833
REMARK INTRA:                  -0.739
REMARK UNBOUND:                -0.776
REMARK  Name = 
REMARK  8 active torsions:
REMARK  status: ('A' for Active; 'I' for Inactive)
REMARK    1  A    between atoms: C_1  and  C_2
REMARK    2  A    between atoms: C_6  and  C_7
REMARK    3  A    between atoms: C_7  and  C_8
REMARK    4  A    between atoms: C_8  and  C_9
REMARK    5  A    between atoms: C_12  and  C_13
REMARK    6  A    between atoms: C_13  and  N_14
REMARK    7  A    between atoms: N_14  and  C_15
REMARK    8  A    between atoms: C_16  and  C_18
REMARK                            x       y       z     vdW  Elec       q    Type
REMARK                         _______ _______ _______ _____ _____    ______ ____
ROOT
ATOM      1  C   UNL     1      48.930   7.035  16.292  0.00  0.00    +0.000 C 
ENDROOT
BRANCH   1   5
ATOM      2  C   UNL     1      47.205   6.593  12.421  0.00  0.00    +0.000 A 
ATOM      3  C   UNL     1      47.062   5.542  13.320  0.00  0.00    +0.000 A 
ATOM      4  C   UNL     1      47.695   5.627  14.562  0.00  0.00    +0.000 A 
ATOM      5  C   UNL     1      48.466   6.749  14.883  0.00  0.00    +0.000 A 
ATOM      6  C   UNL     1      48.648   7.687  13.873  0.00  0.00    +0.000 A 
ATOM      7  N   UNL     1      48.038   7.635  12.662  0.00  0.00    +0.000 NA
BRANCH   2   8
ATOM      8  C   UNL     1      46.349   6.675  11.176  0.00  0.00    +0.000 C 
BRANCH   8   9
ATOM      9  C   UNL     1      45.003   5.928  11.278  0.00  0.00    +0.000 C 
BRANCH   9  15
ATOM     10  C   UNL     1      45.978   3.515   7.145  0.00  0.00    +0.000 C 
ATOM     11  C   UNL     1      45.411   3.484   8.535  0.00  0.00    +0.000 A 
ATOM     12  C   UNL     1      44.769   2.340   8.991  0.00  0.00    +0.000 A 
ATOM     13  C   UNL     1      44.097   2.394  10.203  0.00  0.00    +0.000 A 
ATOM     14  C   UNL     1      44.108   3.573  10.939  0.00  0.00    +0.000 A 
ATOM     15  C   UNL     1      44.850   4.654  10.475  0.00  0.00    +0.000 A 
ATOM     16  N   UNL     1      45.468   4.629   9.263  0.00  0.00    +0.000 NA
ENDBRANCH   9  15
ENDBRANCH   8   9
ENDBRANCH   2   8
ENDBRANCH   1   5
BRANCH   1  17
ATOM     17  N   UNL     1      50.162   6.382  16.734  0.00  0.00    +0.000 N 
ATOM     18  C   UNL     1      51.391   6.755  16.042  0.00  0.00    +0.000 C 
ATOM     19  C   UNL     1      50.034   5.230  17.539  0.00  0.00    +0.000 C 
ATOM     20  O   UNL     1      48.934   4.825  17.904  0.00  0.00    +0.000 OA
BRANCH  19  21
ATOM     21  C   UNL     1      51.250   4.539  18.001  0.00  0.00    +0.000 A 
ATOM     22  C   UNL     1      52.210   5.131  18.800  0.00  0.00    +0.000 A 
ATOM     23  S   UNL     1      53.486   4.081  19.231  0.00  0.00    +0.000 S 
ATOM     24  C   UNL     1      52.736   2.766  18.461  0.00  0.00    +0.000 A 
ATOM     25  N   UNL     1      53.284   1.523  18.523  0.00  0.00    +0.000 NA
ATOM     26  C   UNL     1      52.579   0.605  17.943  0.00  0.00    +0.000 A 
ATOM     27  N   UNL     1      51.397   0.830  17.283  0.00  0.00    +0.000 N 
ATOM     28  C   UNL     1      50.864   2.089  17.095  0.00  0.00    +0.000 A 
ATOM     29  O   UNL     1      49.932   2.268  16.321  0.00  0.00    +0.000 OA
ATOM     30  C   UNL     1      51.564   3.138  17.820  0.00  0.00    +0.000 A 
ATOM     31  H   UNL     1      50.932   0.075  16.800  0.00  0.00    +0.000 HD
ENDBRANCH  19  21
ENDBRANCH   1  17
TORSDOF 6
ENDMDL
MODEL 5
REMARK VINA RESULT:    -6.841      3.795      4.965
REMARK INTER + INTRA:         -10.016
REMARK INTER:                  -8.985
REMARK INTRA:                  -1.031
REMARK UNBOUND:                -0.776
REMARK  Name = 
REMARK  8 active torsions:
REMARK  status: ('A' for Active; 'I' for Inactive)
REMARK    1  A    between atoms: C_1  and  C_2
REMARK    2  A    between atoms: C_6  and  C_7
REMARK    3  A    between atoms: C_7  and  C_8
REMARK    4  A    between atoms: C_8  and  C_9
REMARK    5  A    between atoms: C_12  and  C_13
REMARK    6  A    between atoms: C_13  and  N_14
REMARK    7  A    between atoms: N_14  and  C_15
REMARK    8  A    between atoms: C_16  and  C_18
REMARK                            x       y       z     vdW  Elec       q    Type
REMARK                         _______ _______ _______ _____ _____    ______ ____
ROOT
ATOM      1  C   UNL     1      46.210   8.568  13.302  0.00  0.00    +0.000 C 
ENDROOT
BRANCH   1   5
ATOM      2  C   UNL     1      45.160   4.701  11.852  0.00  0.00    +0.000 A 
ATOM      3  C   UNL     1      46.170   4.786  12.804  0.00  0.00    +0.000 A 
ATOM      4  C   UNL     1      46.592   6.048  13.228  0.00  0.00    +0.000 A 
ATOM      5  C   UNL     1      46.011   7.201  12.689  0.00  0.00    +0.000 A 
ATOM      6  C   UNL     1      45.099   7.013  11.657  0.00  0.00    +0.000 A 
ATOM      7  N   UNL     1      44.664   5.800  11.233  0.00  0.00    +0.000 NA
BRANCH   2   8
ATOM      8  C   UNL     1      44.491   3.380  11.543  0.00  0.00    +0.000 C 
BRANCH   8   9
ATOM      9  C   UNL     1      44.012   3.235  10.083  0.00  0.00    +0.000 C 
BRANCH   9  15
ATOM     10  C   UNL     1      46.867   0.099   7.660  0.00  0.00    +0.000 C 
ATOM     11  C   UNL     1      46.355   1.503   7.807  0.00  0.00    +0.000 A 
ATOM     12  C   UNL     1      46.880   2.514   7.013  0.00  0.00    +0.000 A 
ATOM     13  C   UNL     1      46.524   3.826   7.288  0.00  0.00    +0.000 A 
ATOM     14  C   UNL     1      45.638   4.091   8.326  0.00  0.00    +0.000 A 
ATOM     15  C   UNL     1      45.071   3.028   9.021  0.00  0.00    +0.000 A 
ATOM     16  N   UNL     1      45.453   1.742   8.794  0.00  0.00    +0.000 NA
ENDBRANCH   9  15
ENDBRANCH   8   9
ENDBRANCH   2   8
ENDBRANCH   1   5
BRANCH   1  17
ATOM     17  N   UNL     1      47.468   9.254  13.007  0.00  0.00    +0.000 N 
ATOM     18  C   UNL     1      47.607   9.835  11.677  0.00  0.00    +0.000 C 
ATOM     19  C   UNL     1      48.554   9.023  13.880  0.00  0.00    +0.000 C 
ATOM     20  O   UNL     1      48.431   8.321  14.879  0.00  0.00    +0.000 OA
BRANCH  19  21
ATOM     21  C   UNL     1      49.840   9.690  13.616  0.00  0.00    +0.000 A 
ATOM     22  C   UNL     1      50.250  10.842  14.259  0.00  0.00    +0.000 A 
ATOM     23  S   UNL     1      51.809  11.367  13.800  0.00  0.00    +0.000 S 
ATOM     24  C   UNL     1      52.035  10.004  12.812  0.00  0.00    +0.000 A 
ATOM     25  N   UNL     1      53.219   9.798  12.175  0.00  0.00    +0.000 NA
ATOM     26  C   UNL     1      53.273   8.692  11.504  0.00  0.00    +0.000 A 
ATOM     27  N   UNL     1      52.240   7.797  11.392  0.00  0.00    +0.000 N 
ATOM     28  C   UNL     1      50.985   8.019  11.923  0.00  0.00    +0.000 A 
ATOM     29  O   UNL     1      50.038   7.306  11.618  0.00  0.00    +0.000 OA
ATOM     30  C   UNL     1      50.908   9.195  12.775  0.00  0.00    +0.000 A 
ATOM     31  H   UNL     1      52.333   6.984  10.800  0.00  0.00    +0.000 HD
ENDBRANCH  19  21
ENDBRANCH   1  17
TORSDOF 6
ENDMDL
MODEL 6
REMARK VINA RESULT:    -6.728      3.503      7.818
REMARK INTER + INTRA:          -9.863
REMARK INTER:                  -8.342
REMARK INTRA:                  -1.522
REMARK UNBOUND:                -0.776
REMARK  Name = 
REMARK  8 active torsions:
REMARK  status: ('A' for Active; 'I' for Inactive)
REMARK    1  A    between atoms: C_1  and  C_2
REMARK    2  A    between atoms: C_6  and  C_7
REMARK    3  A    between atoms: C_7  and  C_8
REMARK    4  A    between atoms: C_8  and  C_9
REMARK    5  A    between atoms: C_12  and  C_13
REMARK    6  A    between atoms: C_13  and  N_14
REMARK    7  A    between atoms: N_14  and  C_15
REMARK    8  A    between atoms: C_16  and  C_18
REMARK                            x       y       z     vdW  Elec       q    Type
REMARK                         _______ _______ _______ _____ _____    ______ ____
ROOT
ATOM      1  C   UNL     1      49.593   8.950  13.537  0.00  0.00    +0.000 C 
ENDROOT
BRANCH   1   5
ATOM      2  C   UNL     1      50.577   7.556  17.441  0.00  0.00    +0.000 A 
ATOM      3  C   UNL     1      50.156   8.874  17.308  0.00  0.00    +0.000 A 
ATOM      4  C   UNL     1      49.914   9.379  16.030  0.00  0.00    +0.000 A 
ATOM      5  C   UNL     1      50.106   8.569  14.906  0.00  0.00    +0.000 A 
ATOM      6  C   UNL     1      50.645   7.308  15.134  0.00  0.00    +0.000 A 
ATOM      7  N   UNL     1      50.881   6.789  16.365  0.00  0.00    +0.000 NA
BRANCH   2   8
ATOM      8  C   UNL     1      50.611   6.881  18.794  0.00  0.00    +0.000 C 
BRANCH   8   9
ATOM      9  C   UNL     1      49.270   6.249  19.225  0.00  0.00    +0.000 C 
BRANCH   9  15
ATOM     10  C   UNL     1      50.409   1.990  17.124  0.00  0.00    +0.000 C 
ATOM     11  C   UNL     1      49.341   2.957  17.546  0.00  0.00    +0.000 A 
ATOM     12  C   UNL     1      48.019   2.716  17.197  0.00  0.00    +0.000 A 
ATOM     13  C   UNL     1      47.078   3.707  17.438  0.00  0.00    +0.000 A 
ATOM     14  C   UNL     1      47.474   4.894  18.043  0.00  0.00    +0.000 A 
ATOM     15  C   UNL     1      48.794   5.034  18.457  0.00  0.00    +0.000 A 
ATOM     16  N   UNL     1      49.736   4.092  18.178  0.00  0.00    +0.000 NA
ENDBRANCH   9  15
ENDBRANCH   8   9
ENDBRANCH   2   8
ENDBRANCH   1   5
BRANCH   1  17
ATOM     17  N   UNL     1      48.608   8.061  12.922  0.00  0.00    +0.000 N 
ATOM     18  C   UNL     1      48.977   7.445  11.653  0.00  0.00    +0.000 C 
ATOM     19  C   UNL     1      47.283   8.122  13.408  0.00  0.00    +0.000 C 
ATOM     20  O   UNL     1      46.982   8.850  14.349  0.00  0.00    +0.000 OA
BRANCH  19  21
ATOM     21  C   UNL     1      46.260   7.246  12.812  0.00  0.00    +0.000 A 
ATOM     22  C   UNL     1      45.296   7.689  11.926  0.00  0.00    +0.000 A 
ATOM     23  S   UNL     1      44.273   6.450  11.350  0.00  0.00    +0.000 S 
ATOM     24  C   UNL     1      45.159   5.260  12.176  0.00  0.00    +0.000 A 
ATOM     25  N   UNL     1      44.846   3.943  12.041  0.00  0.00    +0.000 NA
ATOM     26  C   UNL     1      45.639   3.143  12.679  0.00  0.00    +0.000 A 
ATOM     27  N   UNL     1      46.691   3.547  13.461  0.00  0.00    +0.000 N 
ATOM     28  C   UNL     1      46.975   4.873  13.721  0.00  0.00    +0.000 A 
ATOM     29  O   UNL     1      47.778   5.185  14.590  0.00  0.00    +0.000 OA
ATOM     30  C   UNL     1      46.179   5.807  12.941  0.00  0.00    +0.000 A 
ATOM     31  H   UNL     1      47.230   2.868  13.980  0.00  0.00    +0.000 HD
ENDBRANCH  19  21
ENDBRANCH   1  17
TORSDOF 6
ENDMDL
MODEL 7
REMARK VINA RESULT:    -6.650      3.543      9.016
REMARK INTER + INTRA:          -9.758
REMARK INTER:                  -8.943
REMARK INTRA:                  -0.815
REMARK UNBOUND:                -0.776
REMARK  Name = 
REMARK  8 active torsions:
REMARK  status: ('A' for Active; 'I' for Inactive)
REMARK    1  A    between atoms: C_1  and  C_2
REMARK    2  A    between atoms: C_6  and  C_7
REMARK    3  A    between atoms: C_7  and  C_8
REMARK    4  A    between atoms: C_8  and  C_9
REMARK    5  A    between atoms: C_12  and  C_13
REMARK    6  A    between atoms: C_13  and  N_14
REMARK    7  A    between atoms: N_14  and  C_15
REMARK    8  A    between atoms: C_16  and  C_18
REMARK                            x       y       z     vdW  Elec       q    Type
REMARK                         _______ _______ _______ _____ _____    ______ ____
ROOT
ATOM      1  C   UNL     1      47.080   8.253  13.040  0.00  0.00    +0.000 C 
ENDROOT
BRANCH   1   5
ATOM      2  C   UNL     1      50.231   8.266  15.908  0.00  0.00    +0.000 A 
ATOM      3  C   UNL     1      48.966   8.659  16.330  0.00  0.00    +0.000 A 
ATOM      4  C   UNL     1      47.938   8.748  15.389  0.00  0.00    +0.000 A 
ATOM      5  C   UNL     1      48.190   8.457  14.045  0.00  0.00    +0.000 A 
ATOM      6  C   UNL     1      49.511   8.194  13.703  0.00  0.00    +0.000 A 
ATOM      7  N   UNL     1      50.527   8.092  14.597  0.00  0.00    +0.000 NA
BRANCH   2   8
ATOM      8  C   UNL     1      51.310   7.910  16.906  0.00  0.00    +0.000 C 
BRANCH   8   9
ATOM      9  C   UNL     1      51.605   6.399  17.012  0.00  0.00    +0.000 C 
BRANCH   9  15
ATOM     10  C   UNL     1      48.876   2.359  16.712  0.00  0.00    +0.000 C 
ATOM     11  C   UNL     1      49.319   3.539  17.527  0.00  0.00    +0.000 A 
ATOM     12  C   UNL     1      48.732   3.782  18.762  0.00  0.00    +0.000 A 
ATOM     13  C   UNL     1      49.025   4.972  19.414  0.00  0.00    +0.000 A 
ATOM     14  C   UNL     1      49.912   5.869  18.833  0.00  0.00    +0.000 A 
ATOM     15  C   UNL     1      50.542   5.524  17.642  0.00  0.00    +0.000 A 
ATOM     16  N   UNL     1      50.223   4.385  16.968  0.00  0.00    +0.000 NA
ENDBRANCH   9  15
ENDBRANCH   8   9
ENDBRANCH   2   8
ENDBRANCH   1   5
BRANCH   1  17
ATOM     17  N   UNL     1      46.571   6.891  12.876  0.00  0.00    +0.000 N 
ATOM     18  C   UNL     1      47.465   5.803  13.253  0.00  0.00    +0.000 C 
ATOM     19  C   UNL     1      45.420   6.719  12.075  0.00  0.00    +0.000 C 
ATOM     20  O   UNL     1      44.835   7.680  11.584  0.00  0.00    +0.000 OA
BRANCH  19  21
ATOM     21  C   UNL     1      44.879   5.364  11.880  0.00  0.00    +0.000 A 
ATOM     22  C   UNL     1      44.147   4.687  12.837  0.00  0.00    +0.000 A 
ATOM     23  S   UNL     1      43.595   3.155  12.322  0.00  0.00    +0.000 S 
ATOM     24  C   UNL     1      44.217   3.397  10.760  0.00  0.00    +0.000 A 
ATOM     25  N   UNL     1      44.014   2.472   9.783  0.00  0.00    +0.000 NA
ATOM     26  C   UNL     1      44.491   2.811   8.628  0.00  0.00    +0.000 A 
ATOM     27  N   UNL     1      45.177   3.972   8.378  0.00  0.00    +0.000 N 
ATOM     28  C   UNL     1      45.508   4.883   9.361  0.00  0.00    +0.000 A 
ATOM     29  O   UNL     1      46.301   5.788   9.139  0.00  0.00    +0.000 OA
ATOM     30  C   UNL     1      44.901   4.599  10.652  0.00  0.00    +0.000 A 
ATOM     31  H   UNL     1      45.575   4.141   7.465  0.00  0.00    +0.000 HD
ENDBRANCH  19  21
ENDBRANCH   1  17
TORSDOF 6
ENDMDL
MODEL 8
REMARK VINA RESULT:    -6.407      1.811      2.703
REMARK INTER + INTRA:          -9.430
REMARK INTER:                  -8.419
REMARK INTRA:                  -1.011
REMARK UNBOUND:                -0.776
REMARK  Name = 
REMARK  8 active torsions:
REMARK  status: ('A' for Active; 'I' for Inactive)
REMARK    1  A    between atoms: C_1  and  C_2
REMARK    2  A    between atoms: C_6  and  C_7
REMARK    3  A    between atoms: C_7  and  C_8
REMARK    4  A    between atoms: C_8  and  C_9
REMARK    5  A    between atoms: C_12  and  C_13
REMARK    6  A    between atoms: C_13  and  N_14
REMARK    7  A    between atoms: N_14  and  C_15
REMARK    8  A    between atoms: C_16  and  C_18
REMARK                            x       y       z     vdW  Elec       q    Type
REMARK                         _______ _______ _______ _____ _____    ______ ____
ROOT
ATOM      1  C   UNL     1      49.794   7.606  15.182  0.00  0.00    +0.000 C 
ENDROOT
BRANCH   1   5
ATOM      2  C   UNL     1      46.225   7.218  12.887  0.00  0.00    +0.000 A 
ATOM      3  C   UNL     1      46.575   8.487  13.334  0.00  0.00    +0.000 A 
ATOM      4  C   UNL     1      47.691   8.625  14.162  0.00  0.00    +0.000 A 
ATOM      5  C   UNL     1      48.430   7.500  14.539  0.00  0.00    +0.000 A 
ATOM      6  C   UNL     1      47.929   6.265  14.142  0.00  0.00    +0.000 A 
ATOM      7  N   UNL     1      46.854   6.102  13.331  0.00  0.00    +0.000 NA
BRANCH   2   8
ATOM      8  C   UNL     1      45.192   7.033  11.797  0.00  0.00    +0.000 C 
BRANCH   8   9
ATOM      9  C   UNL     1      45.752   6.452  10.481  0.00  0.00    +0.000 C 
BRANCH   9  15
ATOM     10  C   UNL     1      43.396   2.364  11.745  0.00  0.00    +0.000 C 
ATOM     11  C   UNL     1      44.086   3.158  10.673  0.00  0.00    +0.000 A 
ATOM     12  C   UNL     1      44.298   2.588   9.424  0.00  0.00    +0.000 A 
ATOM     13  C   UNL     1      45.092   3.266   8.511  0.00  0.00    +0.000 A 
ATOM     14  C   UNL     1      45.629   4.501   8.857  0.00  0.00    +0.000 A 
ATOM     15  C   UNL     1      45.300   5.062  10.086  0.00  0.00    +0.000 A 
ATOM     16  N   UNL     1      44.566   4.383  11.009  0.00  0.00    +0.000 NA
ENDBRANCH   9  15
ENDBRANCH   8   9
ENDBRANCH   2   8
ENDBRANCH   1   5
BRANCH   1  17
ATOM     17  N   UNL     1      49.848   7.555  16.643  0.00  0.00    +0.000 N 
ATOM     18  C   UNL     1      49.897   8.832  17.346  0.00  0.00    +0.000 C 
ATOM     19  C   UNL     1      50.179   6.319  17.239  0.00  0.00    +0.000 C 
ATOM     20  O   UNL     1      50.357   5.311  16.561  0.00  0.00    +0.000 OA
BRANCH  19  21
ATOM     21  C   UNL     1      50.249   6.226  18.707  0.00  0.00    +0.000 A 
ATOM     22  C   UNL     1      51.394   6.488  19.436  0.00  0.00    +0.000 A 
ATOM     23  S   UNL     1      51.176   6.358  21.125  0.00  0.00    +0.000 S 
ATOM     24  C   UNL     1      49.514   6.062  20.942  0.00  0.00    +0.000 A 
ATOM     25  N   UNL     1      48.709   5.933  22.031  0.00  0.00    +0.000 NA
ATOM     26  C   UNL     1      47.457   5.768  21.746  0.00  0.00    +0.000 A 
ATOM     27  N   UNL     1      46.951   5.691  20.473  0.00  0.00    +0.000 N 
ATOM     28  C   UNL     1      47.742   5.699  19.342  0.00  0.00    +0.000 A 
ATOM     29  O   UNL     1      47.276   5.411  18.247  0.00  0.00    +0.000 OA
ATOM     30  C   UNL     1      49.142   5.990  19.607  0.00  0.00    +0.000 A 
ATOM     31  H   UNL     1      45.970   5.499  20.327  0.00  0.00    +0.000 HD
ENDBRANCH  19  21
ENDBRANCH   1  17
TORSDOF 6
ENDMDL
MODEL 9
REMARK VINA RESULT:    -6.155      3.944      8.344
REMARK INTER + INTRA:          -9.090
REMARK INTER:                  -8.234
REMARK INTRA:                  -0.855
REMARK UNBOUND:                -0.776
REMARK  Name = 
REMARK  8 active torsions:
REMARK  status: ('A' for Active; 'I' for Inactive)
REMARK    1  A    between atoms: C_1  and  C_2
REMARK    2  A    between atoms: C_6  and  C_7
REMARK    3  A    between atoms: C_7  and  C_8
REMARK    4  A    between atoms: C_8  and  C_9
REMARK    5  A    between atoms: C_12  and  C_13
REMARK    6  A    between atoms: C_13  and  N_14
REMARK    7  A    between atoms: N_14  and  C_15
REMARK    8  A    between atoms: C_16  and  C_18
REMARK                            x       y       z     vdW  Elec       q    Type
REMARK                         _______ _______ _______ _____ _____    ______ ____
ROOT
ATOM      1  C   UNL     1      50.176   8.703  13.939  0.00  0.00    +0.000 C 
ENDROOT
BRANCH   1   5
ATOM      2  C   UNL     1      52.697   6.573  16.635  0.00  0.00    +0.000 A 
ATOM      3  C   UNL     1      53.301   7.285  15.604  0.00  0.00    +0.000 A 
ATOM      4  C   UNL     1      52.493   7.916  14.657  0.00  0.00    +0.000 A 
ATOM      5  C   UNL     1      51.100   7.820  14.745  0.00  0.00    +0.000 A 
ATOM      6  C   UNL     1      50.597   6.986  15.736  0.00  0.00    +0.000 A 
ATOM      7  N   UNL     1      51.357   6.368  16.675  0.00  0.00    +0.000 NA
BRANCH   2   8
ATOM      8  C   UNL     1      53.500   6.085  17.820  0.00  0.00    +0.000 C 
BRANCH   8   9
ATOM      9  C   UNL     1      52.709   5.192  18.800  0.00  0.00    +0.000 C 
BRANCH   9  15
ATOM     10  C   UNL     1      49.538   2.014  16.877  0.00  0.00    +0.000 C 
ATOM     11  C   UNL     1      50.933   2.288  17.361  0.00  0.00    +0.000 A 
ATOM     12  C   UNL     1      51.856   1.252  17.419  0.00  0.00    +0.000 A 
ATOM     13  C   UNL     1      53.077   1.485  18.035  0.00  0.00    +0.000 A 
ATOM     14  C   UNL     1      53.354   2.747  18.549  0.00  0.00    +0.000 A 
ATOM     15  C   UNL     1      52.427   3.768  18.372  0.00  0.00    +0.000 A 
ATOM     16  N   UNL     1      51.206   3.537  17.817  0.00  0.00    +0.000 NA
ENDBRANCH   9  15
ENDBRANCH   8   9
ENDBRANCH   2   8
ENDBRANCH   1   5
BRANCH   1  17
ATOM     17  N   UNL     1      49.087   8.045  13.216  0.00  0.00    +0.000 N 
ATOM     18  C   UNL     1      49.349   7.664  11.834  0.00  0.00    +0.000 C 
ATOM     19  C   UNL     1      47.794   8.126  13.776  0.00  0.00    +0.000 C 
ATOM     20  O   UNL     1      47.599   8.676  14.856  0.00  0.00    +0.000 OA
BRANCH  19  21
ATOM     21  C   UNL     1      46.668   7.482  13.078  0.00  0.00    +0.000 A 
ATOM     22  C   UNL     1      45.832   8.146  12.201  0.00  0.00    +0.000 A 
ATOM     23  S   UNL     1      44.646   7.142  11.491  0.00  0.00    +0.000 S 
ATOM     24  C   UNL     1      45.287   5.762  12.246  0.00  0.00    +0.000 A 
ATOM     25  N   UNL     1      44.768   4.530  11.992  0.00  0.00    +0.000 NA
ATOM     26  C   UNL     1      45.389   3.563  12.588  0.00  0.00    +0.000 A 
ATOM     27  N   UNL     1      46.456   3.725  13.434  0.00  0.00    +0.000 N 
ATOM     28  C   UNL     1      46.941   4.961  13.812  0.00  0.00    +0.000 A 
ATOM     29  O   UNL     1      47.745   5.068  14.728  0.00  0.00    +0.000 OA
ATOM     30  C   UNL     1      46.346   6.072  13.086  0.00  0.00    +0.000 A 
ATOM     31  H   UNL     1      46.851   2.928  13.913  0.00  0.00    +0.000 HD
ENDBRANCH  19  21
ENDBRANCH   1  17
TORSDOF 6
ENDMDL
