MODEL 1
REMARK VINA RESULT:    -6.521      0.000      0.000
REMARK INTER + INTRA:          -9.056
REMARK INTER:                  -8.808
REMARK INTRA:                  -0.249
REMARK UNBOUND:                -0.249
REMARK  Name = 
REMARK  8 active torsions:
REMARK  status: ('A' for Active; 'I' for Inactive)
REMARK    1  A    between atoms: C_1  and  C_2
REMARK    2  A    between atoms: C_2  and  C_3
REMARK    3  A    between atoms: C_2  and  C_12
REMARK    4  A    between atoms: C_3  and  C_4
REMARK    5  A    between atoms: C_8  and  C_9
REMARK    6  A    between atoms: C_9  and  N_10
REMARK    7  A    between atoms: C_16  and  C_17
REMARK    8  A    between atoms: C_17  and  N_18
REMARK                            x       y       z     vdW  Elec       q    Type
REMARK                         _______ _______ _______ _____ _____    ______ ____
ROOT
ATOM      1  C   UNL     1      45.981   5.484   9.927  0.00  0.00    +0.000 C 
ATOM      2  C   UNL     1      44.619   4.766   9.921  0.00  0.00    +0.000 C 
ENDROOT
BRANCH   2   3
ATOM      3  C   UNL     1      44.593   3.653  11.012  0.00  0.00    +0.000 C 
ATOM      4  C   UNL     1      43.252   3.459  11.731  0.00  0.00    +0.000 C 
ATOM      5  C   UNL     1      42.932   4.686  12.562  0.00  0.00    +0.000 C 
ATOM      6  C   UNL     1      44.030   4.910  13.582  0.00  0.00    +0.000 C 
ATOM      7  C   UNL     1      45.399   4.437  13.132  0.00  0.00    +0.000 C 
ATOM      8  N   UNL     1      45.664   3.889  11.992  0.00  0.00    +0.000 NA
BRANCH   7   9
ATOM      9  C   UNL     1      46.541   4.609  14.129  0.00  0.00    +0.000 C 
BRANCH   9  10
ATOM     10  N   UNL     1      47.277   3.349  14.237  0.00  0.00    +0.000 NA
ATOM     11  H   UNL     1      46.799   2.662  13.649  0.00  0.00    +0.000 HD
ATOM     12  H   UNL     1      47.189   3.000  15.192  0.00  0.00    +0.000 HD
ENDBRANCH   9  10
ENDBRANCH   7   9
ENDBRANCH   2   3
BRANCH   2  13
ATOM     13  C   UNL     1      44.311   4.172   8.526  0.00  0.00    +0.000 C 
BRANCH  13  14
ATOM     14  C   UNL     1      45.275   3.118   8.034  0.00  0.00    +0.000 A 
ATOM     15  C   UNL     1      45.425   1.902   8.710  0.00  0.00    +0.000 A 
ATOM     16  C   UNL     1      46.317   0.939   8.237  0.00  0.00    +0.000 A 
ATOM     17  C   UNL     1      47.073   1.185   7.089  0.00  0.00    +0.000 A 
ATOM     18  C   UNL     1      46.953   2.402   6.408  0.00  0.00    +0.000 A 
ATOM     19  C   UNL     1      46.053   3.362   6.895  0.00  0.00    +0.000 A 
BRANCH  18  20
ATOM     20  C   UNL     1      47.791   2.698   5.191  0.00  0.00    +0.000 C 
BRANCH  20  21
ATOM     21  N   UNL     1      48.037   1.497   4.398  0.00  0.00    +0.000 NA
ATOM     22  H   UNL     1      48.740   1.714   3.691  0.00  0.00    +0.000 HD
ATOM     23  H   UNL     1      47.187   1.245   3.900  0.00  0.00    +0.000 HD
ENDBRANCH  20  21
ENDBRANCH  18  20
ENDBRANCH  13  14
ENDBRANCH   2  13
TORSDOF 7
ENDMDL
MODEL 2
REMARK VINA RESULT:    -5.962      3.043      4.457
REMARK INTER + INTRA:          -8.301
REMARK INTER:                  -7.683
REMARK INTRA:                  -0.619
REMARK UNBOUND:                -0.249
REMARK  Name = 
REMARK  8 active torsions:
REMARK  status: ('A' for Active; 'I' for Inactive)
REMARK    1  A    between atoms: C_1  and  C_2
REMARK    2  A    between atoms: C_2  and  C_3
REMARK    3  A    between atoms: C_2  and  C_12
REMARK    4  A    between atoms: C_3  and  C_4
REMARK    5  A    between atoms: C_8  and  C_9
REMARK    6  A    between atoms: C_9  and  N_10
REMARK    7  A    between atoms: C_16  and  C_17
REMARK    8  A    between atoms: C_17  and  N_18
REMARK                            x       y       z     vdW  Elec       q    Type
REMARK                         _______ _______ _______ _____ _____    ______ ____
ROOT
ATOM      1  C   UNL     1      46.297   5.010  13.616  0.00  0.00    +0.000 C 
ATOM      2  C   UNL     1      46.496   5.972  12.430  0.00  0.00    +0.000 C 
ENDROOT
BRANCH   2   3
ATOM      3  C   UNL     1      46.872   7.394  12.947  0.00  0.00    +0.000 C 
ATOM      4  C   UNL     1      47.482   8.338  11.905  0.00  0.00    +0.000 C 
ATOM      5  C   UNL     1      48.839   7.820  11.471  0.00  0.00    +0.000 C 
ATOM      6  C   UNL     1      49.756   7.726  12.674  0.00  0.00    +0.000 C 
ATOM      7  C   UNL     1      49.039   7.442  13.979  0.00  0.00    +0.000 C 
ATOM      8  N   UNL     1      47.764   7.281  14.113  0.00  0.00    +0.000 NA
BRANCH   7   9
ATOM      9  C   UNL     1      49.906   7.366  15.232  0.00  0.00    +0.000 C 
BRANCH   9  10
ATOM     10  N   UNL     1      51.315   7.459  14.846  0.00  0.00    +0.000 NA
ATOM     11  H   UNL     1      51.841   7.753  15.672  0.00  0.00    +0.000 HD
ATOM     12  H   UNL     1      51.419   8.215  14.170  0.00  0.00    +0.000 HD
ENDBRANCH   9  10
ENDBRANCH   7   9
ENDBRANCH   2   3
BRANCH   2  13
ATOM     13  C   UNL     1      45.228   6.030  11.545  0.00  0.00    +0.000 C 
BRANCH  13  14
ATOM     14  C   UNL     1      44.957   4.803  10.706  0.00  0.00    +0.000 A 
ATOM     15  C   UNL     1      44.194   3.740  11.203  0.00  0.00    +0.000 A 
ATOM     16  C   UNL     1      43.950   2.617  10.411  0.00  0.00    +0.000 A 
ATOM     17  C   UNL     1      44.472   2.543   9.118  0.00  0.00    +0.000 A 
ATOM     18  C   UNL     1      45.253   3.586   8.607  0.00  0.00    +0.000 A 
ATOM     19  C   UNL     1      45.491   4.709   9.414  0.00  0.00    +0.000 A 
BRANCH  18  20
ATOM     20  C   UNL     1      45.855   3.503   7.228  0.00  0.00    +0.000 C 
BRANCH  20  21
ATOM     21  N   UNL     1      47.041   4.344   7.104  0.00  0.00    +0.000 NA
ATOM     22  H   UNL     1      47.782   3.796   6.667  0.00  0.00    +0.000 HD
ATOM     23  H   UNL     1      47.371   4.598   8.031  0.00  0.00    +0.000 HD
ENDBRANCH  20  21
ENDBRANCH  18  20
ENDBRANCH  13  14
ENDBRANCH   2  13
TORSDOF 7
ENDMDL
MODEL 3
REMARK VINA RESULT:    -5.739      2.388      6.729
REMARK INTER + INTRA:          -8.001
REMARK INTER:                  -7.485
REMARK INTRA:                  -0.516
REMARK UNBOUND:                -0.249
REMARK  Name = 
REMARK  8 active torsions:
REMARK  status: ('A' for Active; 'I' for Inactive)
REMARK    1  A    between atoms: C_1  and  C_2
REMARK    2  A    between atoms: C_2  and  C_3
REMARK    3  A    between atoms: C_2  and  C_12
REMARK    4  A    between atoms: C_3  and  C_4
REMARK    5  A    between atoms: C_8  and  C_9
REMARK    6  A    between atoms: C_9  and  N_10
REMARK    7  A    between atoms: C_16  and  C_17
REMARK    8  A    between atoms: C_17  and  N_18
REMARK                            x       y       z     vdW  Elec       q    Type
REMARK                         _______ _______ _______ _____ _____    ______ ____
ROOT
ATOM      1  C   UNL     1      46.584   5.788   9.020  0.00  0.00    +0.000 C 
ATOM      2  C   UNL     1      45.633   4.735   9.616  0.00  0.00    +0.000 C 
ENDROOT
BRANCH   2   3
ATOM      3  C   UNL     1      44.865   3.997   8.477  0.00  0.00    +0.000 C 
ATOM      4  C   UNL     1      44.394   2.576   8.807  0.00  0.00    +0.000 C 
ATOM      5  C   UNL     1      45.592   1.664   8.986  0.00  0.00    +0.000 C 
ATOM      6  C   UNL     1      46.413   1.647   7.712  0.00  0.00    +0.000 C 
ATOM      7  C   UNL     1      46.350   2.937   6.917  0.00  0.00    +0.000 C 
ATOM      8  N   UNL     1      45.678   3.990   7.251  0.00  0.00    +0.000 NA
BRANCH   7   9
ATOM      9  C   UNL     1      47.132   2.971   5.608  0.00  0.00    +0.000 C 
BRANCH   9  10
ATOM     10  N   UNL     1      48.446   2.363   5.818  0.00  0.00    +0.000 NA
ATOM     11  H   UNL     1      48.596   2.294   6.827  0.00  0.00    +0.000 HD
ATOM     12  H   UNL     1      49.162   3.005   5.478  0.00  0.00    +0.000 HD
ENDBRANCH   9  10
ENDBRANCH   7   9
ENDBRANCH   2   3
BRANCH   2  13
ATOM     13  C   UNL     1      44.642   5.383  10.612  0.00  0.00    +0.000 C 
BRANCH  13  14
ATOM     14  C   UNL     1      45.222   6.445  11.518  0.00  0.00    +0.000 A 
ATOM     15  C   UNL     1      44.710   7.746  11.528  0.00  0.00    +0.000 A 
ATOM     16  C   UNL     1      45.256   8.711  12.376  0.00  0.00    +0.000 A 
ATOM     17  C   UNL     1      46.324   8.386  13.215  0.00  0.00    +0.000 A 
ATOM     18  C   UNL     1      46.864   7.095  13.207  0.00  0.00    +0.000 A 
ATOM     19  C   UNL     1      46.306   6.135  12.349  0.00  0.00    +0.000 A 
BRANCH  18  20
ATOM     20  C   UNL     1      48.042   6.740  14.077  0.00  0.00    +0.000 C 
BRANCH  20  21
ATOM     21  N   UNL     1      49.261   6.565  13.294  0.00  0.00    +0.000 NA
ATOM     22  H   UNL     1      49.974   6.149  13.893  0.00  0.00    +0.000 HD
ATOM     23  H   UNL     1      49.611   7.476  13.010  0.00  0.00    +0.000 HD
ENDBRANCH  20  21
ENDBRANCH  18  20
ENDBRANCH  13  14
ENDBRANCH   2  13
TORSDOF 7
ENDMDL
MODEL 4
REMARK VINA RESULT:    -5.697      4.094      6.909
REMARK INTER + INTRA:          -7.944
REMARK INTER:                  -7.144
REMARK INTRA:                  -0.800
REMARK UNBOUND:                -0.249
REMARK  Name = 
REMARK  8 active torsions:
REMARK  status: ('A' for Active; 'I' for Inactive)
REMARK    1  A    between atoms: C_1  and  C_2
REMARK    2  A    between atoms: C_2  and  C_3
REMARK    3  A    between atoms: C_2  and  C_12
REMARK    4  A    between atoms: C_3  and  C_4
REMARK    5  A    between atoms: C_8  and  C_9
REMARK    6  A    between atoms: C_9  and  N_10
REMARK    7  A    between atoms: C_16  and  C_17
REMARK    8  A    between atoms: C_17  and  N_18
REMARK                            x       y       z     vdW  Elec       q    Type
REMARK                         _______ _______ _______ _____ _____    ______ ____
ROOT
ATOM      1  C   UNL     1      46.946   5.212  14.116  0.00  0.00    +0.000 C 
ATOM      2  C   UNL     1      46.771   6.133  12.894  0.00  0.00    +0.000 C 
ENDROOT
BRANCH   2   3
ATOM      3  C   UNL     1      46.192   5.327  11.691  0.00  0.00    +0.000 C 
ATOM      4  C   UNL     1      45.313   6.124  10.721  0.00  0.00    +0.000 C 
ATOM      5  C   UNL     1      44.038   6.557  11.418  0.00  0.00    +0.000 C 
ATOM      6  C   UNL     1      43.285   5.336  11.906  0.00  0.00    +0.000 C 
ATOM      7  C   UNL     1      44.174   4.161  12.264  0.00  0.00    +0.000 C 
ATOM      8  N   UNL     1      45.464   4.147  12.185  0.00  0.00    +0.000 NA
BRANCH   7   9
ATOM      9  C   UNL     1      43.471   2.891  12.733  0.00  0.00    +0.000 C 
BRANCH   9  10
ATOM     10  N   UNL     1      43.025   2.131  11.565  0.00  0.00    +0.000 NA
ATOM     11  H   UNL     1      43.789   1.507  11.294  0.00  0.00    +0.000 HD
ATOM     12  H   UNL     1      42.905   2.774  10.782  0.00  0.00    +0.000 HD
ENDBRANCH   9  10
ENDBRANCH   7   9
ENDBRANCH   2   3
BRANCH   2  13
ATOM     13  C   UNL     1      48.111   6.803  12.509  0.00  0.00    +0.000 C 
BRANCH  13  14
ATOM     14  C   UNL     1      48.026   8.258  12.109  0.00  0.00    +0.000 A 
ATOM     15  C   UNL     1      49.165   8.969  11.718  0.00  0.00    +0.000 A 
ATOM     16  C   UNL     1      49.065  10.311  11.346  0.00  0.00    +0.000 A 
ATOM     17  C   UNL     1      47.827  10.955  11.369  0.00  0.00    +0.000 A 
ATOM     18  C   UNL     1      46.676  10.268  11.774  0.00  0.00    +0.000 A 
ATOM     19  C   UNL     1      46.792   8.919  12.145  0.00  0.00    +0.000 A 
BRANCH  18  20
ATOM     20  C   UNL     1      45.340  10.961  11.841  0.00  0.00    +0.000 C 
BRANCH  20  21
ATOM     21  N   UNL     1      44.327  10.123  12.475  0.00  0.00    +0.000 NA
ATOM     22  H   UNL     1      43.775  10.704  13.106  0.00  0.00    +0.000 HD
ATOM     23  H   UNL     1      44.784   9.419  13.048  0.00  0.00    +0.000 HD
ENDBRANCH  20  21
ENDBRANCH  18  20
ENDBRANCH  13  14
ENDBRANCH   2  13
TORSDOF 7
ENDMDL
MODEL 5
REMARK VINA RESULT:    -5.693      2.912      7.548
REMARK INTER + INTRA:          -7.939
REMARK INTER:                  -6.997
REMARK INTRA:                  -0.941
REMARK UNBOUND:                -0.249
REMARK  Name = 
REMARK  8 active torsions:
REMARK  status: ('A' for Active; 'I' for Inactive)
REMARK    1  A    between atoms: C_1  and  C_2
REMARK    2  A    between atoms: C_2  and  C_3
REMARK    3  A    between atoms: C_2  and  C_12
REMARK    4  A    between atoms: C_3  and  C_4
REMARK    5  A    between atoms: C_8  and  C_9
REMARK    6  A    between atoms: C_9  and  N_10
REMARK    7  A    between atoms: C_16  and  C_17
REMARK    8  A    between atoms: C_17  and  N_18
REMARK                            x       y       z     vdW  Elec       q    Type
REMARK                         _______ _______ _______ _____ _____    ______ ____
ROOT
ATOM      1  C   UNL     1      48.175   7.028  11.522  0.00  0.00    +0.000 C 
ATOM      2  C   UNL     1      47.283   6.484  12.653  0.00  0.00    +0.000 C 
ENDROOT
BRANCH   2   3
ATOM      3  C   UNL     1      45.782   6.562  12.239  0.00  0.00    +0.000 C 
ATOM      4  C   UNL     1      44.794   5.885  13.197  0.00  0.00    +0.000 C 
ATOM      5  C   UNL     1      45.018   4.385  13.192  0.00  0.00    +0.000 C 
ATOM      6  C   UNL     1      44.821   3.846  11.789  0.00  0.00    +0.000 C 
ATOM      7  C   UNL     1      45.174   4.831  10.691  0.00  0.00    +0.000 C 
ATOM      8  N   UNL     1      45.612   6.033  10.877  0.00  0.00    +0.000 NA
BRANCH   7   9
ATOM      9  C   UNL     1      44.968   4.356   9.257  0.00  0.00    +0.000 C 
BRANCH   9  10
ATOM     10  N   UNL     1      45.883   5.082   8.375  0.00  0.00    +0.000 NA
ATOM     11  H   UNL     1      45.617   4.866   7.411  0.00  0.00    +0.000 HD
ATOM     12  H   UNL     1      46.821   4.700   8.492  0.00  0.00    +0.000 HD
ENDBRANCH   9  10
ENDBRANCH   7   9
ENDBRANCH   2   3
BRANCH   2  13
ATOM     13  C   UNL     1      47.527   7.256  13.972  0.00  0.00    +0.000 C 
BRANCH  13  14
ATOM     14  C   UNL     1      48.248   6.491  15.057  0.00  0.00    +0.000 A 
ATOM     15  C   UNL     1      49.413   6.994  15.646  0.00  0.00    +0.000 A 
ATOM     16  C   UNL     1      50.062   6.275  16.651  0.00  0.00    +0.000 A 
ATOM     17  C   UNL     1      49.557   5.042  17.070  0.00  0.00    +0.000 A 
ATOM     18  C   UNL     1      48.403   4.511  16.481  0.00  0.00    +0.000 A 
ATOM     19  C   UNL     1      47.761   5.245  15.472  0.00  0.00    +0.000 A 
BRANCH  18  20
ATOM     20  C   UNL     1      47.869   3.164  16.895  0.00  0.00    +0.000 C 
BRANCH  20  21
ATOM     21  N   UNL     1      46.560   3.273  17.532  0.00  0.00    +0.000 NA
ATOM     22  H   UNL     1      46.560   2.698  18.374  0.00  0.00    +0.000 HD
ATOM     23  H   UNL     1      45.853   2.887  16.912  0.00  0.00    +0.000 HD
ENDBRANCH  20  21
ENDBRANCH  18  20
ENDBRANCH  13  14
ENDBRANCH   2  13
TORSDOF 7
ENDMDL
MODEL 6
REMARK VINA RESULT:    -5.578      3.299      5.267
REMARK INTER + INTRA:          -7.783
REMARK INTER:                  -6.801
REMARK INTRA:                  -0.983
REMARK UNBOUND:                -0.249
REMARK  Name = 
REMARK  8 active torsions:
REMARK  status: ('A' for Active; 'I' for Inactive)
REMARK    1  A    between atoms: C_1  and  C_2
REMARK    2  A    between atoms: C_2  and  C_3
REMARK    3  A    between atoms: C_2  and  C_12
REMARK    4  A    between atoms: C_3  and  C_4
REMARK    5  A    between atoms: C_8  and  C_9
REMARK    6  A    between atoms: C_9  and  N_10
REMARK    7  A    between atoms: C_16  and  C_17
REMARK    8  A    between atoms: C_17  and  N_18
REMARK                            x       y       z     vdW  Elec       q    Type
REMARK                         _______ _______ _______ _____ _____    ______ ____
ROOT
ATOM      1  C   UNL     1      45.085   9.495  12.529  0.00  0.00    +0.000 C 
ATOM      2  C   UNL     1      45.644   8.062  12.464  0.00  0.00    +0.000 C 
ENDROOT
BRANCH   2   3
ATOM      3  C   UNL     1      47.201   8.094  12.401  0.00  0.00    +0.000 C 
ATOM      4  C   UNL     1      47.886   6.732  12.237  0.00  0.00    +0.000 C 
ATOM      5  C   UNL     1      47.664   5.891  13.478  0.00  0.00    +0.000 C 
ATOM      6  C   UNL     1      48.233   6.607  14.687  0.00  0.00    +0.000 C 
ATOM      7  C   UNL     1      48.199   8.119  14.584  0.00  0.00    +0.000 C 
ATOM      8  N   UNL     1      47.734   8.791  13.583  0.00  0.00    +0.000 NA
BRANCH   7   9
ATOM      9  C   UNL     1      48.786   8.897  15.758  0.00  0.00    +0.000 C 
BRANCH   9  10
ATOM     10  N   UNL     1      48.207   8.394  17.004  0.00  0.00    +0.000 NA
ATOM     11  H   UNL     1      48.932   7.858  17.486  0.00  0.00    +0.000 HD
ATOM     12  H   UNL     1      47.474   7.722  16.776  0.00  0.00    +0.000 HD
ENDBRANCH   9  10
ENDBRANCH   7   9
ENDBRANCH   2   3
BRANCH   2  13
ATOM     13  C   UNL     1      45.064   7.296  11.251  0.00  0.00    +0.000 C 
BRANCH  13  14
ATOM     14  C   UNL     1      44.558   5.900  11.537  0.00  0.00    +0.000 A 
ATOM     15  C   UNL     1      43.896   5.601  12.732  0.00  0.00    +0.000 A 
ATOM     16  C   UNL     1      43.432   4.308  12.976  0.00  0.00    +0.000 A 
ATOM     17  C   UNL     1      43.632   3.300  12.030  0.00  0.00    +0.000 A 
ATOM     18  C   UNL     1      44.308   3.573  10.835  0.00  0.00    +0.000 A 
ATOM     19  C   UNL     1      44.770   4.878  10.603  0.00  0.00    +0.000 A 
BRANCH  18  20
ATOM     20  C   UNL     1      44.566   2.487   9.822  0.00  0.00    +0.000 C 
BRANCH  20  21
ATOM     21  N   UNL     1      44.317   2.946   8.460  0.00  0.00    +0.000 NA
ATOM     22  H   UNL     1      45.213   3.045   7.982  0.00  0.00    +0.000 HD
ATOM     23  H   UNL     1      43.896   3.871   8.489  0.00  0.00    +0.000 HD
ENDBRANCH  20  21
ENDBRANCH  18  20
ENDBRANCH  13  14
ENDBRANCH   2  13
TORSDOF 7
ENDMDL
MODEL 7
REMARK VINA RESULT:    -5.558      3.361      5.248
REMARK INTER + INTRA:          -7.756
REMARK INTER:                  -7.192
REMARK INTRA:                  -0.565
REMARK UNBOUND:                -0.249
REMARK  Name = 
REMARK  8 active torsions:
REMARK  status: ('A' for Active; 'I' for Inactive)
REMARK    1  A    between atoms: C_1  and  C_2
REMARK    2  A    between atoms: C_2  and  C_3
REMARK    3  A    between atoms: C_2  and  C_12
REMARK    4  A    between atoms: C_3  and  C_4
REMARK    5  A    between atoms: C_8  and  C_9
REMARK    6  A    between atoms: C_9  and  N_10
REMARK    7  A    between atoms: C_16  and  C_17
REMARK    8  A    between atoms: C_17  and  N_18
REMARK                            x       y       z     vdW  Elec       q    Type
REMARK                         _______ _______ _______ _____ _____    ______ ____
ROOT
ATOM      1  C   UNL     1      46.445   9.115  12.185  0.00  0.00    +0.000 C 
ATOM      2  C   UNL     1      46.034   7.652  12.434  0.00  0.00    +0.000 C 
ENDROOT
BRANCH   2   3
ATOM      3  C   UNL     1      47.224   6.697  12.112  0.00  0.00    +0.000 C 
ATOM      4  C   UNL     1      47.622   5.732  13.235  0.00  0.00    +0.000 C 
ATOM      5  C   UNL     1      48.186   6.511  14.407  0.00  0.00    +0.000 C 
ATOM      6  C   UNL     1      49.399   7.300  13.957  0.00  0.00    +0.000 C 
ATOM      7  C   UNL     1      49.353   7.732  12.504  0.00  0.00    +0.000 C 
ATOM      8  N   UNL     1      48.391   7.482  11.679  0.00  0.00    +0.000 NA
BRANCH   7   9
ATOM      9  C   UNL     1      50.561   8.505  11.984  0.00  0.00    +0.000 C 
BRANCH   9  10
ATOM     10  N   UNL     1      51.518   7.564  11.401  0.00  0.00    +0.000 NA
ATOM     11  H   UNL     1      51.183   6.619  11.603  0.00  0.00    +0.000 HD
ATOM     12  H   UNL     1      52.406   7.652  11.897  0.00  0.00    +0.000 HD
ENDBRANCH   9  10
ENDBRANCH   7   9
ENDBRANCH   2   3
BRANCH   2  13
ATOM     13  C   UNL     1      44.788   7.276  11.597  0.00  0.00    +0.000 C 
BRANCH  13  14
ATOM     14  C   UNL     1      44.385   5.820  11.639  0.00  0.00    +0.000 A 
ATOM     15  C   UNL     1      43.802   5.263  12.782  0.00  0.00    +0.000 A 
ATOM     16  C   UNL     1      43.431   3.918  12.799  0.00  0.00    +0.000 A 
ATOM     17  C   UNL     1      43.648   3.115  11.677  0.00  0.00    +0.000 A 
ATOM     18  C   UNL     1      44.247   3.647  10.529  0.00  0.00    +0.000 A 
ATOM     19  C   UNL     1      44.615   5.001  10.526  0.00  0.00    +0.000 A 
BRANCH  18  20
ATOM     20  C   UNL     1      44.523   2.784   9.326  0.00  0.00    +0.000 C 
BRANCH  20  21
ATOM     21  N   UNL     1      44.356   3.524   8.079  0.00  0.00    +0.000 NA
ATOM     22  H   UNL     1      44.293   4.518   8.298  0.00  0.00    +0.000 HD
ATOM     23  H   UNL     1      43.473   3.261   7.649  0.00  0.00    +0.000 HD
ENDBRANCH  20  21
ENDBRANCH  18  20
ENDBRANCH  13  14
ENDBRANCH   2  13
TORSDOF 7
ENDMDL
MODEL 8
REMARK VINA RESULT:    -5.465      3.844      6.756
REMARK INTER + INTRA:          -7.631
REMARK INTER:                  -7.048
REMARK INTRA:                  -0.583
REMARK UNBOUND:                -0.249
REMARK  Name = 
REMARK  8 active torsions:
REMARK  status: ('A' for Active; 'I' for Inactive)
REMARK    1  A    between atoms: C_1  and  C_2
REMARK    2  A    between atoms: C_2  and  C_3
REMARK    3  A    between atoms: C_2  and  C_12
REMARK    4  A    between atoms: C_3  and  C_4
REMARK    5  A    between atoms: C_8  and  C_9
REMARK    6  A    between atoms: C_9  and  N_10
REMARK    7  A    between atoms: C_16  and  C_17
REMARK    8  A    between atoms: C_17  and  N_18
REMARK                            x       y       z     vdW  Elec       q    Type
REMARK                         _______ _______ _______ _____ _____    ______ ____
ROOT
ATOM      1  C   UNL     1      46.523   6.326  10.963  0.00  0.00    +0.000 C 
ATOM      2  C   UNL     1      45.386   6.038  11.961  0.00  0.00    +0.000 C 
ENDROOT
BRANCH   2   3
ATOM      3  C   UNL     1      44.073   5.692  11.195  0.00  0.00    +0.000 C 
ATOM      4  C   UNL     1      42.961   5.058  12.038  0.00  0.00    +0.000 C 
ATOM      5  C   UNL     1      43.392   3.683  12.509  0.00  0.00    +0.000 C 
ATOM      6  C   UNL     1      43.687   2.805  11.309  0.00  0.00    +0.000 C 
ATOM      7  C   UNL     1      44.194   3.561  10.097  0.00  0.00    +0.000 C 
ATOM      8  N   UNL     1      44.381   4.839  10.036  0.00  0.00    +0.000 NA
BRANCH   7   9
ATOM      9  C   UNL     1      44.481   2.735   8.847  0.00  0.00    +0.000 C 
BRANCH   9  10
ATOM     10  N   UNL     1      45.327   1.597   9.208  0.00  0.00    +0.000 NA
ATOM     11  H   UNL     1      44.714   0.792   9.353  0.00  0.00    +0.000 HD
ATOM     12  H   UNL     1      45.755   1.783  10.115  0.00  0.00    +0.000 HD
ENDBRANCH   9  10
ENDBRANCH   7   9
ENDBRANCH   2   3
BRANCH   2  13
ATOM     13  C   UNL     1      45.165   7.239  12.911  0.00  0.00    +0.000 C 
BRANCH  13  14
ATOM     14  C   UNL     1      45.516   8.596  12.346  0.00  0.00    +0.000 A 
ATOM     15  C   UNL     1      46.732   9.216  12.653  0.00  0.00    +0.000 A 
ATOM     16  C   UNL     1      47.040  10.467  12.117  0.00  0.00    +0.000 A 
ATOM     17  C   UNL     1      46.133  11.113  11.275  0.00  0.00    +0.000 A 
ATOM     18  C   UNL     1      44.902  10.520  10.969  0.00  0.00    +0.000 A 
ATOM     19  C   UNL     1      44.605   9.262  11.515  0.00  0.00    +0.000 A 
BRANCH  18  20
ATOM     20  C   UNL     1      43.897  11.223  10.094  0.00  0.00    +0.000 C 
BRANCH  20  21
ATOM     21  N   UNL     1      43.347  10.332   9.077  0.00  0.00    +0.000 NA
ATOM     22  H   UNL     1      42.490  10.747   8.712  0.00  0.00    +0.000 HD
ATOM     23  H   UNL     1      43.086   9.450   9.509  0.00  0.00    +0.000 HD
ENDBRANCH  20  21
ENDBRANCH  18  20
ENDBRANCH  13  14
ENDBRANCH   2  13
TORSDOF 7
ENDMDL
MODEL 9
REMARK VINA RESULT:    -5.464      4.225      6.054
REMARK INTER + INTRA:          -7.630
REMARK INTER:                  -6.681
REMARK INTRA:                  -0.949
REMARK UNBOUND:                -0.249
REMARK  Name = 
REMARK  8 active torsions:
REMARK  status: ('A' for Active; 'I' for Inactive)
REMARK    1  A    between atoms: C_1  and  C_2
REMARK    2  A    between atoms: C_2  and  C_3
REMARK    3  A    between atoms: C_2  and  C_12
REMARK    4  A    between atoms: C_3  and  C_4
REMARK    5  A    between atoms: C_8  and  C_9
REMARK    6  A    between atoms: C_9  and  N_10
REMARK    7  A    between atoms: C_16  and  C_17
REMARK    8  A    between atoms: C_17  and  N_18
REMARK                            x       y       z     vdW  Elec       q    Type
REMARK                         _______ _______ _______ _____ _____    ______ ____
ROOT
ATOM      1  C   UNL     1      48.702   7.657  11.776  0.00  0.00    +0.000 C 
ATOM      2  C   UNL     1      47.183   7.632  12.030  0.00  0.00    +0.000 C 
ENDROOT
BRANCH   2   3
ATOM      3  C   UNL     1      46.756   8.881  12.860  0.00  0.00    +0.000 C 
ATOM      4  C   UNL     1      45.247   9.139  12.941  0.00  0.00    +0.000 C 
ATOM      5  C   UNL     1      44.713   9.506  11.570  0.00  0.00    +0.000 C 
ATOM      6  C   UNL     1      45.417  10.750  11.067  0.00  0.00    +0.000 C 
ATOM      7  C   UNL     1      46.840  10.903  11.570  0.00  0.00    +0.000 C 
ATOM      8  N   UNL     1      47.449  10.077  12.355  0.00  0.00    +0.000 NA
BRANCH   7   9
ATOM      9  C   UNL     1      47.591  12.153  11.122  0.00  0.00    +0.000 C 
BRANCH   9  10
ATOM     10  N   UNL     1      48.556  11.786  10.086  0.00  0.00    +0.000 NA
ATOM     11  H   UNL     1      48.659  10.769  10.107  0.00  0.00    +0.000 HD
ATOM     12  H   UNL     1      49.470  12.160  10.343  0.00  0.00    +0.000 HD
ENDBRANCH   9  10
ENDBRANCH   7   9
ENDBRANCH   2   3
BRANCH   2  13
ATOM     13  C   UNL     1      46.762   6.328  12.748  0.00  0.00    +0.000 C 
BRANCH  13  14
ATOM     14  C   UNL     1      45.523   5.652  12.208  0.00  0.00    +0.000 A 
ATOM     15  C   UNL     1      44.399   5.449  13.016  0.00  0.00    +0.000 A 
ATOM     16  C   UNL     1      43.262   4.828  12.497  0.00  0.00    +0.000 A 
ATOM     17  C   UNL     1      43.241   4.397  11.169  0.00  0.00    +0.000 A 
ATOM     18  C   UNL     1      44.361   4.573  10.348  0.00  0.00    +0.000 A 
ATOM     19  C   UNL     1      45.498   5.199  10.883  0.00  0.00    +0.000 A 
BRANCH  18  20
ATOM     20  C   UNL     1      44.367   4.078   8.925  0.00  0.00    +0.000 C 
BRANCH  20  21
ATOM     21  N   UNL     1      45.472   4.646   8.159  0.00  0.00    +0.000 NA
ATOM     22  H   UNL     1      45.179   5.551   7.791  0.00  0.00    +0.000 HD
ATOM     23  H   UNL     1      45.665   4.051   7.357  0.00  0.00    +0.000 HD
ENDBRANCH  20  21
ENDBRANCH  18  20
ENDBRANCH  13  14
ENDBRANCH   2  13
TORSDOF 7
ENDMDL
