MODEL 1
REMARK VINA RESULT:    -8.542      0.000      0.000
REMARK INTER + INTRA:         -12.005
REMARK INTER:                 -11.289
REMARK INTRA:                  -0.717
REMARK UNBOUND:                -0.717
REMARK  Name = 
REMARK  6 active torsions:
REMARK  status: ('A' for Active; 'I' for Inactive)
REMARK    1  A    between atoms: C_2  and  C_19
REMARK    2  A    between atoms: N_3  and  C_4
REMARK    3  A    between atoms: C_4  and  C_5
REMARK    4  A    between atoms: C_8  and  C_9
REMARK    5  A    between atoms: C_9  and  O_10
REMARK    6  A    between atoms: C_9  and  C_11
REMARK                            x       y       z     vdW  Elec       q    Type
REMARK                         _______ _______ _______ _____ _____    ______ ____
ROOT
ATOM      1  C   UNL     1      44.398   2.643   9.988  0.00  0.00    +0.000 C 
ENDROOT
BRANCH   1   2
ATOM      2  C   UNL     1      45.216   2.501   8.729  0.00  0.00    +0.000 A 
ATOM      3  C   UNL     1      45.877   1.301   8.441  0.00  0.00    +0.000 A 
ATOM      4  C   UNL     1      46.620   1.162   7.265  0.00  0.00    +0.000 A 
ATOM      5  C   UNL     1      46.734   2.228   6.360  0.00  0.00    +0.000 A 
ATOM      6  C   UNL     1      46.121   3.449   6.684  0.00  0.00    +0.000 A 
ATOM      7  C   UNL     1      45.375   3.587   7.857  0.00  0.00    +0.000 A 
BRANCH   5   8
ATOM      8  C   UNL     1      47.447   2.046   5.036  0.00  0.00    +0.000 C 
BRANCH   8   9
ATOM      9  C   UNL     1      46.826   0.989   4.120  0.00  0.00    +0.000 A 
ATOM     10  N   UNL     1      45.817   1.353   3.300  0.00  0.00    +0.000 NA
ATOM     11  C   UNL     1      45.358   0.408   2.457  0.00  0.00    +0.000 A 
ATOM     12  C   UNL     1      45.856  -0.872   2.404  0.00  0.00    +0.000 A 
ATOM     13  C   UNL     1      46.879  -1.149   3.279  0.00  0.00    +0.000 A 
ATOM     14  N   UNL     1      47.388  -0.246   4.139  0.00  0.00    +0.000 NA
ENDBRANCH   8   9
BRANCH   8  15
ATOM     15  O   UNL     1      48.818   1.722   5.343  0.00  0.00    +0.000 OA
ATOM     16  H   UNL     1      48.871   1.774   6.318  0.00  0.00    +0.000 HD
ENDBRANCH   8  15
ENDBRANCH   5   8
ENDBRANCH   1   2
BRANCH   1  19
ATOM     17  O   UNL     1      43.854   3.208  12.746  0.00  0.00    +0.000 OA
ATOM     18  C   UNL     1      44.501   3.981  12.056  0.00  0.00    +0.000 C 
ATOM     19  N   UNL     1      44.892   3.752  10.754  0.00  0.00    +0.000 N 
ATOM     20  H   UNL     1      45.234   4.528  10.215  0.00  0.00    +0.000 HD
BRANCH  18  21
ATOM     21  C   UNL     1      44.765   5.367  12.431  0.00  0.00    +0.000 A 
ATOM     22  C   UNL     1      44.102   6.441  11.860  0.00  0.00    +0.000 A 
ATOM     23  S   UNL     1      44.998   7.897  12.034  0.00  0.00    +0.000 S 
ATOM     24  C   UNL     1      46.186   7.122  12.983  0.00  0.00    +0.000 A 
ATOM     25  N   UNL     1      47.346   7.729  13.351  0.00  0.00    +0.000 NA
ATOM     26  C   UNL     1      48.103   7.005  14.111  0.00  0.00    +0.000 A 
ATOM     27  N   UNL     1      47.784   5.756  14.584  0.00  0.00    +0.000 N 
ATOM     28  C   UNL     1      46.613   5.112  14.256  0.00  0.00    +0.000 A 
ATOM     29  O   UNL     1      46.298   4.039  14.756  0.00  0.00    +0.000 OA
ATOM     30  C   UNL     1      45.811   5.834  13.292  0.00  0.00    +0.000 A 
ATOM     31  H   UNL     1      48.376   5.281  15.249  0.00  0.00    +0.000 HD
ENDBRANCH  18  21
ENDBRANCH   1  19
TORSDOF 6
ENDMDL
MODEL 2
REMARK VINA RESULT:    -8.064      3.814      6.594
REMARK INTER + INTRA:         -11.373
REMARK INTER:                 -10.470
REMARK INTRA:                  -0.903
REMARK UNBOUND:                -0.717
REMARK  Name = 
REMARK  6 active torsions:
REMARK  status: ('A' for Active; 'I' for Inactive)
REMARK    1  A    between atoms: C_2  and  C_19
REMARK    2  A    between atoms: N_3  and  C_4
REMARK    3  A    between atoms: C_4  and  C_5
REMARK    4  A    between atoms: C_8  and  C_9
REMARK    5  A    between atoms: C_9  and  O_10
REMARK    6  A    between atoms: C_9  and  C_11
REMARK                            x       y       z     vdW  Elec       q    Type
REMARK                         _______ _______ _______ _____ _____    ______ ____
ROOT
ATOM      1  C   UNL     1      48.071   7.413  14.028  0.00  0.00    +0.000 C 
ENDROOT
BRANCH   1   2
ATOM      2  C   UNL     1      47.058   6.690  13.178  0.00  0.00    +0.000 A 
ATOM      3  C   UNL     1      46.373   7.363  12.160  0.00  0.00    +0.000 A 
ATOM      4  C   UNL     1      45.446   6.689  11.358  0.00  0.00    +0.000 A 
ATOM      5  C   UNL     1      45.171   5.331  11.571  0.00  0.00    +0.000 A 
ATOM      6  C   UNL     1      45.814   4.675  12.634  0.00  0.00    +0.000 A 
ATOM      7  C   UNL     1      46.743   5.348  13.432  0.00  0.00    +0.000 A 
BRANCH   5   8
ATOM      8  C   UNL     1      44.250   4.572  10.637  0.00  0.00    +0.000 C 
BRANCH   8   9
ATOM      9  C   UNL     1      44.962   3.842   9.497  0.00  0.00    +0.000 A 
ATOM     10  N   UNL     1      45.570   4.573   8.538  0.00  0.00    +0.000 NA
ATOM     11  C   UNL     1      46.251   3.887   7.601  0.00  0.00    +0.000 A 
ATOM     12  C   UNL     1      46.344   2.515   7.579  0.00  0.00    +0.000 A 
ATOM     13  C   UNL     1      45.690   1.858   8.594  0.00  0.00    +0.000 A 
ATOM     14  N   UNL     1      45.001   2.487   9.564  0.00  0.00    +0.000 NA
ENDBRANCH   8   9
BRANCH   8  15
ATOM     15  O   UNL     1      43.299   5.527  10.126  0.00  0.00    +0.000 OA
ATOM     16  H   UNL     1      43.723   6.396  10.264  0.00  0.00    +0.000 HD
ENDBRANCH   8  15
ENDBRANCH   5   8
ENDBRANCH   1   2
BRANCH   1  19
ATOM     17  O   UNL     1      48.537   8.156  16.758  0.00  0.00    +0.000 OA
ATOM     18  C   UNL     1      48.778   7.027  16.359  0.00  0.00    +0.000 C 
ATOM     19  N   UNL     1      48.499   6.552  15.095  0.00  0.00    +0.000 N 
ATOM     20  H   UNL     1      48.922   5.688  14.806  0.00  0.00    +0.000 HD
BRANCH  18  21
ATOM     21  C   UNL     1      49.607   6.074  17.089  0.00  0.00    +0.000 A 
ATOM     22  C   UNL     1      50.820   6.416  17.664  0.00  0.00    +0.000 A 
ATOM     23  S   UNL     1      51.812   5.035  17.910  0.00  0.00    +0.000 S 
ATOM     24  C   UNL     1      50.576   3.982  17.385  0.00  0.00    +0.000 A 
ATOM     25  N   UNL     1      50.779   2.652  17.179  0.00  0.00    +0.000 NA
ATOM     26  C   UNL     1      49.715   2.003  16.830  0.00  0.00    +0.000 A 
ATOM     27  N   UNL     1      48.459   2.546  16.723  0.00  0.00    +0.000 N 
ATOM     28  C   UNL     1      48.201   3.879  16.942  0.00  0.00    +0.000 A 
ATOM     29  O   UNL     1      47.064   4.334  16.934  0.00  0.00    +0.000 OA
ATOM     30  C   UNL     1      49.394   4.661  17.192  0.00  0.00    +0.000 A 
ATOM     31  H   UNL     1      47.652   1.968  16.537  0.00  0.00    +0.000 HD
ENDBRANCH  18  21
ENDBRANCH   1  19
TORSDOF 6
ENDMDL
MODEL 3
REMARK VINA RESULT:    -7.652      3.711      9.807
REMARK INTER + INTRA:         -10.828
REMARK INTER:                  -9.907
REMARK INTRA:                  -0.922
REMARK UNBOUND:                -0.717
REMARK  Name = 
REMARK  6 active torsions:
REMARK  status: ('A' for Active; 'I' for Inactive)
REMARK    1  A    between atoms: C_2  and  C_19
REMARK    2  A    between atoms: N_3  and  C_4
REMARK    3  A    between atoms: C_4  and  C_5
REMARK    4  A    between atoms: C_8  and  C_9
REMARK    5  A    between atoms: C_9  and  O_10
REMARK    6  A    between atoms: C_9  and  C_11
REMARK                            x       y       z     vdW  Elec       q    Type
REMARK                         _______ _______ _______ _____ _____    ______ ____
ROOT
ATOM      1  C   UNL     1      47.451   6.680  12.805  0.00  0.00    +0.000 C 
ENDROOT
BRANCH   1   2
ATOM      2  C   UNL     1      47.703   6.040  14.147  0.00  0.00    +0.000 A 
ATOM      3  C   UNL     1      47.051   4.854  14.504  0.00  0.00    +0.000 A 
ATOM      4  C   UNL     1      47.298   4.250  15.741  0.00  0.00    +0.000 A 
ATOM      5  C   UNL     1      48.189   4.831  16.656  0.00  0.00    +0.000 A 
ATOM      6  C   UNL     1      48.792   6.054  16.319  0.00  0.00    +0.000 A 
ATOM      7  C   UNL     1      48.548   6.655  15.082  0.00  0.00    +0.000 A 
BRANCH   5   8
ATOM      8  C   UNL     1      48.540   4.124  17.949  0.00  0.00    +0.000 C 
BRANCH   8   9
ATOM      9  C   UNL     1      49.902   3.427  17.942  0.00  0.00    +0.000 A 
ATOM     10  N   UNL     1      50.006   2.213  17.359  0.00  0.00    +0.000 NA
ATOM     11  C   UNL     1      51.240   1.677  17.307  0.00  0.00    +0.000 A 
ATOM     12  C   UNL     1      52.360   2.292  17.812  0.00  0.00    +0.000 A 
ATOM     13  C   UNL     1      52.154   3.522  18.390  0.00  0.00    +0.000 A 
ATOM     14  N   UNL     1      50.947   4.116  18.464  0.00  0.00    +0.000 NA
ENDBRANCH   8   9
BRANCH   8  15
ATOM     15  O   UNL     1      47.479   3.184  18.210  0.00  0.00    +0.000 OA
ATOM     16  H   UNL     1      47.933   2.329  18.342  0.00  0.00    +0.000 HD
ENDBRANCH   8  15
ENDBRANCH   5   8
ENDBRANCH   1   2
BRANCH   1  19
ATOM     17  O   UNL     1      45.115   7.381  11.296  0.00  0.00    +0.000 OA
ATOM     18  C   UNL     1      45.490   6.221  11.382  0.00  0.00    +0.000 C 
ATOM     19  N   UNL     1      46.647   5.801  12.002  0.00  0.00    +0.000 N 
ATOM     20  H   UNL     1      46.755   4.821  12.198  0.00  0.00    +0.000 HD
BRANCH  18  21
ATOM     21  C   UNL     1      44.652   5.077  11.038  0.00  0.00    +0.000 A 
ATOM     22  C   UNL     1      43.607   4.641  11.837  0.00  0.00    +0.000 A 
ATOM     23  S   UNL     1      43.213   2.999  11.517  0.00  0.00    +0.000 S 
ATOM     24  C   UNL     1      44.331   2.921  10.230  0.00  0.00    +0.000 A 
ATOM     25  N   UNL     1      44.644   1.759   9.596  0.00  0.00    +0.000 NA
ATOM     26  C   UNL     1      45.473   1.900   8.612  0.00  0.00    +0.000 A 
ATOM     27  N   UNL     1      45.973   3.100   8.167  0.00  0.00    +0.000 N 
ATOM     28  C   UNL     1      45.667   4.302   8.762  0.00  0.00    +0.000 A 
ATOM     29  O   UNL     1      46.044   5.372   8.302  0.00  0.00    +0.000 OA
ATOM     30  C   UNL     1      44.858   4.163   9.955  0.00  0.00    +0.000 A 
ATOM     31  H   UNL     1      46.543   3.153   7.335  0.00  0.00    +0.000 HD
ENDBRANCH  18  21
ENDBRANCH   1  19
TORSDOF 6
ENDMDL
MODEL 4
REMARK VINA RESULT:    -7.539      3.230      5.488
REMARK INTER + INTRA:         -10.679
REMARK INTER:                  -9.735
REMARK INTRA:                  -0.944
REMARK UNBOUND:                -0.717
REMARK  Name = 
REMARK  6 active torsions:
REMARK  status: ('A' for Active; 'I' for Inactive)
REMARK    1  A    between atoms: C_2  and  C_19
REMARK    2  A    between atoms: N_3  and  C_4
REMARK    3  A    between atoms: C_4  and  C_5
REMARK    4  A    between atoms: C_8  and  C_9
REMARK    5  A    between atoms: C_9  and  O_10
REMARK    6  A    between atoms: C_9  and  C_11
REMARK                            x       y       z     vdW  Elec       q    Type
REMARK                         _______ _______ _______ _____ _____    ______ ____
ROOT
ATOM      1  C   UNL     1      47.028   5.376  14.380  0.00  0.00    +0.000 C 
ENDROOT
BRANCH   1   2
ATOM      2  C   UNL     1      46.319   4.940  13.123  0.00  0.00    +0.000 A 
ATOM      3  C   UNL     1      46.151   5.829  12.056  0.00  0.00    +0.000 A 
ATOM      4  C   UNL     1      45.510   5.420  10.882  0.00  0.00    +0.000 A 
ATOM      5  C   UNL     1      45.006   4.117  10.759  0.00  0.00    +0.000 A 
ATOM      6  C   UNL     1      45.121   3.248  11.857  0.00  0.00    +0.000 A 
ATOM      7  C   UNL     1      45.765   3.655  13.027  0.00  0.00    +0.000 A 
BRANCH   5   8
ATOM      8  C   UNL     1      44.409   3.638   9.451  0.00  0.00    +0.000 C 
BRANCH   8   9
ATOM      9  C   UNL     1      45.433   3.140   8.430  0.00  0.00    +0.000 A 
ATOM     10  N   UNL     1      45.947   4.020   7.545  0.00  0.00    +0.000 NA
ATOM     11  C   UNL     1      46.903   3.552   6.720  0.00  0.00    +0.000 A 
ATOM     12  C   UNL     1      47.358   2.255   6.739  0.00  0.00    +0.000 A 
ATOM     13  C   UNL     1      46.772   1.433   7.672  0.00  0.00    +0.000 A 
ATOM     14  N   UNL     1      45.818   1.843   8.530  0.00  0.00    +0.000 NA
ENDBRANCH   8   9
BRANCH   8  15
ATOM     15  O   UNL     1      43.640   4.736   8.920  0.00  0.00    +0.000 OA
ATOM     16  H   UNL     1      42.897   4.312   8.448  0.00  0.00    +0.000 HD
ENDBRANCH   8  15
ENDBRANCH   5   8
ENDBRANCH   1   2
BRANCH   1  19
ATOM     17  O   UNL     1      49.549   6.130  15.522  0.00  0.00    +0.000 OA
ATOM     18  C   UNL     1      48.935   6.887  14.785  0.00  0.00    +0.000 C 
ATOM     19  N   UNL     1      47.769   6.578  14.117  0.00  0.00    +0.000 N 
ATOM     20  H   UNL     1      47.240   7.328  13.709  0.00  0.00    +0.000 HD
BRANCH  18  21
ATOM     21  C   UNL     1      49.220   8.314  14.678  0.00  0.00    +0.000 A 
ATOM     22  C   UNL     1      49.529   9.105  15.772  0.00  0.00    +0.000 A 
ATOM     23  S   UNL     1      49.227  10.766  15.453  0.00  0.00    +0.000 S 
ATOM     24  C   UNL     1      48.824  10.441  13.828  0.00  0.00    +0.000 A 
ATOM     25  N   UNL     1      48.304  11.383  12.995  0.00  0.00    +0.000 NA
ATOM     26  C   UNL     1      48.107  10.968  11.785  0.00  0.00    +0.000 A 
ATOM     27  N   UNL     1      48.434   9.720  11.315  0.00  0.00    +0.000 N 
ATOM     28  C   UNL     1      48.982   8.742  12.114  0.00  0.00    +0.000 A 
ATOM     29  O   UNL     1      49.354   7.665  11.665  0.00  0.00    +0.000 OA
ATOM     30  C   UNL     1      49.079   9.126  13.506  0.00  0.00    +0.000 A 
ATOM     31  H   UNL     1      48.342   9.487  10.337  0.00  0.00    +0.000 HD
ENDBRANCH  18  21
ENDBRANCH   1  19
TORSDOF 6
ENDMDL
MODEL 5
REMARK VINA RESULT:    -7.395      3.832      6.635
REMARK INTER + INTRA:         -10.489
REMARK INTER:                  -9.678
REMARK INTRA:                  -0.811
REMARK UNBOUND:                -0.717
REMARK  Name = 
REMARK  6 active torsions:
REMARK  status: ('A' for Active; 'I' for Inactive)
REMARK    1  A    between atoms: C_2  and  C_19
REMARK    2  A    between atoms: N_3  and  C_4
REMARK    3  A    between atoms: C_4  and  C_5
REMARK    4  A    between atoms: C_8  and  C_9
REMARK    5  A    between atoms: C_9  and  O_10
REMARK    6  A    between atoms: C_9  and  C_11
REMARK                            x       y       z     vdW  Elec       q    Type
REMARK                         _______ _______ _______ _____ _____    ______ ____
ROOT
ATOM      1  C   UNL     1      47.748   8.275  13.912  0.00  0.00    +0.000 C 
ENDROOT
BRANCH   1   2
ATOM      2  C   UNL     1      46.868   7.385  13.072  0.00  0.00    +0.000 A 
ATOM      3  C   UNL     1      46.974   5.992  13.158  0.00  0.00    +0.000 A 
ATOM      4  C   UNL     1      46.145   5.166  12.393  0.00  0.00    +0.000 A 
ATOM      5  C   UNL     1      45.205   5.716  11.510  0.00  0.00    +0.000 A 
ATOM      6  C   UNL     1      45.145   7.114  11.380  0.00  0.00    +0.000 A 
ATOM      7  C   UNL     1      45.970   7.939  12.148  0.00  0.00    +0.000 A 
BRANCH   5   8
ATOM      8  C   UNL     1      44.232   4.827  10.762  0.00  0.00    +0.000 C 
BRANCH   8   9
ATOM      9  C   UNL     1      44.862   4.003   9.637  0.00  0.00    +0.000 A 
ATOM     10  N   UNL     1      45.478   4.650   8.625  0.00  0.00    +0.000 NA
ATOM     11  C   UNL     1      46.085   3.880   7.702  0.00  0.00    +0.000 A 
ATOM     12  C   UNL     1      46.098   2.505   7.745  0.00  0.00    +0.000 A 
ATOM     13  C   UNL     1      45.442   1.938   8.811  0.00  0.00    +0.000 A 
ATOM     14  N   UNL     1      44.824   2.653   9.771  0.00  0.00    +0.000 NA
ENDBRANCH   8   9
BRANCH   8  15
ATOM     15  O   UNL     1      43.192   5.686  10.253  0.00  0.00    +0.000 OA
ATOM     16  H   UNL     1      42.416   5.100  10.153  0.00  0.00    +0.000 HD
ENDBRANCH   8  15
ENDBRANCH   5   8
ENDBRANCH   1   2
BRANCH   1  19
ATOM     17  O   UNL     1      50.044   6.885  14.923  0.00  0.00    +0.000 OA
ATOM     18  C   UNL     1      49.017   6.973  15.579  0.00  0.00    +0.000 C 
ATOM     19  N   UNL     1      47.900   7.698  15.218  0.00  0.00    +0.000 N 
ATOM     20  H   UNL     1      47.045   7.536  15.719  0.00  0.00    +0.000 HD
BRANCH  18  21
ATOM     21  C   UNL     1      48.728   6.137  16.739  0.00  0.00    +0.000 A 
ATOM     22  C   UNL     1      48.288   4.827  16.633  0.00  0.00    +0.000 A 
ATOM     23  S   UNL     1      47.484   4.317  18.063  0.00  0.00    +0.000 S 
ATOM     24  C   UNL     1      47.847   5.781  18.860  0.00  0.00    +0.000 A 
ATOM     25  N   UNL     1      47.327   6.108  20.074  0.00  0.00    +0.000 NA
ATOM     26  C   UNL     1      47.753   7.235  20.546  0.00  0.00    +0.000 A 
ATOM     27  N   UNL     1      48.693   8.037  19.946  0.00  0.00    +0.000 N 
ATOM     28  C   UNL     1      49.263   7.737  18.731  0.00  0.00    +0.000 A 
ATOM     29  O   UNL     1      50.165   8.411  18.249  0.00  0.00    +0.000 OA
ATOM     30  C   UNL     1      48.700   6.557  18.108  0.00  0.00    +0.000 A 
ATOM     31  H   UNL     1      49.053   8.858  20.410  0.00  0.00    +0.000 HD
ENDBRANCH  18  21
ENDBRANCH   1  19
TORSDOF 6
ENDMDL
MODEL 6
REMARK VINA RESULT:    -7.247      3.157      5.514
REMARK INTER + INTRA:         -10.293
REMARK INTER:                  -9.577
REMARK INTRA:                  -0.716
REMARK UNBOUND:                -0.717
REMARK  Name = 
REMARK  6 active torsions:
REMARK  status: ('A' for Active; 'I' for Inactive)
REMARK    1  A    between atoms: C_2  and  C_19
REMARK    2  A    between atoms: N_3  and  C_4
REMARK    3  A    between atoms: C_4  and  C_5
REMARK    4  A    between atoms: C_8  and  C_9
REMARK    5  A    between atoms: C_9  and  O_10
REMARK    6  A    between atoms: C_9  and  C_11
REMARK                            x       y       z     vdW  Elec       q    Type
REMARK                         _______ _______ _______ _____ _____    ______ ____
ROOT
ATOM      1  C   UNL     1      46.990   5.367  14.293  0.00  0.00    +0.000 C 
ENDROOT
BRANCH   1   2
ATOM      2  C   UNL     1      46.282   4.911  13.042  0.00  0.00    +0.000 A 
ATOM      3  C   UNL     1      46.082   5.795  11.975  0.00  0.00    +0.000 A 
ATOM      4  C   UNL     1      45.442   5.369  10.807  0.00  0.00    +0.000 A 
ATOM      5  C   UNL     1      44.972   4.052  10.689  0.00  0.00    +0.000 A 
ATOM      6  C   UNL     1      45.120   3.187  11.786  0.00  0.00    +0.000 A 
ATOM      7  C   UNL     1      45.762   3.612  12.951  0.00  0.00    +0.000 A 
BRANCH   5   8
ATOM      8  C   UNL     1      44.377   3.557   9.386  0.00  0.00    +0.000 C 
BRANCH   8   9
ATOM      9  C   UNL     1      45.402   3.031   8.380  0.00  0.00    +0.000 A 
ATOM     10  N   UNL     1      45.889   3.878   7.448  0.00  0.00    +0.000 NA
ATOM     11  C   UNL     1      46.847   3.390   6.636  0.00  0.00    +0.000 A 
ATOM     12  C   UNL     1      47.328   2.104   6.713  0.00  0.00    +0.000 A 
ATOM     13  C   UNL     1      46.768   1.317   7.690  0.00  0.00    +0.000 A 
ATOM     14  N   UNL     1      45.814   1.748   8.538  0.00  0.00    +0.000 NA
ENDBRANCH   8   9
BRANCH   8  15
ATOM     15  O   UNL     1      43.623   4.653   8.832  0.00  0.00    +0.000 OA
ATOM     16  H   UNL     1      42.878   4.228   8.363  0.00  0.00    +0.000 HD
ENDBRANCH   8  15
ENDBRANCH   5   8
ENDBRANCH   1   2
BRANCH   1  19
ATOM     17  O   UNL     1      49.489   6.497  15.130  0.00  0.00    +0.000 OA
ATOM     18  C   UNL     1      48.610   7.193  14.645  0.00  0.00    +0.000 C 
ATOM     19  N   UNL     1      47.419   6.728  14.129  0.00  0.00    +0.000 N 
ATOM     20  H   UNL     1      46.685   7.391  13.949  0.00  0.00    +0.000 HD
BRANCH  18  21
ATOM     21  C   UNL     1      48.587   8.649  14.745  0.00  0.00    +0.000 A 
ATOM     22  C   UNL     1      48.476   9.479  13.642  0.00  0.00    +0.000 A 
ATOM     23  S   UNL     1      49.064  11.058  13.981  0.00  0.00    +0.000 S 
ATOM     24  C   UNL     1      49.330  10.670  15.621  0.00  0.00    +0.000 A 
ATOM     25  N   UNL     1      49.977  11.503  16.479  0.00  0.00    +0.000 NA
ATOM     26  C   UNL     1      50.042  11.064  17.695  0.00  0.00    +0.000 A 
ATOM     27  N   UNL     1      49.471   9.899  18.145  0.00  0.00    +0.000 N 
ATOM     28  C   UNL     1      48.789   9.036  17.319  0.00  0.00    +0.000 A 
ATOM     29  O   UNL     1      48.206   8.047  17.747  0.00  0.00    +0.000 OA
ATOM     30  C   UNL     1      48.824   9.426  15.925  0.00  0.00    +0.000 A 
ATOM     31  H   UNL     1      49.477   9.657  19.125  0.00  0.00    +0.000 HD
ENDBRANCH  18  21
ENDBRANCH   1  19
TORSDOF 6
ENDMDL
MODEL 7
REMARK VINA RESULT:    -7.209      3.354      5.944
REMARK INTER + INTRA:         -10.244
REMARK INTER:                  -9.370
REMARK INTRA:                  -0.874
REMARK UNBOUND:                -0.717
REMARK  Name = 
REMARK  6 active torsions:
REMARK  status: ('A' for Active; 'I' for Inactive)
REMARK    1  A    between atoms: C_2  and  C_19
REMARK    2  A    between atoms: N_3  and  C_4
REMARK    3  A    between atoms: C_4  and  C_5
REMARK    4  A    between atoms: C_8  and  C_9
REMARK    5  A    between atoms: C_9  and  O_10
REMARK    6  A    between atoms: C_9  and  C_11
REMARK                            x       y       z     vdW  Elec       q    Type
REMARK                         _______ _______ _______ _____ _____    ______ ____
ROOT
ATOM      1  C   UNL     1      47.725   6.050  14.372  0.00  0.00    +0.000 C 
ENDROOT
BRANCH   1   2
ATOM      2  C   UNL     1      46.829   5.533  13.274  0.00  0.00    +0.000 A 
ATOM      3  C   UNL     1      46.596   6.299  12.126  0.00  0.00    +0.000 A 
ATOM      4  C   UNL     1      45.780   5.813  11.100  0.00  0.00    +0.000 A 
ATOM      5  C   UNL     1      45.165   4.557  11.209  0.00  0.00    +0.000 A 
ATOM      6  C   UNL     1      45.352   3.820  12.390  0.00  0.00    +0.000 A 
ATOM      7  C   UNL     1      46.170   4.303  13.413  0.00  0.00    +0.000 A 
BRANCH   5   8
ATOM      8  C   UNL     1      44.370   3.982  10.054  0.00  0.00    +0.000 C 
BRANCH   8   9
ATOM      9  C   UNL     1      45.221   3.399   8.925  0.00  0.00    +0.000 A 
ATOM     10  N   UNL     1      45.725   4.236   7.993  0.00  0.00    +0.000 NA
ATOM     11  C   UNL     1      46.533   3.686   7.067  0.00  0.00    +0.000 A 
ATOM     12  C   UNL     1      46.851   2.349   7.030  0.00  0.00    +0.000 A 
ATOM     13  C   UNL     1      46.287   1.576   8.017  0.00  0.00    +0.000 A 
ATOM     14  N   UNL     1      45.479   2.067   8.976  0.00  0.00    +0.000 NA
ENDBRANCH   8   9
BRANCH   8  15
ATOM     15  O   UNL     1      43.520   5.040   9.567  0.00  0.00    +0.000 OA
ATOM     16  H   UNL     1      42.621   4.658   9.576  0.00  0.00    +0.000 HD
ENDBRANCH   8  15
ENDBRANCH   5   8
ENDBRANCH   1   2
BRANCH   1  19
ATOM     17  O   UNL     1      47.757   8.820  15.112  0.00  0.00    +0.000 OA
ATOM     18  C   UNL     1      48.461   8.398  14.206  0.00  0.00    +0.000 C 
ATOM     19  N   UNL     1      48.583   7.073  13.844  0.00  0.00    +0.000 N 
ATOM     20  H   UNL     1      49.018   6.858  12.964  0.00  0.00    +0.000 HD
BRANCH  18  21
ATOM     21  C   UNL     1      49.106   9.257  13.219  0.00  0.00    +0.000 A 
ATOM     22  C   UNL     1      48.426  10.239  12.517  0.00  0.00    +0.000 A 
ATOM     23  S   UNL     1      49.246  10.654  11.064  0.00  0.00    +0.000 S 
ATOM     24  C   UNL     1      50.560   9.635  11.445  0.00  0.00    +0.000 A 
ATOM     25  N   UNL     1      51.564   9.368  10.567  0.00  0.00    +0.000 NA
ATOM     26  C   UNL     1      52.500   8.614  11.048  0.00  0.00    +0.000 A 
ATOM     27  N   UNL     1      52.555   8.150  12.339  0.00  0.00    +0.000 N 
ATOM     28  C   UNL     1      51.575   8.412  13.268  0.00  0.00    +0.000 A 
ATOM     29  O   UNL     1      51.679   8.071  14.440  0.00  0.00    +0.000 OA
ATOM     30  C   UNL     1      50.443   9.130  12.721  0.00  0.00    +0.000 A 
ATOM     31  H   UNL     1      53.359   7.643  12.679  0.00  0.00    +0.000 HD
ENDBRANCH  18  21
ENDBRANCH   1  19
TORSDOF 6
ENDMDL
MODEL 8
REMARK VINA RESULT:    -7.161      3.981      6.942
REMARK INTER + INTRA:         -10.180
REMARK INTER:                  -9.146
REMARK INTRA:                  -1.034
REMARK UNBOUND:                -0.717
REMARK  Name = 
REMARK  6 active torsions:
REMARK  status: ('A' for Active; 'I' for Inactive)
REMARK    1  A    between atoms: C_2  and  C_19
REMARK    2  A    between atoms: N_3  and  C_4
REMARK    3  A    between atoms: C_4  and  C_5
REMARK    4  A    between atoms: C_8  and  C_9
REMARK    5  A    between atoms: C_9  and  O_10
REMARK    6  A    between atoms: C_9  and  C_11
REMARK                            x       y       z     vdW  Elec       q    Type
REMARK                         _______ _______ _______ _____ _____    ______ ____
ROOT
ATOM      1  C   UNL     1      48.554   7.277  14.184  0.00  0.00    +0.000 C 
ENDROOT
BRANCH   1   2
ATOM      2  C   UNL     1      47.401   6.690  13.409  0.00  0.00    +0.000 A 
ATOM      3  C   UNL     1      46.643   7.491  12.546  0.00  0.00    +0.000 A 
ATOM      4  C   UNL     1      45.586   6.944  11.812  0.00  0.00    +0.000 A 
ATOM      5  C   UNL     1      45.252   5.588  11.941  0.00  0.00    +0.000 A 
ATOM      6  C   UNL     1      45.975   4.803  12.854  0.00  0.00    +0.000 A 
ATOM      7  C   UNL     1      47.034   5.349  13.584  0.00  0.00    +0.000 A 
BRANCH   5   8
ATOM      8  C   UNL     1      44.179   4.969  11.068  0.00  0.00    +0.000 C 
BRANCH   8   9
ATOM      9  C   UNL     1      44.712   4.128   9.907  0.00  0.00    +0.000 A 
ATOM     10  N   UNL     1      45.369   4.748   8.903  0.00  0.00    +0.000 NA
ATOM     11  C   UNL     1      45.888   3.956   7.946  0.00  0.00    +0.000 A 
ATOM     12  C   UNL     1      45.775   2.586   7.947  0.00  0.00    +0.000 A 
ATOM     13  C   UNL     1      45.086   2.047   9.006  0.00  0.00    +0.000 A 
ATOM     14  N   UNL     1      44.551   2.784   9.999  0.00  0.00    +0.000 NA
ENDBRANCH   8   9
BRANCH   8  15
ATOM     15  O   UNL     1      43.359   6.053  10.587  0.00  0.00    +0.000 OA
ATOM     16  H   UNL     1      42.441   5.757  10.744  0.00  0.00    +0.000 HD
ENDBRANCH   8  15
ENDBRANCH   5   8
ENDBRANCH   1   2
BRANCH   1  19
ATOM     17  O   UNL     1      50.251   7.736  16.450  0.00  0.00    +0.000 OA
ATOM     18  C   UNL     1      49.038   7.656  16.573  0.00  0.00    +0.000 C 
ATOM     19  N   UNL     1      48.138   7.532  15.535  0.00  0.00    +0.000 N 
ATOM     20  H   UNL     1      47.194   7.266  15.752  0.00  0.00    +0.000 HD
BRANCH  18  21
ATOM     21  C   UNL     1      48.370   7.449  17.853  0.00  0.00    +0.000 A 
ATOM     22  C   UNL     1      47.938   8.492  18.656  0.00  0.00    +0.000 A 
ATOM     23  S   UNL     1      47.756   7.995  20.290  0.00  0.00    +0.000 S 
ATOM     24  C   UNL     1      48.113   6.373  19.898  0.00  0.00    +0.000 A 
ATOM     25  N   UNL     1      48.297   5.410  20.841  0.00  0.00    +0.000 NA
ATOM     26  C   UNL     1      48.511   4.229  20.357  0.00  0.00    +0.000 A 
ATOM     27  N   UNL     1      48.501   3.911  19.021  0.00  0.00    +0.000 N 
ATOM     28  C   UNL     1      48.298   4.846  18.033  0.00  0.00    +0.000 A 
ATOM     29  O   UNL     1      48.200   4.536  16.852  0.00  0.00    +0.000 OA
ATOM     30  C   UNL     1      48.201   6.200  18.535  0.00  0.00    +0.000 A 
ATOM     31  H   UNL     1      48.582   2.954  18.711  0.00  0.00    +0.000 HD
ENDBRANCH  18  21
ENDBRANCH   1  19
TORSDOF 6
ENDMDL
MODEL 9
REMARK VINA RESULT:    -7.043      3.449      6.133
REMARK INTER + INTRA:         -10.024
REMARK INTER:                  -9.132
REMARK INTRA:                  -0.892
REMARK UNBOUND:                -0.717
REMARK  Name = 
REMARK  6 active torsions:
REMARK  status: ('A' for Active; 'I' for Inactive)
REMARK    1  A    between atoms: C_2  and  C_19
REMARK    2  A    between atoms: N_3  and  C_4
REMARK    3  A    between atoms: C_4  and  C_5
REMARK    4  A    between atoms: C_8  and  C_9
REMARK    5  A    between atoms: C_9  and  O_10
REMARK    6  A    between atoms: C_9  and  C_11
REMARK                            x       y       z     vdW  Elec       q    Type
REMARK                         _______ _______ _______ _____ _____    ______ ____
ROOT
ATOM      1  C   UNL     1      47.956   6.381  14.071  0.00  0.00    +0.000 C 
ENDROOT
BRANCH   1   2
ATOM      2  C   UNL     1      47.005   5.785  13.064  0.00  0.00    +0.000 A 
ATOM      3  C   UNL     1      46.731   6.450  11.863  0.00  0.00    +0.000 A 
ATOM      4  C   UNL     1      45.864   5.890  10.920  0.00  0.00    +0.000 A 
ATOM      5  C   UNL     1      45.238   4.660  11.167  0.00  0.00    +0.000 A 
ATOM      6  C   UNL     1      45.467   4.026  12.399  0.00  0.00    +0.000 A 
ATOM      7  C   UNL     1      46.337   4.584  13.339  0.00  0.00    +0.000 A 
BRANCH   5   8
ATOM      8  C   UNL     1      44.385   3.998  10.103  0.00  0.00    +0.000 C 
BRANCH   8   9
ATOM      9  C   UNL     1      45.176   3.377   8.950  0.00  0.00    +0.000 A 
ATOM     10  N   UNL     1      45.617   4.181   7.958  0.00  0.00    +0.000 NA
ATOM     11  C   UNL     1      46.375   3.601   7.009  0.00  0.00    +0.000 A 
ATOM     12  C   UNL     1      46.703   2.266   7.006  0.00  0.00    +0.000 A 
ATOM     13  C   UNL     1      46.205   1.529   8.054  0.00  0.00    +0.000 A 
ATOM     14  N   UNL     1      45.449   2.051   9.038  0.00  0.00    +0.000 NA
ENDBRANCH   8   9
BRANCH   8  15
ATOM     15  O   UNL     1      43.471   5.004   9.620  0.00  0.00    +0.000 OA
ATOM     16  H   UNL     1      42.991   4.570   8.887  0.00  0.00    +0.000 HD
ENDBRANCH   8  15
ENDBRANCH   5   8
ENDBRANCH   1   2
BRANCH   1  19
ATOM     17  O   UNL     1      47.715   9.142  14.808  0.00  0.00    +0.000 OA
ATOM     18  C   UNL     1      48.391   8.798  13.850  0.00  0.00    +0.000 C 
ATOM     19  N   UNL     1      48.642   7.494  13.478  0.00  0.00    +0.000 N 
ATOM     20  H   UNL     1      49.029   7.324  12.567  0.00  0.00    +0.000 HD
BRANCH  18  21
ATOM     21  C   UNL     1      48.850   9.720  12.816  0.00  0.00    +0.000 A 
ATOM     22  C   UNL     1      50.190   9.951  12.553  0.00  0.00    +0.000 A 
ATOM     23  S   UNL     1      50.425  11.455  11.755  0.00  0.00    +0.000 S 
ATOM     24  C   UNL     1      48.744  11.722  11.640  0.00  0.00    +0.000 A 
ATOM     25  N   UNL     1      48.213  12.899  11.211  0.00  0.00    +0.000 NA
ATOM     26  C   UNL     1      46.920  12.902  11.142  0.00  0.00    +0.000 A 
ATOM     27  N   UNL     1      46.113  11.823  11.406  0.00  0.00    +0.000 N 
ATOM     28  C   UNL     1      46.606  10.607  11.821  0.00  0.00    +0.000 A 
ATOM     29  O   UNL     1      45.886   9.626  11.964  0.00  0.00    +0.000 OA
ATOM     30  C   UNL     1      48.035  10.614  12.048  0.00  0.00    +0.000 A 
ATOM     31  H   UNL     1      45.118  11.861  11.243  0.00  0.00    +0.000 HD
ENDBRANCH  18  21
ENDBRANCH   1  19
TORSDOF 6
ENDMDL
