MODEL 1
REMARK VINA RESULT:    -6.790      0.000      0.000
REMARK INTER + INTRA:         -10.019
REMARK INTER:                  -9.966
REMARK INTRA:                  -0.054
REMARK UNBOUND:                -0.054
REMARK  Name = 
REMARK  13 active torsions:
REMARK  status: ('A' for Active; 'I' for Inactive)
REMARK    1  A    between atoms: C_1  and  O_2
REMARK    2  A    between atoms: O_2  and  C_3
REMARK    3  A    between atoms: C_5  and  C_6
REMARK    4  A    between atoms: C_6  and  C_7
REMARK    5  A    between atoms: C_6  and  C_8
REMARK    6  A    between atoms: C_8  and  N_9
REMARK    7  A    between atoms: N_9  and  C_10
REMARK    8  A    between atoms: C_13  and  C_14
REMARK    9  A    between atoms: N_16  and  C_17
REMARK   10  A    between atoms: N_16  and  C_18
REMARK   11  A    between atoms: C_24  and  O_25
REMARK   12  A    between atoms: O_25  and  C_26
REMARK   13  A    between atoms: N_28  and  C_29
REMARK                            x       y       z     vdW  Elec       q    Type
REMARK                         _______ _______ _______ _____ _____    ______ ____
ROOT
ATOM      1  C   UNL     1      45.884   4.569  12.679  0.00  0.00    +0.000 C 
ATOM      2  C   UNL     1      46.623   3.518  13.526  0.00  0.00    +0.000 C 
ENDROOT
BRANCH   1   5
ATOM      3  C   UNL     1      48.264   7.384  13.776  0.00  0.00    +0.000 A 
ATOM      4  C   UNL     1      47.737   6.119  13.462  0.00  0.00    +0.000 A 
ATOM      5  C   UNL     1      46.424   5.966  12.980  0.00  0.00    +0.000 A 
ATOM      6  C   UNL     1      45.665   7.129  12.805  0.00  0.00    +0.000 A 
ATOM      7  C   UNL     1      46.183   8.386  13.099  0.00  0.00    +0.000 A 
ATOM      8  F   UNL     1      45.378   9.440  12.905  0.00  0.00    +0.000 F 
ATOM      9  C   UNL     1      47.481   8.536  13.589  0.00  0.00    +0.000 A 
BRANCH   3  11
ATOM     10  C   UNL     1      49.790   6.929  15.544  0.00  0.00    +0.000 C 
ATOM     11  O   UNL     1      49.517   7.577  14.308  0.00  0.00    +0.000 OA
ENDBRANCH   3  11
BRANCH   9  12
ATOM     12  O   UNL     1      48.044   9.746  13.927  0.00  0.00    +0.000 OA
BRANCH  12  13
ATOM     13  C   UNL     1      48.662  10.544  12.889  0.00  0.00    +0.000 C 
ATOM     14  C   UNL     1      47.782  11.595  12.174  0.00  0.00    +0.000 C 
ATOM     15  N   UNL     1      48.190  11.063  10.858  0.00  0.00    +0.000 NA
ATOM     16  C   UNL     1      49.241  11.895  10.273  0.00  0.00    +0.000 C 
ATOM     17  C   UNL     1      48.768   9.869  11.505  0.00  0.00    +0.000 C 
ENDBRANCH  12  13
ENDBRANCH   9  12
ENDBRANCH   1   5
BRANCH   1  18
ATOM     18  C   UNL     1      44.366   4.373  12.913  0.00  0.00    +0.000 C 
BRANCH  18  19
ATOM     19  N   UNL     1      43.600   4.484  11.667  0.00  0.00    +0.000 N 
ATOM     20  H   UNL     1      43.024   5.321  11.612  0.00  0.00    +0.000 HD
BRANCH  19  21
ATOM     21  C   UNL     1      44.229   4.153  10.467  0.00  0.00    +0.000 A 
ATOM     22  C   UNL     1      44.945   5.032   9.672  0.00  0.00    +0.000 A 
ATOM     23  N   UNL     1      45.600   4.700   8.544  0.00  0.00    +0.000 NA
ATOM     24  C   UNL     1      45.585   3.397   8.205  0.00  0.00    +0.000 A 
ATOM     25  N   UNL     1      44.983   2.427   8.921  0.00  0.00    +0.000 NA
ATOM     26  C   UNL     1      44.330   2.838  10.032  0.00  0.00    +0.000 A 
BRANCH  24  27
ATOM     27  C   UNL     1      46.389   3.031   6.976  0.00  0.00    +0.000 C 
ATOM     28  O   UNL     1      46.511   3.893   6.100  0.00  0.00    +0.000 OA
ATOM     29  N   UNL     1      46.969   1.758   6.815  0.00  0.00    +0.000 N 
ATOM     30  C   UNL     1      46.782   0.603   7.679  0.00  0.00    +0.000 C 
ATOM     31  C   UNL     1      47.754   1.515   5.615  0.00  0.00    +0.000 C 
ENDBRANCH  24  27
ENDBRANCH  19  21
ENDBRANCH  18  19
ENDBRANCH   1  18
TORSDOF 8
ENDMDL
MODEL 2
REMARK VINA RESULT:    -6.738      1.165      1.999
REMARK INTER + INTRA:          -9.942
REMARK INTER:                  -9.943
REMARK INTRA:                   0.001
REMARK UNBOUND:                -0.054
REMARK  Name = 
REMARK  13 active torsions:
REMARK  status: ('A' for Active; 'I' for Inactive)
REMARK    1  A    between atoms: C_1  and  O_2
REMARK    2  A    between atoms: O_2  and  C_3
REMARK    3  A    between atoms: C_5  and  C_6
REMARK    4  A    between atoms: C_6  and  C_7
REMARK    5  A    between atoms: C_6  and  C_8
REMARK    6  A    between atoms: C_8  and  N_9
REMARK    7  A    between atoms: N_9  and  C_10
REMARK    8  A    between atoms: C_13  and  C_14
REMARK    9  A    between atoms: N_16  and  C_17
REMARK   10  A    between atoms: N_16  and  C_18
REMARK   11  A    between atoms: C_24  and  O_25
REMARK   12  A    between atoms: O_25  and  C_26
REMARK   13  A    between atoms: N_28  and  C_29
REMARK                            x       y       z     vdW  Elec       q    Type
REMARK                         _______ _______ _______ _____ _____    ______ ____
ROOT
ATOM      1  C   UNL     1      45.619   4.474  12.536  0.00  0.00    +0.000 C 
ATOM      2  C   UNL     1      46.305   3.316  13.283  0.00  0.00    +0.000 C 
ENDROOT
BRANCH   1   5
ATOM      3  C   UNL     1      46.125   8.254  13.032  0.00  0.00    +0.000 A 
ATOM      4  C   UNL     1      45.558   7.006  12.719  0.00  0.00    +0.000 A 
ATOM      5  C   UNL     1      46.265   5.805  12.917  0.00  0.00    +0.000 A 
ATOM      6  C   UNL     1      47.552   5.899  13.457  0.00  0.00    +0.000 A 
ATOM      7  C   UNL     1      48.115   7.129  13.783  0.00  0.00    +0.000 A 
ATOM      8  F   UNL     1      49.356   7.118  14.289  0.00  0.00    +0.000 F 
ATOM      9  C   UNL     1      47.419   8.320  13.575  0.00  0.00    +0.000 A 
BRANCH   3  11
ATOM     10  C   UNL     1      44.810   9.583  11.561  0.00  0.00    +0.000 C 
ATOM     11  O   UNL     1      45.499   9.455  12.798  0.00  0.00    +0.000 OA
ENDBRANCH   3  11
BRANCH   9  12
ATOM     12  O   UNL     1      47.928   9.570  13.849  0.00  0.00    +0.000 OA
BRANCH  12  13
ATOM     13  C   UNL     1      48.897  10.145  12.940  0.00  0.00    +0.000 C 
ATOM     14  C   UNL     1      48.540  11.491  12.270  0.00  0.00    +0.000 C 
ATOM     15  N   UNL     1      48.857  10.932  10.940  0.00  0.00    +0.000 NA
ATOM     16  C   UNL     1      50.194  11.347  10.515  0.00  0.00    +0.000 C 
ATOM     17  C   UNL     1      48.890   9.569  11.508  0.00  0.00    +0.000 C 
ENDBRANCH  12  13
ENDBRANCH   9  12
ENDBRANCH   1   5
BRANCH   1  18
ATOM     18  C   UNL     1      44.098   4.365  12.804  0.00  0.00    +0.000 C 
BRANCH  18  19
ATOM     19  N   UNL     1      43.335   4.176  11.566  0.00  0.00    +0.000 N 
ATOM     20  H   UNL     1      42.576   4.843  11.445  0.00  0.00    +0.000 HD
BRANCH  19  21
ATOM     21  C   UNL     1      44.031   3.895  10.391  0.00  0.00    +0.000 A 
ATOM     22  C   UNL     1      44.657   4.835   9.590  0.00  0.00    +0.000 A 
ATOM     23  N   UNL     1      45.378   4.558   8.487  0.00  0.00    +0.000 NA
ATOM     24  C   UNL     1      45.530   3.254   8.184  0.00  0.00    +0.000 A 
ATOM     25  N   UNL     1      45.031   2.236   8.912  0.00  0.00    +0.000 NA
ATOM     26  C   UNL     1      44.303   2.591   9.995  0.00  0.00    +0.000 A 
BRANCH  24  27
ATOM     27  C   UNL     1      46.405   2.960   6.985  0.00  0.00    +0.000 C 
ATOM     28  O   UNL     1      46.559   3.864   6.157  0.00  0.00    +0.000 OA
ATOM     29  N   UNL     1      47.016   1.705   6.798  0.00  0.00    +0.000 N 
ATOM     30  C   UNL     1      46.804   0.508   7.596  0.00  0.00    +0.000 C 
ATOM     31  C   UNL     1      47.869   1.531   5.632  0.00  0.00    +0.000 C 
ENDBRANCH  24  27
ENDBRANCH  19  21
ENDBRANCH  18  19
ENDBRANCH   1  18
TORSDOF 8
ENDMDL
MODEL 3
REMARK VINA RESULT:    -6.642      2.065      2.485
REMARK INTER + INTRA:          -9.801
REMARK INTER:                  -9.460
REMARK INTRA:                  -0.341
REMARK UNBOUND:                -0.054
REMARK  Name = 
REMARK  13 active torsions:
REMARK  status: ('A' for Active; 'I' for Inactive)
REMARK    1  A    between atoms: C_1  and  O_2
REMARK    2  A    between atoms: O_2  and  C_3
REMARK    3  A    between atoms: C_5  and  C_6
REMARK    4  A    between atoms: C_6  and  C_7
REMARK    5  A    between atoms: C_6  and  C_8
REMARK    6  A    between atoms: C_8  and  N_9
REMARK    7  A    between atoms: N_9  and  C_10
REMARK    8  A    between atoms: C_13  and  C_14
REMARK    9  A    between atoms: N_16  and  C_17
REMARK   10  A    between atoms: N_16  and  C_18
REMARK   11  A    between atoms: C_24  and  O_25
REMARK   12  A    between atoms: O_25  and  C_26
REMARK   13  A    between atoms: N_28  and  C_29
REMARK                            x       y       z     vdW  Elec       q    Type
REMARK                         _______ _______ _______ _____ _____    ______ ____
ROOT
ATOM      1  C   UNL     1      45.460   5.171  12.247  0.00  0.00    +0.000 C 
ATOM      2  C   UNL     1      45.068   4.379  13.507  0.00  0.00    +0.000 C 
ENDROOT
BRANCH   1   5
ATOM      3  C   UNL     1      48.623   6.531  13.960  0.00  0.00    +0.000 A 
ATOM      4  C   UNL     1      47.484   5.762  13.661  0.00  0.00    +0.000 A 
ATOM      5  C   UNL     1      46.705   6.014  12.517  0.00  0.00    +0.000 A 
ATOM      6  C   UNL     1      47.118   7.051  11.673  0.00  0.00    +0.000 A 
ATOM      7  C   UNL     1      48.252   7.808  11.955  0.00  0.00    +0.000 A 
ATOM      8  F   UNL     1      48.565   8.784  11.091  0.00  0.00    +0.000 F 
ATOM      9  C   UNL     1      49.018   7.566  13.095  0.00  0.00    +0.000 A 
BRANCH   3  11
ATOM     10  C   UNL     1      48.741   6.660  16.333  0.00  0.00    +0.000 C 
ATOM     11  O   UNL     1      49.378   6.364  15.097  0.00  0.00    +0.000 OA
ENDBRANCH   3  11
BRANCH   9  12
ATOM     12  O   UNL     1      50.132   8.294  13.447  0.00  0.00    +0.000 OA
BRANCH  12  13
ATOM     13  C   UNL     1      49.978   9.697  13.769  0.00  0.00    +0.000 C 
ATOM     14  C   UNL     1      50.954  10.307  14.800  0.00  0.00    +0.000 C 
ATOM     15  N   UNL     1      49.820  10.857  15.571  0.00  0.00    +0.000 NA
ATOM     16  C   UNL     1      49.633  12.275  15.265  0.00  0.00    +0.000 C 
ATOM     17  C   UNL     1      48.876  10.027  14.797  0.00  0.00    +0.000 C 
ENDBRANCH  12  13
ENDBRANCH   9  12
ENDBRANCH   1   5
BRANCH   1  18
ATOM     18  C   UNL     1      44.208   5.955  11.782  0.00  0.00    +0.000 C 
BRANCH  18  19
ATOM     19  N   UNL     1      43.702   5.466  10.494  0.00  0.00    +0.000 N 
ATOM     20  H   UNL     1      43.355   6.203   9.883  0.00  0.00    +0.000 HD
BRANCH  19  21
ATOM     21  C   UNL     1      44.422   4.474   9.830  0.00  0.00    +0.000 A 
ATOM     22  C   UNL     1      44.143   3.119   9.878  0.00  0.00    +0.000 A 
ATOM     23  N   UNL     1      44.802   2.166   9.191  0.00  0.00    +0.000 NA
ATOM     24  C   UNL     1      45.773   2.592   8.360  0.00  0.00    +0.000 A 
ATOM     25  N   UNL     1      46.103   3.884   8.167  0.00  0.00    +0.000 NA
ATOM     26  C   UNL     1      45.411   4.782   8.905  0.00  0.00    +0.000 A 
BRANCH  24  27
ATOM     27  C   UNL     1      46.450   1.515   7.541  0.00  0.00    +0.000 C 
ATOM     28  O   UNL     1      46.631   0.419   8.081  0.00  0.00    +0.000 OA
ATOM     29  N   UNL     1      46.878   1.742   6.219  0.00  0.00    +0.000 N 
ATOM     30  C   UNL     1      46.875   3.013   5.511  0.00  0.00    +0.000 C 
ATOM     31  C   UNL     1      47.486   0.633   5.501  0.00  0.00    +0.000 C 
ENDBRANCH  24  27
ENDBRANCH  19  21
ENDBRANCH  18  19
ENDBRANCH   1  18
TORSDOF 8
ENDMDL
MODEL 4
REMARK VINA RESULT:    -6.595      3.488      8.152
REMARK INTER + INTRA:          -9.733
REMARK INTER:                  -8.430
REMARK INTRA:                  -1.302
REMARK UNBOUND:                -0.054
REMARK  Name = 
REMARK  13 active torsions:
REMARK  status: ('A' for Active; 'I' for Inactive)
REMARK    1  A    between atoms: C_1  and  O_2
REMARK    2  A    between atoms: O_2  and  C_3
REMARK    3  A    between atoms: C_5  and  C_6
REMARK    4  A    between atoms: C_6  and  C_7
REMARK    5  A    between atoms: C_6  and  C_8
REMARK    6  A    between atoms: C_8  and  N_9
REMARK    7  A    between atoms: N_9  and  C_10
REMARK    8  A    between atoms: C_13  and  C_14
REMARK    9  A    between atoms: N_16  and  C_17
REMARK   10  A    between atoms: N_16  and  C_18
REMARK   11  A    between atoms: C_24  and  O_25
REMARK   12  A    between atoms: O_25  and  C_26
REMARK   13  A    between atoms: N_28  and  C_29
REMARK                            x       y       z     vdW  Elec       q    Type
REMARK                         _______ _______ _______ _____ _____    ______ ____
ROOT
ATOM      1  C   UNL     1      48.964   9.597  12.723  0.00  0.00    +0.000 C 
ATOM      2  C   UNL     1      48.807  10.696  11.657  0.00  0.00    +0.000 C 
ENDROOT
BRANCH   1   5
ATOM      3  C   UNL     1      45.650   7.863  11.829  0.00  0.00    +0.000 A 
ATOM      4  C   UNL     1      46.648   8.836  12.013  0.00  0.00    +0.000 A 
ATOM      5  C   UNL     1      47.920   8.502  12.513  0.00  0.00    +0.000 A 
ATOM      6  C   UNL     1      48.163   7.154  12.802  0.00  0.00    +0.000 A 
ATOM      7  C   UNL     1      47.185   6.183  12.609  0.00  0.00    +0.000 A 
ATOM      8  F   UNL     1      47.509   4.920  12.921  0.00  0.00    +0.000 F 
ATOM      9  C   UNL     1      45.920   6.517  12.126  0.00  0.00    +0.000 A 
BRANCH   3  11
ATOM     10  C   UNL     1      44.127   9.490  10.996  0.00  0.00    +0.000 C 
ATOM     11  O   UNL     1      44.374   8.151  11.404  0.00  0.00    +0.000 OA
ENDBRANCH   3  11
BRANCH   9  12
ATOM     12  O   UNL     1      44.900   5.610  11.940  0.00  0.00    +0.000 OA
BRANCH  12  13
ATOM     13  C   UNL     1      45.043   4.598  10.915  0.00  0.00    +0.000 C 
ATOM     14  C   UNL     1      43.850   4.373   9.958  0.00  0.00    +0.000 C 
ATOM     15  N   UNL     1      43.885   2.922  10.231  0.00  0.00    +0.000 NA
ATOM     16  C   UNL     1      44.575   2.215   9.153  0.00  0.00    +0.000 C 
ATOM     17  C   UNL     1      44.793   3.146  11.373  0.00  0.00    +0.000 C 
ENDBRANCH  12  13
ENDBRANCH   9  12
ENDBRANCH   1   5
BRANCH   1  18
ATOM     18  C   UNL     1      48.943  10.286  14.110  0.00  0.00    +0.000 C 
BRANCH  18  19
ATOM     19  N   UNL     1      50.036   9.821  14.970  0.00  0.00    +0.000 N 
ATOM     20  H   UNL     1      50.481  10.564  15.506  0.00  0.00    +0.000 HD
BRANCH  19  21
ATOM     21  C   UNL     1      49.865   8.636  15.683  0.00  0.00    +0.000 A 
ATOM     22  C   UNL     1      48.869   8.403  16.616  0.00  0.00    +0.000 A 
ATOM     23  N   UNL     1      48.668   7.239  17.262  0.00  0.00    +0.000 NA
ATOM     24  C   UNL     1      49.481   6.219  16.924  0.00  0.00    +0.000 A 
ATOM     25  N   UNL     1      50.447   6.289  15.987  0.00  0.00    +0.000 NA
ATOM     26  C   UNL     1      50.602   7.494  15.393  0.00  0.00    +0.000 A 
BRANCH  24  27
ATOM     27  C   UNL     1      49.192   4.899  17.605  0.00  0.00    +0.000 C 
ATOM     28  O   UNL     1      49.926   4.570  18.542  0.00  0.00    +0.000 OA
ATOM     29  N   UNL     1      48.141   4.059  17.188  0.00  0.00    +0.000 N 
ATOM     30  C   UNL     1      47.301   4.235  16.014  0.00  0.00    +0.000 C 
ATOM     31  C   UNL     1      47.921   2.827  17.930  0.00  0.00    +0.000 C 
ENDBRANCH  24  27
ENDBRANCH  19  21
ENDBRANCH  18  19
ENDBRANCH   1  18
TORSDOF 8
ENDMDL
MODEL 5
REMARK VINA RESULT:    -6.405      3.874      8.460
REMARK INTER + INTRA:          -9.454
REMARK INTER:                  -8.378
REMARK INTRA:                  -1.076
REMARK UNBOUND:                -0.054
REMARK  Name = 
REMARK  13 active torsions:
REMARK  status: ('A' for Active; 'I' for Inactive)
REMARK    1  A    between atoms: C_1  and  O_2
REMARK    2  A    between atoms: O_2  and  C_3
REMARK    3  A    between atoms: C_5  and  C_6
REMARK    4  A    between atoms: C_6  and  C_7
REMARK    5  A    between atoms: C_6  and  C_8
REMARK    6  A    between atoms: C_8  and  N_9
REMARK    7  A    between atoms: N_9  and  C_10
REMARK    8  A    between atoms: C_13  and  C_14
REMARK    9  A    between atoms: N_16  and  C_17
REMARK   10  A    between atoms: N_16  and  C_18
REMARK   11  A    between atoms: C_24  and  O_25
REMARK   12  A    between atoms: O_25  and  C_26
REMARK   13  A    between atoms: N_28  and  C_29
REMARK                            x       y       z     vdW  Elec       q    Type
REMARK                         _______ _______ _______ _____ _____    ______ ____
ROOT
ATOM      1  C   UNL     1      48.521   8.925  13.342  0.00  0.00    +0.000 C 
ATOM      2  C   UNL     1      48.293   9.886  12.162  0.00  0.00    +0.000 C 
ENDROOT
BRANCH   1   5
ATOM      3  C   UNL     1      46.989   5.427  13.786  0.00  0.00    +0.000 A 
ATOM      4  C   UNL     1      47.867   6.523  13.840  0.00  0.00    +0.000 A 
ATOM      5  C   UNL     1      47.524   7.770  13.285  0.00  0.00    +0.000 A 
ATOM      6  C   UNL     1      46.262   7.883  12.691  0.00  0.00    +0.000 A 
ATOM      7  C   UNL     1      45.382   6.807  12.645  0.00  0.00    +0.000 A 
ATOM      8  F   UNL     1      44.198   7.010  12.050  0.00  0.00    +0.000 F 
ATOM      9  C   UNL     1      45.726   5.567  13.185  0.00  0.00    +0.000 A 
BRANCH   3  11
ATOM     10  C   UNL     1      47.386   4.028  15.670  0.00  0.00    +0.000 C 
ATOM     11  O   UNL     1      47.304   4.174  14.258  0.00  0.00    +0.000 OA
ENDBRANCH   3  11
BRANCH   9  12
ATOM     12  O   UNL     1      44.915   4.456  13.149  0.00  0.00    +0.000 OA
BRANCH  12  13
ATOM     13  C   UNL     1      44.993   3.570  12.007  0.00  0.00    +0.000 C 
ATOM     14  C   UNL     1      44.924   4.206  10.600  0.00  0.00    +0.000 C 
ATOM     15  N   UNL     1      43.854   3.265  10.211  0.00  0.00    +0.000 NA
ATOM     16  C   UNL     1      44.404   2.161   9.423  0.00  0.00    +0.000 C 
ATOM     17  C   UNL     1      43.677   2.863  11.620  0.00  0.00    +0.000 C 
ENDBRANCH  12  13
ENDBRANCH   9  12
ENDBRANCH   1   5
BRANCH   1  18
ATOM     18  C   UNL     1      48.496   9.769  14.640  0.00  0.00    +0.000 C 
BRANCH  18  19
ATOM     19  N   UNL     1      49.789   9.749  15.332  0.00  0.00    +0.000 N 
ATOM     20  H   UNL     1      49.962  10.573  15.904  0.00  0.00    +0.000 HD
BRANCH  19  21
ATOM     21  C   UNL     1      50.213   8.557  15.918  0.00  0.00    +0.000 A 
ATOM     22  C   UNL     1      49.497   7.829  16.853  0.00  0.00    +0.000 A 
ATOM     23  N   UNL     1      49.880   6.649  17.376  0.00  0.00    +0.000 NA
ATOM     24  C   UNL     1      51.030   6.131  16.903  0.00  0.00    +0.000 A 
ATOM     25  N   UNL     1      51.791   6.701  15.948  0.00  0.00    +0.000 NA
ATOM     26  C   UNL     1      51.353   7.893  15.483  0.00  0.00    +0.000 A 
BRANCH  24  27
ATOM     27  C   UNL     1      51.405   4.769  17.446  0.00  0.00    +0.000 C 
ATOM     28  O   UNL     1      50.732   3.803  17.074  0.00  0.00    +0.000 OA
ATOM     29  N   UNL     1      52.467   4.595  18.354  0.00  0.00    +0.000 N 
ATOM     30  C   UNL     1      53.242   5.645  18.997  0.00  0.00    +0.000 C 
ATOM     31  C   UNL     1      52.774   3.241  18.791  0.00  0.00    +0.000 C 
ENDBRANCH  24  27
ENDBRANCH  19  21
ENDBRANCH  18  19
ENDBRANCH   1  18
TORSDOF 8
ENDMDL
MODEL 6
REMARK VINA RESULT:    -6.357      4.418      8.099
REMARK INTER + INTRA:          -9.384
REMARK INTER:                  -8.317
REMARK INTRA:                  -1.067
REMARK UNBOUND:                -0.054
REMARK  Name = 
REMARK  13 active torsions:
REMARK  status: ('A' for Active; 'I' for Inactive)
REMARK    1  A    between atoms: C_1  and  O_2
REMARK    2  A    between atoms: O_2  and  C_3
REMARK    3  A    between atoms: C_5  and  C_6
REMARK    4  A    between atoms: C_6  and  C_7
REMARK    5  A    between atoms: C_6  and  C_8
REMARK    6  A    between atoms: C_8  and  N_9
REMARK    7  A    between atoms: N_9  and  C_10
REMARK    8  A    between atoms: C_13  and  C_14
REMARK    9  A    between atoms: N_16  and  C_17
REMARK   10  A    between atoms: N_16  and  C_18
REMARK   11  A    between atoms: C_24  and  O_25
REMARK   12  A    between atoms: O_25  and  C_26
REMARK   13  A    between atoms: N_28  and  C_29
REMARK                            x       y       z     vdW  Elec       q    Type
REMARK                         _______ _______ _______ _____ _____    ______ ____
ROOT
ATOM      1  C   UNL     1      49.133   9.099  15.946  0.00  0.00    +0.000 C 
ATOM      2  C   UNL     1      49.203  10.623  15.739  0.00  0.00    +0.000 C 
ENDROOT
BRANCH   1   5
ATOM      3  C   UNL     1      47.837   6.374  13.562  0.00  0.00    +0.000 A 
ATOM      4  C   UNL     1      48.422   7.028  14.661  0.00  0.00    +0.000 A 
ATOM      5  C   UNL     1      48.463   8.432  14.746  0.00  0.00    +0.000 A 
ATOM      6  C   UNL     1      47.879   9.157  13.701  0.00  0.00    +0.000 A 
ATOM      7  C   UNL     1      47.286   8.517  12.617  0.00  0.00    +0.000 A 
ATOM      8  F   UNL     1      46.759   9.296  11.662  0.00  0.00    +0.000 F 
ATOM      9  C   UNL     1      47.257   7.125  12.526  0.00  0.00    +0.000 A 
BRANCH   3  11
ATOM     10  C   UNL     1      46.987   4.271  14.279  0.00  0.00    +0.000 C 
ATOM     11  O   UNL     1      47.830   5.008  13.403  0.00  0.00    +0.000 OA
ENDBRANCH   3  11
BRANCH   9  12
ATOM     12  O   UNL     1      46.713   6.432  11.469  0.00  0.00    +0.000 OA
BRANCH  12  13
ATOM     13  C   UNL     1      45.273   6.321  11.372  0.00  0.00    +0.000 C 
ATOM     14  C   UNL     1      44.462   6.347  12.688  0.00  0.00    +0.000 C 
ATOM     15  N   UNL     1      43.754   5.113  12.294  0.00  0.00    +0.000 NA
ATOM     16  C   UNL     1      42.432   5.431  11.753  0.00  0.00    +0.000 C 
ATOM     17  C   UNL     1      44.724   4.889  11.204  0.00  0.00    +0.000 C 
ENDBRANCH  12  13
ENDBRANCH   9  12
ENDBRANCH   1   5
BRANCH   1  18
ATOM     18  C   UNL     1      48.458   8.847  17.317  0.00  0.00    +0.000 C 
BRANCH  18  19
ATOM     19  N   UNL     1      49.393   8.272  18.290  0.00  0.00    +0.000 N 
ATOM     20  H   UNL     1      49.194   8.531  19.254  0.00  0.00    +0.000 HD
BRANCH  19  21
ATOM     21  C   UNL     1      49.784   6.943  18.133  0.00  0.00    +0.000 A 
ATOM     22  C   UNL     1      49.082   5.844  18.599  0.00  0.00    +0.000 A 
ATOM     23  N   UNL     1      49.429   4.559  18.397  0.00  0.00    +0.000 NA
ATOM     24  C   UNL     1      50.523   4.347  17.640  0.00  0.00    +0.000 A 
ATOM     25  N   UNL     1      51.261   5.321  17.071  0.00  0.00    +0.000 NA
ATOM     26  C   UNL     1      50.862   6.587  17.332  0.00  0.00    +0.000 A 
BRANCH  24  27
ATOM     27  C   UNL     1      50.854   2.897  17.362  0.00  0.00    +0.000 C 
ATOM     28  O   UNL     1      50.034   2.241  16.711  0.00  0.00    +0.000 OA
ATOM     29  N   UNL     1      52.038   2.298  17.833  0.00  0.00    +0.000 N 
ATOM     30  C   UNL     1      53.013   2.892  18.734  0.00  0.00    +0.000 C 
ATOM     31  C   UNL     1      52.284   0.908  17.482  0.00  0.00    +0.000 C 
ENDBRANCH  24  27
ENDBRANCH  19  21
ENDBRANCH  18  19
ENDBRANCH   1  18
TORSDOF 8
ENDMDL
MODEL 7
REMARK VINA RESULT:    -6.305      3.890      8.708
REMARK INTER + INTRA:          -9.308
REMARK INTER:                  -8.348
REMARK INTRA:                  -0.960
REMARK UNBOUND:                -0.054
REMARK  Name = 
REMARK  13 active torsions:
REMARK  status: ('A' for Active; 'I' for Inactive)
REMARK    1  A    between atoms: C_1  and  O_2
REMARK    2  A    between atoms: O_2  and  C_3
REMARK    3  A    between atoms: C_5  and  C_6
REMARK    4  A    between atoms: C_6  and  C_7
REMARK    5  A    between atoms: C_6  and  C_8
REMARK    6  A    between atoms: C_8  and  N_9
REMARK    7  A    between atoms: N_9  and  C_10
REMARK    8  A    between atoms: C_13  and  C_14
REMARK    9  A    between atoms: N_16  and  C_17
REMARK   10  A    between atoms: N_16  and  C_18
REMARK   11  A    between atoms: C_24  and  O_25
REMARK   12  A    between atoms: O_25  and  C_26
REMARK   13  A    between atoms: N_28  and  C_29
REMARK                            x       y       z     vdW  Elec       q    Type
REMARK                         _______ _______ _______ _____ _____    ______ ____
ROOT
ATOM      1  C   UNL     1      48.440   9.193  12.724  0.00  0.00    +0.000 C 
ATOM      2  C   UNL     1      48.102  10.184  11.597  0.00  0.00    +0.000 C 
ENDROOT
BRANCH   1   5
ATOM      3  C   UNL     1      46.940   5.700  13.309  0.00  0.00    +0.000 A 
ATOM      4  C   UNL     1      47.810   6.805  13.314  0.00  0.00    +0.000 A 
ATOM      5  C   UNL     1      47.451   8.028  12.719  0.00  0.00    +0.000 A 
ATOM      6  C   UNL     1      46.182   8.111  12.135  0.00  0.00    +0.000 A 
ATOM      7  C   UNL     1      45.310   7.027  12.138  0.00  0.00    +0.000 A 
ATOM      8  F   UNL     1      44.118   7.200  11.549  0.00  0.00    +0.000 F 
ATOM      9  C   UNL     1      45.671   5.810  12.717  0.00  0.00    +0.000 A 
BRANCH   3  11
ATOM     10  C   UNL     1      47.248   4.340  15.237  0.00  0.00    +0.000 C 
ATOM     11  O   UNL     1      47.271   4.468  13.821  0.00  0.00    +0.000 OA
ENDBRANCH   3  11
BRANCH   9  12
ATOM     12  O   UNL     1      44.867   4.692  12.729  0.00  0.00    +0.000 OA
BRANCH  12  13
ATOM     13  C   UNL     1      45.002   3.723  11.662  0.00  0.00    +0.000 C 
ATOM     14  C   UNL     1      44.952   4.247  10.208  0.00  0.00    +0.000 C 
ATOM     15  N   UNL     1      43.920   3.247   9.867  0.00  0.00    +0.000 NA
ATOM     16  C   UNL     1      44.521   2.104   9.182  0.00  0.00    +0.000 C 
ATOM     17  C   UNL     1      43.717   2.950  11.299  0.00  0.00    +0.000 C 
ENDBRANCH  12  13
ENDBRANCH   9  12
ENDBRANCH   1   5
BRANCH   1  18
ATOM     18  C   UNL     1      48.519   9.999  14.044  0.00  0.00    +0.000 C 
BRANCH  18  19
ATOM     19  N   UNL     1      49.617   9.540  14.902  0.00  0.00    +0.000 N 
ATOM     20  H   UNL     1      50.311  10.257  15.099  0.00  0.00    +0.000 HD
BRANCH  19  21
ATOM     21  C   UNL     1      49.313   8.733  15.997  0.00  0.00    +0.000 A 
ATOM     22  C   UNL     1      48.379   9.032  16.975  0.00  0.00    +0.000 A 
ATOM     23  N   UNL     1      48.045   8.227  18.001  0.00  0.00    +0.000 NA
ATOM     24  C   UNL     1      48.643   7.020  18.033  0.00  0.00    +0.000 A 
ATOM     25  N   UNL     1      49.520   6.575  17.112  0.00  0.00    +0.000 NA
ATOM     26  C   UNL     1      49.820   7.445  16.121  0.00  0.00    +0.000 A 
BRANCH  24  27
ATOM     27  C   UNL     1      48.198   6.100  19.149  0.00  0.00    +0.000 C 
ATOM     28  O   UNL     1      47.027   5.710  19.132  0.00  0.00    +0.000 OA
ATOM     29  N   UNL     1      49.069   5.708  20.184  0.00  0.00    +0.000 N 
ATOM     30  C   UNL     1      50.415   6.205  20.423  0.00  0.00    +0.000 C 
ATOM     31  C   UNL     1      48.558   4.792  21.193  0.00  0.00    +0.000 C 
ENDBRANCH  24  27
ENDBRANCH  19  21
ENDBRANCH  18  19
ENDBRANCH   1  18
TORSDOF 8
ENDMDL
MODEL 8
REMARK VINA RESULT:    -6.299      4.454      7.475
REMARK INTER + INTRA:          -9.299
REMARK INTER:                  -8.388
REMARK INTRA:                  -0.911
REMARK UNBOUND:                -0.054
REMARK  Name = 
REMARK  13 active torsions:
REMARK  status: ('A' for Active; 'I' for Inactive)
REMARK    1  A    between atoms: C_1  and  O_2
REMARK    2  A    between atoms: O_2  and  C_3
REMARK    3  A    between atoms: C_5  and  C_6
REMARK    4  A    between atoms: C_6  and  C_7
REMARK    5  A    between atoms: C_6  and  C_8
REMARK    6  A    between atoms: C_8  and  N_9
REMARK    7  A    between atoms: N_9  and  C_10
REMARK    8  A    between atoms: C_13  and  C_14
REMARK    9  A    between atoms: N_16  and  C_17
REMARK   10  A    between atoms: N_16  and  C_18
REMARK   11  A    between atoms: C_24  and  O_25
REMARK   12  A    between atoms: O_25  and  C_26
REMARK   13  A    between atoms: N_28  and  C_29
REMARK                            x       y       z     vdW  Elec       q    Type
REMARK                         _______ _______ _______ _____ _____    ______ ____
ROOT
ATOM      1  C   UNL     1      48.714   8.198  15.648  0.00  0.00    +0.000 C 
ATOM      2  C   UNL     1      48.724   9.398  16.611  0.00  0.00    +0.000 C 
ENDROOT
BRANCH   1   5
ATOM      3  C   UNL     1      49.019   4.866  17.544  0.00  0.00    +0.000 A 
ATOM      4  C   UNL     1      48.493   5.996  16.893  0.00  0.00    +0.000 A 
ATOM      5  C   UNL     1      49.329   6.973  16.321  0.00  0.00    +0.000 A 
ATOM      6  C   UNL     1      50.711   6.767  16.408  0.00  0.00    +0.000 A 
ATOM      7  C   UNL     1      51.239   5.645  17.039  0.00  0.00    +0.000 A 
ATOM      8  F   UNL     1      52.575   5.538  17.078  0.00  0.00    +0.000 F 
ATOM      9  C   UNL     1      50.410   4.682  17.617  0.00  0.00    +0.000 A 
BRANCH   3  11
ATOM     10  C   UNL     1      47.449   3.090  17.334  0.00  0.00    +0.000 C 
ATOM     11  O   UNL     1      48.245   3.919  18.172  0.00  0.00    +0.000 OA
ENDBRANCH   3  11
BRANCH   9  12
ATOM     12  O   UNL     1      50.868   3.566  18.279  0.00  0.00    +0.000 OA
BRANCH  12  13
ATOM     13  C   UNL     1      51.790   2.679  17.601  0.00  0.00    +0.000 C 
ATOM     14  C   UNL     1      51.455   1.170  17.588  0.00  0.00    +0.000 C 
ATOM     15  N   UNL     1      52.808   0.850  18.085  0.00  0.00    +0.000 NA
ATOM     16  C   UNL     1      53.671   0.425  16.983  0.00  0.00    +0.000 C 
ATOM     17  C   UNL     1      53.039   2.272  18.410  0.00  0.00    +0.000 C 
ENDBRANCH  12  13
ENDBRANCH   9  12
ENDBRANCH   1   5
BRANCH   1  18
ATOM     18  C   UNL     1      49.393   8.652  14.332  0.00  0.00    +0.000 C 
BRANCH  18  19
ATOM     19  N   UNL     1      48.431   8.771  13.231  0.00  0.00    +0.000 N 
ATOM     20  H   UNL     1      48.826   9.172  12.383  0.00  0.00    +0.000 HD
BRANCH  19  21
ATOM     21  C   UNL     1      47.550   7.717  13.000  0.00  0.00    +0.000 A 
ATOM     22  C   UNL     1      47.900   6.377  12.963  0.00  0.00    +0.000 A 
ATOM     23  N   UNL     1      47.040   5.355  12.797  0.00  0.00    +0.000 NA
ATOM     24  C   UNL     1      45.735   5.679  12.710  0.00  0.00    +0.000 A 
ATOM     25  N   UNL     1      45.251   6.934  12.796  0.00  0.00    +0.000 NA
ATOM     26  C   UNL     1      46.175   7.910  12.945  0.00  0.00    +0.000 A 
BRANCH  24  27
ATOM     27  C   UNL     1      44.778   4.513  12.600  0.00  0.00    +0.000 C 
ATOM     28  O   UNL     1      44.446   3.948  13.647  0.00  0.00    +0.000 OA
ATOM     29  N   UNL     1      44.287   4.065  11.358  0.00  0.00    +0.000 N 
ATOM     30  C   UNL     1      44.704   4.523  10.043  0.00  0.00    +0.000 C 
ATOM     31  C   UNL     1      43.342   2.958  11.360  0.00  0.00    +0.000 C 
ENDBRANCH  24  27
ENDBRANCH  19  21
ENDBRANCH  18  19
ENDBRANCH   1  18
TORSDOF 8
ENDMDL
MODEL 9
REMARK VINA RESULT:    -6.117      3.431      6.441
REMARK INTER + INTRA:          -9.032
REMARK INTER:                  -7.812
REMARK INTRA:                  -1.220
REMARK UNBOUND:                -0.054
REMARK  Name = 
REMARK  13 active torsions:
REMARK  status: ('A' for Active; 'I' for Inactive)
REMARK    1  A    between atoms: C_1  and  O_2
REMARK    2  A    between atoms: O_2  and  C_3
REMARK    3  A    between atoms: C_5  and  C_6
REMARK    4  A    between atoms: C_6  and  C_7
REMARK    5  A    between atoms: C_6  and  C_8
REMARK    6  A    between atoms: C_8  and  N_9
REMARK    7  A    between atoms: N_9  and  C_10
REMARK    8  A    between atoms: C_13  and  C_14
REMARK    9  A    between atoms: N_16  and  C_17
REMARK   10  A    between atoms: N_16  and  C_18
REMARK   11  A    between atoms: C_24  and  O_25
REMARK   12  A    between atoms: O_25  and  C_26
REMARK   13  A    between atoms: N_28  and  C_29
REMARK                            x       y       z     vdW  Elec       q    Type
REMARK                         _______ _______ _______ _____ _____    ______ ____
ROOT
ATOM      1  C   UNL     1      49.033  10.471  13.802  0.00  0.00    +0.000 C 
ATOM      2  C   UNL     1      50.298  11.342  13.702  0.00  0.00    +0.000 C 
ENDROOT
BRANCH   1   5
ATOM      3  C   UNL     1      48.478   8.594  17.112  0.00  0.00    +0.000 A 
ATOM      4  C   UNL     1      48.353   9.508  16.051  0.00  0.00    +0.000 A 
ATOM      5  C   UNL     1      49.186   9.440  14.919  0.00  0.00    +0.000 A 
ATOM      6  C   UNL     1      50.135   8.413  14.880  0.00  0.00    +0.000 A 
ATOM      7  C   UNL     1      50.257   7.497  15.920  0.00  0.00    +0.000 A 
ATOM      8  F   UNL     1      51.199   6.552  15.795  0.00  0.00    +0.000 F 
ATOM      9  C   UNL     1      49.439   7.571  17.048  0.00  0.00    +0.000 A 
BRANCH   3  11
ATOM     10  C   UNL     1      48.082   9.676  19.194  0.00  0.00    +0.000 C 
ATOM     11  O   UNL     1      47.731   8.659  18.265  0.00  0.00    +0.000 OA
ENDBRANCH   3  11
BRANCH   9  12
ATOM     12  O   UNL     1      49.526   6.715  18.123  0.00  0.00    +0.000 OA
BRANCH  12  13
ATOM     13  C   UNL     1      48.890   5.417  18.036  0.00  0.00    +0.000 C 
ATOM     14  C   UNL     1      49.784   4.203  17.694  0.00  0.00    +0.000 C 
ATOM     15  N   UNL     1      48.859   3.808  16.612  0.00  0.00    +0.000 NA
ATOM     16  C   UNL     1      47.978   2.730  17.061  0.00  0.00    +0.000 C 
ATOM     17  C   UNL     1      48.175   5.113  16.703  0.00  0.00    +0.000 C 
ENDBRANCH  12  13
ENDBRANCH   9  12
ENDBRANCH   1   5
BRANCH   1  18
ATOM     18  C   UNL     1      48.751   9.895  12.392  0.00  0.00    +0.000 C 
BRANCH  18  19
ATOM     19  N   UNL     1      47.315   9.735  12.142  0.00  0.00    +0.000 N 
ATOM     20  H   UNL     1      46.987  10.220  11.309  0.00  0.00    +0.000 HD
BRANCH  19  21
ATOM     21  C   UNL     1      46.743   8.477  12.325  0.00  0.00    +0.000 A 
ATOM     22  C   UNL     1      45.422   8.244  12.669  0.00  0.00    +0.000 A 
ATOM     23  N   UNL     1      44.854   7.029  12.789  0.00  0.00    +0.000 NA
ATOM     24  C   UNL     1      45.639   5.972  12.502  0.00  0.00    +0.000 A 
ATOM     25  N   UNL     1      46.920   6.058  12.093  0.00  0.00    +0.000 NA
ATOM     26  C   UNL     1      47.427   7.309  12.012  0.00  0.00    +0.000 A 
BRANCH  24  27
ATOM     27  C   UNL     1      44.963   4.620  12.570  0.00  0.00    +0.000 C 
ATOM     28  O   UNL     1      45.181   3.925  13.567  0.00  0.00    +0.000 OA
ATOM     29  N   UNL     1      44.129   4.150  11.537  0.00  0.00    +0.000 N 
ATOM     30  C   UNL     1      43.905   4.780  10.246  0.00  0.00    +0.000 C 
ATOM     31  C   UNL     1      43.496   2.851  11.712  0.00  0.00    +0.000 C 
ENDBRANCH  24  27
ENDBRANCH  19  21
ENDBRANCH  18  19
ENDBRANCH   1  18
TORSDOF 8
ENDMDL
