MODEL 1
REMARK VINA RESULT:    -7.642      0.000      0.000
REMARK INTER + INTRA:         -11.359
REMARK INTER:                 -10.322
REMARK INTRA:                  -1.037
REMARK UNBOUND:                -1.037
REMARK  Name = 
REMARK  8 active torsions:
REMARK  status: ('A' for Active; 'I' for Inactive)
REMARK    1  A    between atoms: C_1  and  C_2
REMARK    2  A    between atoms: C_2  and  C_3
REMARK    3  A    between atoms: C_2  and  C_4
REMARK    4  A    between atoms: C_6  and  C_7
REMARK    5  A    between atoms: C_7  and  C_8
REMARK    6  A    between atoms: C_8  and  C_9
REMARK    7  A    between atoms: C_13  and  C_14
REMARK    8  A    between atoms: C_23  and  C_24
REMARK                            x       y       z     vdW  Elec       q    Type
REMARK                         _______ _______ _______ _____ _____    ______ ____
ROOT
ATOM      1  C   UNL     1      48.476   6.020  15.805  0.00  0.00    +0.000 A 
ATOM      2  N   UNL     1      48.421   6.602  14.571  0.00  0.00    +0.000 NA
ATOM      3  C   UNL     1      47.669   6.048  13.595  0.00  0.00    +0.000 A 
ATOM      4  C   UNL     1      46.928   4.897  13.808  0.00  0.00    +0.000 A 
ATOM      5  C   UNL     1      46.979   4.292  15.064  0.00  0.00    +0.000 A 
ATOM      6  C   UNL     1      47.750   4.855  16.091  0.00  0.00    +0.000 A 
ENDROOT
BRANCH   6   7
ATOM      7  C   UNL     1      47.799   4.174  17.417  0.00  0.00    +0.000 C 
ATOM      8  N   UNL     1      47.014   4.694  18.414  0.00  0.00    +0.000 N 
ATOM      9  O   UNL     1      48.496   3.199  17.642  0.00  0.00    +0.000 OA
ATOM     10  H   UNL     1      46.533   5.580  18.349  0.00  0.00    +0.000 HD
ATOM     11  H   UNL     1      47.091   4.261  19.324  0.00  0.00    +0.000 HD
ENDBRANCH   6   7
BRANCH   1  13
ATOM     12  C   UNL     1      50.856   6.592  16.269  0.00  0.00    +0.000 C 
ATOM     13  C   UNL     1      49.417   6.698  16.783  0.00  0.00    +0.000 C 
ATOM     14  C   UNL     1      49.068   8.176  17.010  0.00  0.00    +0.000 C 
ENDBRANCH   1  13
BRANCH   3  15
ATOM     15  C   UNL     1      47.596   6.772  12.274  0.00  0.00    +0.000 C 
BRANCH  15  16
ATOM     16  C   UNL     1      46.211   7.366  11.986  0.00  0.00    +0.000 C 
BRANCH  16  17
ATOM     17  C   UNL     1      45.294   6.324  11.395  0.00  0.00    +0.000 A 
ATOM     18  C   UNL     1      43.919   6.350  11.638  0.00  0.00    +0.000 A 
ATOM     19  C   UNL     1      43.089   5.411  11.033  0.00  0.00    +0.000 A 
ATOM     20  C   UNL     1      43.623   4.461  10.156  0.00  0.00    +0.000 A 
ATOM     21  C   UNL     1      44.995   4.433   9.855  0.00  0.00    +0.000 A 
ATOM     22  C   UNL     1      45.817   5.359  10.519  0.00  0.00    +0.000 A 
BRANCH  21  23
ATOM     23  C   UNL     1      45.549   3.551   8.803  0.00  0.00    +0.000 A 
ATOM     24  C   UNL     1      46.189   4.100   7.675  0.00  0.00    +0.000 A 
ATOM     25  C   UNL     1      46.827   3.291   6.730  0.00  0.00    +0.000 A 
ATOM     26  C   UNL     1      46.843   1.910   6.893  0.00  0.00    +0.000 A 
ATOM     27  C   UNL     1      46.200   1.339   7.987  0.00  0.00    +0.000 A 
ATOM     28  C   UNL     1      45.550   2.149   8.925  0.00  0.00    +0.000 A 
ENDBRANCH  21  23
ENDBRANCH  16  17
ENDBRANCH  15  16
ENDBRANCH   3  15
TORSDOF 6
ENDMDL
MODEL 2
REMARK VINA RESULT:    -7.335      1.623      1.932
REMARK INTER + INTRA:         -10.944
REMARK INTER:                  -9.791
REMARK INTRA:                  -1.154
REMARK UNBOUND:                -1.037
REMARK  Name = 
REMARK  8 active torsions:
REMARK  status: ('A' for Active; 'I' for Inactive)
REMARK    1  A    between atoms: C_1  and  C_2
REMARK    2  A    between atoms: C_2  and  C_3
REMARK    3  A    between atoms: C_2  and  C_4
REMARK    4  A    between atoms: C_6  and  C_7
REMARK    5  A    between atoms: C_7  and  C_8
REMARK    6  A    between atoms: C_8  and  C_9
REMARK    7  A    between atoms: C_13  and  C_14
REMARK    8  A    between atoms: C_23  and  C_24
REMARK                            x       y       z     vdW  Elec       q    Type
REMARK                         _______ _______ _______ _____ _____    ______ ____
ROOT
ATOM      1  C   UNL     1      48.594   7.484  14.235  0.00  0.00    +0.000 A 
ATOM      2  N   UNL     1      47.991   7.607  13.016  0.00  0.00    +0.000 NA
ATOM      3  C   UNL     1      47.171   6.634  12.566  0.00  0.00    +0.000 A 
ATOM      4  C   UNL     1      46.904   5.500  13.316  0.00  0.00    +0.000 A 
ATOM      5  C   UNL     1      47.516   5.362  14.561  0.00  0.00    +0.000 A 
ATOM      6  C   UNL     1      48.367   6.365  15.048  0.00  0.00    +0.000 A 
ENDROOT
BRANCH   6   7
ATOM      7  C   UNL     1      49.021   6.179  16.375  0.00  0.00    +0.000 C 
ATOM      8  N   UNL     1      48.318   6.589  17.480  0.00  0.00    +0.000 N 
ATOM      9  O   UNL     1      50.131   5.693  16.511  0.00  0.00    +0.000 OA
ATOM     10  H   UNL     1      47.469   7.136  17.437  0.00  0.00    +0.000 HD
ATOM     11  H   UNL     1      48.788   6.509  18.370  0.00  0.00    +0.000 HD
ENDBRANCH   6   7
BRANCH   1  13
ATOM     12  C   UNL     1      50.923   8.327  13.968  0.00  0.00    +0.000 C 
ATOM     13  C   UNL     1      49.550   8.610  14.585  0.00  0.00    +0.000 C 
ATOM     14  C   UNL     1      49.051   9.980  14.104  0.00  0.00    +0.000 C 
ENDBRANCH   1  13
BRANCH   3  15
ATOM     15  C   UNL     1      46.483   6.856  11.243  0.00  0.00    +0.000 C 
BRANCH  15  16
ATOM     16  C   UNL     1      44.976   6.572  11.289  0.00  0.00    +0.000 C 
BRANCH  16  17
ATOM     17  C   UNL     1      44.690   5.137  10.925  0.00  0.00    +0.000 A 
ATOM     18  C   UNL     1      43.657   4.427  11.540  0.00  0.00    +0.000 A 
ATOM     19  C   UNL     1      43.378   3.122  11.143  0.00  0.00    +0.000 A 
ATOM     20  C   UNL     1      44.107   2.531  10.106  0.00  0.00    +0.000 A 
ATOM     21  C   UNL     1      45.124   3.232   9.434  0.00  0.00    +0.000 A 
ATOM     22  C   UNL     1      45.419   4.527   9.890  0.00  0.00    +0.000 A 
BRANCH  21  23
ATOM     23  C   UNL     1      45.785   2.688   8.227  0.00  0.00    +0.000 A 
ATOM     24  C   UNL     1      46.035   3.514   7.115  0.00  0.00    +0.000 A 
ATOM     25  C   UNL     1      46.766   3.059   6.015  0.00  0.00    +0.000 A 
ATOM     26  C   UNL     1      47.267   1.762   6.000  0.00  0.00    +0.000 A 
ATOM     27  C   UNL     1      47.016   0.915   7.074  0.00  0.00    +0.000 A 
ATOM     28  C   UNL     1      46.273   1.369   8.171  0.00  0.00    +0.000 A 
ENDBRANCH  21  23
ENDBRANCH  16  17
ENDBRANCH  15  16
ENDBRANCH   3  15
TORSDOF 6
ENDMDL
MODEL 3
REMARK VINA RESULT:    -6.956      3.472      4.413
REMARK INTER + INTRA:         -10.432
REMARK INTER:                  -9.148
REMARK INTRA:                  -1.285
REMARK UNBOUND:                -1.037
REMARK  Name = 
REMARK  8 active torsions:
REMARK  status: ('A' for Active; 'I' for Inactive)
REMARK    1  A    between atoms: C_1  and  C_2
REMARK    2  A    between atoms: C_2  and  C_3
REMARK    3  A    between atoms: C_2  and  C_4
REMARK    4  A    between atoms: C_6  and  C_7
REMARK    5  A    between atoms: C_7  and  C_8
REMARK    6  A    between atoms: C_8  and  C_9
REMARK    7  A    between atoms: C_13  and  C_14
REMARK    8  A    between atoms: C_23  and  C_24
REMARK                            x       y       z     vdW  Elec       q    Type
REMARK                         _______ _______ _______ _____ _____    ______ ____
ROOT
ATOM      1  C   UNL     1      48.176   9.423  12.034  0.00  0.00    +0.000 A 
ATOM      2  N   UNL     1      46.882   9.022  12.203  0.00  0.00    +0.000 NA
ATOM      3  C   UNL     1      46.597   7.714  12.381  0.00  0.00    +0.000 A 
ATOM      4  C   UNL     1      47.590   6.748  12.412  0.00  0.00    +0.000 A 
ATOM      5  C   UNL     1      48.916   7.147  12.239  0.00  0.00    +0.000 A 
ATOM      6  C   UNL     1      49.231   8.500  12.057  0.00  0.00    +0.000 A 
ENDROOT
BRANCH   6   7
ATOM      7  C   UNL     1      50.656   8.892  11.854  0.00  0.00    +0.000 C 
ATOM      8  N   UNL     1      51.304   9.460  12.922  0.00  0.00    +0.000 N 
ATOM      9  O   UNL     1      51.249   8.734  10.801  0.00  0.00    +0.000 OA
ATOM     10  H   UNL     1      50.841   9.761  13.768  0.00  0.00    +0.000 HD
ATOM     11  H   UNL     1      52.252   9.771  12.762  0.00  0.00    +0.000 HD
ENDBRANCH   6   7
BRANCH   1  13
ATOM     12  C   UNL     1      47.222  11.397  10.851  0.00  0.00    +0.000 C 
ATOM     13  C   UNL     1      48.348  10.907  11.765  0.00  0.00    +0.000 C 
ATOM     14  C   UNL     1      48.355  11.744  13.053  0.00  0.00    +0.000 C 
ENDBRANCH   1  13
BRANCH   3  15
ATOM     15  C   UNL     1      45.158   7.339  12.628  0.00  0.00    +0.000 C 
BRANCH  15  16
ATOM     16  C   UNL     1      44.375   7.061  11.338  0.00  0.00    +0.000 C 
BRANCH  16  17
ATOM     17  C   UNL     1      44.289   5.578  11.073  0.00  0.00    +0.000 A 
ATOM     18  C   UNL     1      43.330   4.785  11.705  0.00  0.00    +0.000 A 
ATOM     19  C   UNL     1      43.236   3.431  11.397  0.00  0.00    +0.000 A 
ATOM     20  C   UNL     1      44.078   2.868  10.433  0.00  0.00    +0.000 A 
ATOM     21  C   UNL     1      45.026   3.646   9.745  0.00  0.00    +0.000 A 
ATOM     22  C   UNL     1      45.134   4.998  10.112  0.00  0.00    +0.000 A 
BRANCH  21  23
ATOM     23  C   UNL     1      45.802   3.109   8.605  0.00  0.00    +0.000 A 
ATOM     24  C   UNL     1      46.096   1.735   8.525  0.00  0.00    +0.000 A 
ATOM     25  C   UNL     1      46.719   1.184   7.401  0.00  0.00    +0.000 A 
ATOM     26  C   UNL     1      47.061   1.997   6.326  0.00  0.00    +0.000 A 
ATOM     27  C   UNL     1      46.803   3.363   6.387  0.00  0.00    +0.000 A 
ATOM     28  C   UNL     1      46.191   3.915   7.518  0.00  0.00    +0.000 A 
ENDBRANCH  21  23
ENDBRANCH  16  17
ENDBRANCH  15  16
ENDBRANCH   3  15
TORSDOF 6
ENDMDL
MODEL 4
REMARK VINA RESULT:    -6.884      1.537      3.186
REMARK INTER + INTRA:         -10.335
REMARK INTER:                  -9.053
REMARK INTRA:                  -1.282
REMARK UNBOUND:                -1.037
REMARK  Name = 
REMARK  8 active torsions:
REMARK  status: ('A' for Active; 'I' for Inactive)
REMARK    1  A    between atoms: C_1  and  C_2
REMARK    2  A    between atoms: C_2  and  C_3
REMARK    3  A    between atoms: C_2  and  C_4
REMARK    4  A    between atoms: C_6  and  C_7
REMARK    5  A    between atoms: C_7  and  C_8
REMARK    6  A    between atoms: C_8  and  C_9
REMARK    7  A    between atoms: C_13  and  C_14
REMARK    8  A    between atoms: C_23  and  C_24
REMARK                            x       y       z     vdW  Elec       q    Type
REMARK                         _______ _______ _______ _____ _____    ______ ____
ROOT
ATOM      1  C   UNL     1      48.207   5.349  16.619  0.00  0.00    +0.000 A 
ATOM      2  N   UNL     1      48.498   6.053  15.486  0.00  0.00    +0.000 NA
ATOM      3  C   UNL     1      49.009   7.299  15.577  0.00  0.00    +0.000 A 
ATOM      4  C   UNL     1      49.264   7.896  16.801  0.00  0.00    +0.000 A 
ATOM      5  C   UNL     1      48.968   7.187  17.965  0.00  0.00    +0.000 A 
ATOM      6  C   UNL     1      48.442   5.889  17.891  0.00  0.00    +0.000 A 
ENDROOT
BRANCH   6   7
ATOM      7  C   UNL     1      48.118   5.165  19.153  0.00  0.00    +0.000 C 
ATOM      8  N   UNL     1      46.918   5.459  19.750  0.00  0.00    +0.000 N 
ATOM      9  O   UNL     1      48.862   4.344  19.663  0.00  0.00    +0.000 OA
ATOM     10  H   UNL     1      46.325   6.230  19.475  0.00  0.00    +0.000 HD
ATOM     11  H   UNL     1      46.728   5.004  20.631  0.00  0.00    +0.000 HD
ENDBRANCH   6   7
BRANCH   1  13
ATOM     12  C   UNL     1      47.016   3.937  14.948  0.00  0.00    +0.000 C 
ATOM     13  C   UNL     1      47.567   3.994  16.375  0.00  0.00    +0.000 C 
ATOM     14  C   UNL     1      48.547   2.831  16.586  0.00  0.00    +0.000 C 
ENDBRANCH   1  13
BRANCH   3  15
ATOM     15  C   UNL     1      49.372   8.002  14.294  0.00  0.00    +0.000 C 
BRANCH  15  16
ATOM     16  C   UNL     1      49.118   7.149  13.044  0.00  0.00    +0.000 C 
BRANCH  16  17
ATOM     17  C   UNL     1      47.668   7.217  12.634  0.00  0.00    +0.000 A 
ATOM     18  C   UNL     1      46.919   8.381  12.818  0.00  0.00    +0.000 A 
ATOM     19  C   UNL     1      45.600   8.435  12.376  0.00  0.00    +0.000 A 
ATOM     20  C   UNL     1      45.032   7.338  11.720  0.00  0.00    +0.000 A 
ATOM     21  C   UNL     1      45.771   6.167  11.478  0.00  0.00    +0.000 A 
ATOM     22  C   UNL     1      47.082   6.121  11.980  0.00  0.00    +0.000 A 
BRANCH  21  23
ATOM     23  C   UNL     1      45.246   5.068  10.637  0.00  0.00    +0.000 A 
ATOM     24  C   UNL     1      45.489   5.051   9.250  0.00  0.00    +0.000 A 
ATOM     25  C   UNL     1      45.111   3.966   8.455  0.00  0.00    +0.000 A 
ATOM     26  C   UNL     1      44.481   2.867   9.029  0.00  0.00    +0.000 A 
ATOM     27  C   UNL     1      44.208   2.866  10.393  0.00  0.00    +0.000 A 
ATOM     28  C   UNL     1      44.575   3.959  11.186  0.00  0.00    +0.000 A 
ENDBRANCH  21  23
ENDBRANCH  16  17
ENDBRANCH  15  16
ENDBRANCH   3  15
TORSDOF 6
ENDMDL
MODEL 5
REMARK VINA RESULT:    -6.720      2.221      3.241
REMARK INTER + INTRA:         -10.114
REMARK INTER:                  -8.880
REMARK INTRA:                  -1.234
REMARK UNBOUND:                -1.037
REMARK  Name = 
REMARK  8 active torsions:
REMARK  status: ('A' for Active; 'I' for Inactive)
REMARK    1  A    between atoms: C_1  and  C_2
REMARK    2  A    between atoms: C_2  and  C_3
REMARK    3  A    between atoms: C_2  and  C_4
REMARK    4  A    between atoms: C_6  and  C_7
REMARK    5  A    between atoms: C_7  and  C_8
REMARK    6  A    between atoms: C_8  and  C_9
REMARK    7  A    between atoms: C_13  and  C_14
REMARK    8  A    between atoms: C_23  and  C_24
REMARK                            x       y       z     vdW  Elec       q    Type
REMARK                         _______ _______ _______ _____ _____    ______ ____
ROOT
ATOM      1  C   UNL     1      49.135   7.436  14.376  0.00  0.00    +0.000 A 
ATOM      2  N   UNL     1      47.955   7.143  13.754  0.00  0.00    +0.000 NA
ATOM      3  C   UNL     1      47.769   7.488  12.463  0.00  0.00    +0.000 A 
ATOM      4  C   UNL     1      48.753   8.130  11.728  0.00  0.00    +0.000 A 
ATOM      5  C   UNL     1      49.961   8.437  12.355  0.00  0.00    +0.000 A 
ATOM      6  C   UNL     1      50.176   8.081  13.694  0.00  0.00    +0.000 A 
ENDROOT
BRANCH   6   7
ATOM      7  C   UNL     1      51.470   8.440  14.341  0.00  0.00    +0.000 C 
ATOM      8  N   UNL     1      52.539   7.615  14.098  0.00  0.00    +0.000 N 
ATOM      9  O   UNL     1      51.610   9.414  15.062  0.00  0.00    +0.000 OA
ATOM     10  H   UNL     1      52.465   6.715  13.643  0.00  0.00    +0.000 HD
ATOM     11  H   UNL     1      53.399   7.833  14.581  0.00  0.00    +0.000 HD
ENDBRANCH   6   7
BRANCH   1  13
ATOM     12  C   UNL     1      48.574   8.191  16.683  0.00  0.00    +0.000 C 
ATOM     13  C   UNL     1      49.185   7.063  15.847  0.00  0.00    +0.000 C 
ATOM     14  C   UNL     1      48.445   5.751  16.149  0.00  0.00    +0.000 C 
ENDBRANCH   1  13
BRANCH   3  15
ATOM     15  C   UNL     1      46.472   7.080  11.810  0.00  0.00    +0.000 C 
BRANCH  15  16
ATOM     16  C   UNL     1      45.506   6.376  12.772  0.00  0.00    +0.000 C 
BRANCH  16  17
ATOM     17  C   UNL     1      44.920   5.141  12.133  0.00  0.00    +0.000 A 
ATOM     18  C   UNL     1      43.738   4.572  12.610  0.00  0.00    +0.000 A 
ATOM     19  C   UNL     1      43.189   3.467  11.964  0.00  0.00    +0.000 A 
ATOM     20  C   UNL     1      43.801   2.946  10.820  0.00  0.00    +0.000 A 
ATOM     21  C   UNL     1      44.967   3.521  10.286  0.00  0.00    +0.000 A 
ATOM     22  C   UNL     1      45.528   4.601  10.987  0.00  0.00    +0.000 A 
BRANCH  21  23
ATOM     23  C   UNL     1      45.527   3.093   8.985  0.00  0.00    +0.000 A 
ATOM     24  C   UNL     1      45.868   4.045   8.006  0.00  0.00    +0.000 A 
ATOM     25  C   UNL     1      46.512   3.679   6.821  0.00  0.00    +0.000 A 
ATOM     26  C   UNL     1      46.832   2.346   6.586  0.00  0.00    +0.000 A 
ATOM     27  C   UNL     1      46.487   1.380   7.526  0.00  0.00    +0.000 A 
ATOM     28  C   UNL     1      45.832   1.747   8.706  0.00  0.00    +0.000 A 
ENDBRANCH  21  23
ENDBRANCH  16  17
ENDBRANCH  15  16
ENDBRANCH   3  15
TORSDOF 6
ENDMDL
MODEL 6
REMARK VINA RESULT:    -6.696      3.717      4.866
REMARK INTER + INTRA:         -10.081
REMARK INTER:                  -9.028
REMARK INTRA:                  -1.053
REMARK UNBOUND:                -1.037
REMARK  Name = 
REMARK  8 active torsions:
REMARK  status: ('A' for Active; 'I' for Inactive)
REMARK    1  A    between atoms: C_1  and  C_2
REMARK    2  A    between atoms: C_2  and  C_3
REMARK    3  A    between atoms: C_2  and  C_4
REMARK    4  A    between atoms: C_6  and  C_7
REMARK    5  A    between atoms: C_7  and  C_8
REMARK    6  A    between atoms: C_8  and  C_9
REMARK    7  A    between atoms: C_13  and  C_14
REMARK    8  A    between atoms: C_23  and  C_24
REMARK                            x       y       z     vdW  Elec       q    Type
REMARK                         _______ _______ _______ _____ _____    ______ ____
ROOT
ATOM      1  C   UNL     1      48.800   9.345  12.027  0.00  0.00    +0.000 A 
ATOM      2  N   UNL     1      47.816   8.463  12.371  0.00  0.00    +0.000 NA
ATOM      3  C   UNL     1      46.520   8.834  12.297  0.00  0.00    +0.000 A 
ATOM      4  C   UNL     1      46.145  10.096  11.864  0.00  0.00    +0.000 A 
ATOM      5  C   UNL     1      47.142  11.005  11.513  0.00  0.00    +0.000 A 
ATOM      6  C   UNL     1      48.493  10.637  11.578  0.00  0.00    +0.000 A 
ENDROOT
BRANCH   6   7
ATOM      7  C   UNL     1      49.536  11.638  11.214  0.00  0.00    +0.000 C 
ATOM      8  N   UNL     1      50.181  12.270  12.247  0.00  0.00    +0.000 N 
ATOM      9  O   UNL     1      49.828  11.911  10.062  0.00  0.00    +0.000 OA
ATOM     10  H   UNL     1      49.891  12.211  13.213  0.00  0.00    +0.000 HD
ATOM     11  H   UNL     1      50.849  12.985  11.994  0.00  0.00    +0.000 HD
ENDBRANCH   6   7
BRANCH   1  13
ATOM     12  C   UNL     1      50.347   8.242  13.639  0.00  0.00    +0.000 C 
ATOM     13  C   UNL     1      50.212   8.827  12.230  0.00  0.00    +0.000 C 
ATOM     14  C   UNL     1      50.605   7.759  11.199  0.00  0.00    +0.000 C 
ENDBRANCH   1  13
BRANCH   3  15
ATOM     15  C   UNL     1      45.476   7.797  12.627  0.00  0.00    +0.000 C 
BRANCH  15  16
ATOM     16  C   UNL     1      44.523   7.505  11.461  0.00  0.00    +0.000 C 
BRANCH  16  17
ATOM     17  C   UNL     1      44.298   6.020  11.313  0.00  0.00    +0.000 A 
ATOM     18  C   UNL     1      43.320   5.359  12.058  0.00  0.00    +0.000 A 
ATOM     19  C   UNL     1      43.094   4.000  11.858  0.00  0.00    +0.000 A 
ATOM     20  C   UNL     1      43.822   3.301  10.889  0.00  0.00    +0.000 A 
ATOM     21  C   UNL     1      44.783   3.944  10.091  0.00  0.00    +0.000 A 
ATOM     22  C   UNL     1      45.027   5.304  10.349  0.00  0.00    +0.000 A 
BRANCH  21  23
ATOM     23  C   UNL     1      45.436   3.265   8.949  0.00  0.00    +0.000 A 
ATOM     24  C   UNL     1      46.047   4.014   7.926  0.00  0.00    +0.000 A 
ATOM     25  C   UNL     1      46.775   3.399   6.904  0.00  0.00    +0.000 A 
ATOM     26  C   UNL     1      46.912   2.015   6.882  0.00  0.00    +0.000 A 
ATOM     27  C   UNL     1      46.300   1.248   7.868  0.00  0.00    +0.000 A 
ATOM     28  C   UNL     1      45.561   1.864   8.883  0.00  0.00    +0.000 A 
ENDBRANCH  21  23
ENDBRANCH  16  17
ENDBRANCH  15  16
ENDBRANCH   3  15
TORSDOF 6
ENDMDL
MODEL 7
REMARK VINA RESULT:    -6.598      1.853      3.482
REMARK INTER + INTRA:          -9.949
REMARK INTER:                  -8.890
REMARK INTRA:                  -1.059
REMARK UNBOUND:                -1.037
REMARK  Name = 
REMARK  8 active torsions:
REMARK  status: ('A' for Active; 'I' for Inactive)
REMARK    1  A    between atoms: C_1  and  C_2
REMARK    2  A    between atoms: C_2  and  C_3
REMARK    3  A    between atoms: C_2  and  C_4
REMARK    4  A    between atoms: C_6  and  C_7
REMARK    5  A    between atoms: C_7  and  C_8
REMARK    6  A    between atoms: C_8  and  C_9
REMARK    7  A    between atoms: C_13  and  C_14
REMARK    8  A    between atoms: C_23  and  C_24
REMARK                            x       y       z     vdW  Elec       q    Type
REMARK                         _______ _______ _______ _____ _____    ______ ____
ROOT
ATOM      1  C   UNL     1      49.152   5.298  17.125  0.00  0.00    +0.000 A 
ATOM      2  N   UNL     1      48.648   6.231  16.265  0.00  0.00    +0.000 NA
ATOM      3  C   UNL     1      49.480   7.079  15.623  0.00  0.00    +0.000 A 
ATOM      4  C   UNL     1      50.854   7.027  15.800  0.00  0.00    +0.000 A 
ATOM      5  C   UNL     1      51.380   6.080  16.678  0.00  0.00    +0.000 A 
ATOM      6  C   UNL     1      50.532   5.187  17.349  0.00  0.00    +0.000 A 
ENDROOT
BRANCH   6   7
ATOM      7  C   UNL     1      51.123   4.199  18.296  0.00  0.00    +0.000 C 
ATOM      8  N   UNL     1      51.160   2.890  17.888  0.00  0.00    +0.000 N 
ATOM      9  O   UNL     1      51.560   4.503  19.393  0.00  0.00    +0.000 OA
ATOM     10  H   UNL     1      50.682   2.540  17.069  0.00  0.00    +0.000 HD
ATOM     11  H   UNL     1      51.512   2.218  18.555  0.00  0.00    +0.000 HD
ENDBRANCH   6   7
BRANCH   1  13
ATOM     12  C   UNL     1      47.146   5.382  18.599  0.00  0.00    +0.000 C 
ATOM     13  C   UNL     1      48.104   4.462  17.837  0.00  0.00    +0.000 C 
ATOM     14  C   UNL     1      47.298   3.578  16.874  0.00  0.00    +0.000 C 
ENDBRANCH   1  13
BRANCH   3  15
ATOM     15  C   UNL     1      48.872   8.043  14.637  0.00  0.00    +0.000 C 
BRANCH  15  16
ATOM     16  C   UNL     1      48.850   7.506  13.200  0.00  0.00    +0.000 C 
BRANCH  16  17
ATOM     17  C   UNL     1      47.436   7.428  12.679  0.00  0.00    +0.000 A 
ATOM     18  C   UNL     1      46.577   8.527  12.750  0.00  0.00    +0.000 A 
ATOM     19  C   UNL     1      45.297   8.445  12.209  0.00  0.00    +0.000 A 
ATOM     20  C   UNL     1      44.880   7.276  11.565  0.00  0.00    +0.000 A 
ATOM     21  C   UNL     1      45.733   6.166  11.436  0.00  0.00    +0.000 A 
ATOM     22  C   UNL     1      47.000   6.258  12.037  0.00  0.00    +0.000 A 
BRANCH  21  23
ATOM     23  C   UNL     1      45.372   4.991  10.611  0.00  0.00    +0.000 A 
ATOM     24  C   UNL     1      44.771   3.862  11.200  0.00  0.00    +0.000 A 
ATOM     25  C   UNL     1      44.310   2.793  10.427  0.00  0.00    +0.000 A 
ATOM     26  C   UNL     1      44.436   2.828   9.043  0.00  0.00    +0.000 A 
ATOM     27  C   UNL     1      45.045   3.921   8.436  0.00  0.00    +0.000 A 
ATOM     28  C   UNL     1      45.519   4.986   9.211  0.00  0.00    +0.000 A 
ENDBRANCH  21  23
ENDBRANCH  16  17
ENDBRANCH  15  16
ENDBRANCH   3  15
TORSDOF 6
ENDMDL
MODEL 8
REMARK VINA RESULT:    -6.426      3.172      7.381
REMARK INTER + INTRA:          -9.716
REMARK INTER:                  -8.494
REMARK INTRA:                  -1.222
REMARK UNBOUND:                -1.037
REMARK  Name = 
REMARK  8 active torsions:
REMARK  status: ('A' for Active; 'I' for Inactive)
REMARK    1  A    between atoms: C_1  and  C_2
REMARK    2  A    between atoms: C_2  and  C_3
REMARK    3  A    between atoms: C_2  and  C_4
REMARK    4  A    between atoms: C_6  and  C_7
REMARK    5  A    between atoms: C_7  and  C_8
REMARK    6  A    between atoms: C_8  and  C_9
REMARK    7  A    between atoms: C_13  and  C_14
REMARK    8  A    between atoms: C_23  and  C_24
REMARK                            x       y       z     vdW  Elec       q    Type
REMARK                         _______ _______ _______ _____ _____    ______ ____
ROOT
ATOM      1  C   UNL     1      45.700   5.527  12.602  0.00  0.00    +0.000 A 
ATOM      2  N   UNL     1      46.943   6.058  12.797  0.00  0.00    +0.000 NA
ATOM      3  C   UNL     1      47.184   7.348  12.483  0.00  0.00    +0.000 A 
ATOM      4  C   UNL     1      46.194   8.173  11.972  0.00  0.00    +0.000 A 
ATOM      5  C   UNL     1      44.922   7.641  11.766  0.00  0.00    +0.000 A 
ATOM      6  C   UNL     1      44.651   6.304  12.091  0.00  0.00    +0.000 A 
ENDROOT
BRANCH   6   7
ATOM      7  C   UNL     1      43.286   5.759  11.841  0.00  0.00    +0.000 C 
ATOM      8  N   UNL     1      42.491   5.540  12.937  0.00  0.00    +0.000 N 
ATOM      9  O   UNL     1      42.861   5.504  10.726  0.00  0.00    +0.000 OA
ATOM     10  H   UNL     1      42.823   5.580  13.891  0.00  0.00    +0.000 HD
ATOM     11  H   UNL     1      41.588   5.122  12.766  0.00  0.00    +0.000 HD
ENDBRANCH   6   7
BRANCH   1  13
ATOM     12  C   UNL     1      45.345   3.261  11.631  0.00  0.00    +0.000 C 
ATOM     13  C   UNL     1      45.586   4.048  12.922  0.00  0.00    +0.000 C 
ATOM     14  C   UNL     1      46.836   3.497  13.624  0.00  0.00    +0.000 C 
ENDBRANCH   1  13
BRANCH   3  15
ATOM     15  C   UNL     1      48.557   7.896  12.781  0.00  0.00    +0.000 C 
BRANCH  15  16
ATOM     16  C   UNL     1      48.539   9.066  13.774  0.00  0.00    +0.000 C 
BRANCH  16  17
ATOM     17  C   UNL     1      48.614   8.564  15.195  0.00  0.00    +0.000 A 
ATOM     18  C   UNL     1      48.207   9.361  16.266  0.00  0.00    +0.000 A 
ATOM     19  C   UNL     1      48.232   8.851  17.561  0.00  0.00    +0.000 A 
ATOM     20  C   UNL     1      48.633   7.531  17.789  0.00  0.00    +0.000 A 
ATOM     21  C   UNL     1      49.007   6.686  16.730  0.00  0.00    +0.000 A 
ATOM     22  C   UNL     1      49.022   7.242  15.440  0.00  0.00    +0.000 A 
BRANCH  21  23
ATOM     23  C   UNL     1      49.265   5.242  16.932  0.00  0.00    +0.000 A 
ATOM     24  C   UNL     1      50.530   4.797  17.362  0.00  0.00    +0.000 A 
ATOM     25  C   UNL     1      50.764   3.456  17.678  0.00  0.00    +0.000 A 
ATOM     26  C   UNL     1      49.736   2.526  17.574  0.00  0.00    +0.000 A 
ATOM     27  C   UNL     1      48.482   2.934  17.131  0.00  0.00    +0.000 A 
ATOM     28  C   UNL     1      48.252   4.274  16.802  0.00  0.00    +0.000 A 
ENDBRANCH  21  23
ENDBRANCH  16  17
ENDBRANCH  15  16
ENDBRANCH   3  15
TORSDOF 6
ENDMDL
MODEL 9
REMARK VINA RESULT:    -6.334      4.778      7.606
REMARK INTER + INTRA:          -9.593
REMARK INTER:                  -8.503
REMARK INTRA:                  -1.090
REMARK UNBOUND:                -1.037
REMARK  Name = 
REMARK  8 active torsions:
REMARK  status: ('A' for Active; 'I' for Inactive)
REMARK    1  A    between atoms: C_1  and  C_2
REMARK    2  A    between atoms: C_2  and  C_3
REMARK    3  A    between atoms: C_2  and  C_4
REMARK    4  A    between atoms: C_6  and  C_7
REMARK    5  A    between atoms: C_7  and  C_8
REMARK    6  A    between atoms: C_8  and  C_9
REMARK    7  A    between atoms: C_13  and  C_14
REMARK    8  A    between atoms: C_23  and  C_24
REMARK                            x       y       z     vdW  Elec       q    Type
REMARK                         _______ _______ _______ _____ _____    ______ ____
ROOT
ATOM      1  C   UNL     1      45.221   5.589  13.023  0.00  0.00    +0.000 A 
ATOM      2  N   UNL     1      44.743   6.704  12.395  0.00  0.00    +0.000 NA
ATOM      3  C   UNL     1      45.471   7.841  12.391  0.00  0.00    +0.000 A 
ATOM      4  C   UNL     1      46.713   7.915  13.000  0.00  0.00    +0.000 A 
ATOM      5  C   UNL     1      47.209   6.783  13.646  0.00  0.00    +0.000 A 
ATOM      6  C   UNL     1      46.471   5.592  13.657  0.00  0.00    +0.000 A 
ENDROOT
BRANCH   6   7
ATOM      7  C   UNL     1      47.020   4.404  14.373  0.00  0.00    +0.000 C 
ATOM      8  N   UNL     1      46.889   4.385  15.738  0.00  0.00    +0.000 N 
ATOM      9  O   UNL     1      47.569   3.476  13.805  0.00  0.00    +0.000 OA
ATOM     10  H   UNL     1      46.589   5.178  16.288  0.00  0.00    +0.000 HD
ATOM     11  H   UNL     1      47.310   3.604  16.222  0.00  0.00    +0.000 HD
ENDBRANCH   6   7
BRANCH   1  13
ATOM     12  C   UNL     1      42.826   4.907  12.942  0.00  0.00    +0.000 C 
ATOM     13  C   UNL     1      44.270   4.405  13.020  0.00  0.00    +0.000 C 
ATOM     14  C   UNL     1      44.534   3.438  11.856  0.00  0.00    +0.000 C 
ENDBRANCH   1  13
BRANCH   3  15
ATOM     15  C   UNL     1      44.922   9.019  11.627  0.00  0.00    +0.000 C 
BRANCH  15  16
ATOM     16  C   UNL     1      43.734   8.656  10.726  0.00  0.00    +0.000 C 
BRANCH  16  17
ATOM     17  C   UNL     1      42.896   9.875  10.428  0.00  0.00    +0.000 A 
ATOM     18  C   UNL     1      43.374  10.898   9.607  0.00  0.00    +0.000 A 
ATOM     19  C   UNL     1      42.557  11.983   9.302  0.00  0.00    +0.000 A 
ATOM     20  C   UNL     1      41.247  12.035   9.789  0.00  0.00    +0.000 A 
ATOM     21  C   UNL     1      40.718  11.002  10.581  0.00  0.00    +0.000 A 
ATOM     22  C   UNL     1      41.581   9.945  10.917  0.00  0.00    +0.000 A 
BRANCH  21  23
ATOM     23  C   UNL     1      39.287  10.957  10.959  0.00  0.00    +0.000 A 
ATOM     24  C   UNL     1      38.666   9.730  11.258  0.00  0.00    +0.000 A 
ATOM     25  C   UNL     1      37.354   9.672  11.735  0.00  0.00    +0.000 A 
ATOM     26  C   UNL     1      36.630  10.844  11.928  0.00  0.00    +0.000 A 
ATOM     27  C   UNL     1      37.211  12.070  11.620  0.00  0.00    +0.000 A 
ATOM     28  C   UNL     1      38.521  12.125  11.130  0.00  0.00    +0.000 A 
ENDBRANCH  21  23
ENDBRANCH  16  17
ENDBRANCH  15  16
ENDBRANCH   3  15
TORSDOF 6
ENDMDL
