MODEL 1
REMARK VINA RESULT:    -8.524      0.000      0.000
REMARK INTER + INTRA:         -12.372
REMARK INTER:                 -11.515
REMARK INTRA:                  -0.857
REMARK UNBOUND:                -0.857
REMARK  Name = 
REMARK  6 active torsions:
REMARK  status: ('A' for Active; 'I' for Inactive)
REMARK    1  A    between atoms: C_2  and  C_25
REMARK    2  A    between atoms: N_3  and  C_4
REMARK    3  A    between atoms: C_4  and  C_5
REMARK    4  A    between atoms: C_7  and  C_8
REMARK    5  A    between atoms: C_8  and  N_9
REMARK    6  A    between atoms: C_10  and  C_12
REMARK                            x       y       z     vdW  Elec       q    Type
REMARK                         _______ _______ _______ _____ _____    ______ ____
ROOT
ATOM      1  C   UNL     1      45.460   5.461  11.242  0.00  0.00    +0.000 A 
ATOM      2  C   UNL     1      45.360   4.746  12.439  0.00  0.00    +0.000 A 
ATOM      3  C   UNL     1      46.222   5.055  13.497  0.00  0.00    +0.000 A 
ATOM      4  C   UNL     1      47.172   6.060  13.305  0.00  0.00    +0.000 A 
ATOM      5  C   UNL     1      47.194   6.730  12.094  0.00  0.00    +0.000 A 
ATOM      6  N   UNL     1      46.357   6.464  11.069  0.00  0.00    +0.000 NA
ENDROOT
BRANCH   1   7
ATOM      7  C   UNL     1      44.537   5.149  10.087  0.00  0.00    +0.000 C 
BRANCH   7  10
ATOM      8  O   UNL     1      44.492   2.427   9.418  0.00  0.00    +0.000 OA
ATOM      9  C   UNL     1      45.198   3.178   8.753  0.00  0.00    +0.000 C 
ATOM     10  N   UNL     1      45.240   4.545   8.976  0.00  0.00    +0.000 N 
ATOM     11  H   UNL     1      45.954   5.080   8.492  0.00  0.00    +0.000 HD
BRANCH   9  12
ATOM     12  C   UNL     1      46.079   2.677   7.630  0.00  0.00    +0.000 A 
ATOM     13  N   UNL     1      46.654   1.469   7.786  0.00  0.00    +0.000 NA
ATOM     14  C   UNL     1      47.401   1.036   6.755  0.00  0.00    +0.000 A 
ATOM     15  C   UNL     1      47.589   1.760   5.598  0.00  0.00    +0.000 A 
ATOM     16  C   UNL     1      46.957   2.984   5.545  0.00  0.00    +0.000 A 
ATOM     17  N   UNL     1      46.191   3.475   6.539  0.00  0.00    +0.000 NA
ENDBRANCH   9  12
ENDBRANCH   7  10
ENDBRANCH   1   7
BRANCH   3  18
ATOM     18  C   UNL     1      46.166   4.299  14.798  0.00  0.00    +0.000 C 
BRANCH  18  19
ATOM     19  N   UNL     1      47.356   4.515  15.581  0.00  0.00    +0.000 N 
ATOM     20  C   UNL     1      47.502   3.933  16.815  0.00  0.00    +0.000 C 
ATOM     21  O   UNL     1      46.650   3.181  17.282  0.00  0.00    +0.000 OA
ATOM     22  H   UNL     1      47.950   5.297  15.326  0.00  0.00    +0.000 HD
BRANCH  20  23
ATOM     23  C   UNL     1      48.757   4.203  17.528  0.00  0.00    +0.000 A 
ATOM     24  C   UNL     1      48.876   5.356  18.295  0.00  0.00    +0.000 A 
ATOM     25  S   UNL     1      50.371   5.493  19.102  0.00  0.00    +0.000 S 
ATOM     26  C   UNL     1      50.935   4.043  18.416  0.00  0.00    +0.000 A 
ATOM     27  N   UNL     1      52.186   3.583  18.687  0.00  0.00    +0.000 NA
ATOM     28  C   UNL     1      52.496   2.489  18.075  0.00  0.00    +0.000 A 
ATOM     29  N   UNL     1      51.668   1.812  17.218  0.00  0.00    +0.000 N 
ATOM     30  C   UNL     1      50.388   2.224  16.934  0.00  0.00    +0.000 A 
ATOM     31  O   UNL     1      49.659   1.578  16.187  0.00  0.00    +0.000 OA
ATOM     32  C   UNL     1      49.991   3.454  17.592  0.00  0.00    +0.000 A 
ATOM     33  H   UNL     1      51.972   0.957  16.776  0.00  0.00    +0.000 HD
ENDBRANCH  20  23
ENDBRANCH  18  19
ENDBRANCH   3  18
TORSDOF 6
ENDMDL
MODEL 2
REMARK VINA RESULT:    -8.257      2.050      3.003
REMARK INTER + INTRA:         -12.011
REMARK INTER:                 -10.863
REMARK INTRA:                  -1.148
REMARK UNBOUND:                -0.857
REMARK  Name = 
REMARK  6 active torsions:
REMARK  status: ('A' for Active; 'I' for Inactive)
REMARK    1  A    between atoms: C_2  and  C_25
REMARK    2  A    between atoms: N_3  and  C_4
REMARK    3  A    between atoms: C_4  and  C_5
REMARK    4  A    between atoms: C_7  and  C_8
REMARK    5  A    between atoms: C_8  and  N_9
REMARK    6  A    between atoms: C_10  and  C_12
REMARK                            x       y       z     vdW  Elec       q    Type
REMARK                         _______ _______ _______ _____ _____    ______ ____
ROOT
ATOM      1  C   UNL     1      44.980   6.278  11.232  0.00  0.00    +0.000 A 
ATOM      2  C   UNL     1      46.337   6.202  11.558  0.00  0.00    +0.000 A 
ATOM      3  C   UNL     1      46.989   7.338  12.051  0.00  0.00    +0.000 A 
ATOM      4  C   UNL     1      46.256   8.520  12.177  0.00  0.00    +0.000 A 
ATOM      5  C   UNL     1      44.911   8.506  11.848  0.00  0.00    +0.000 A 
ATOM      6  N   UNL     1      44.258   7.415  11.393  0.00  0.00    +0.000 NA
ENDROOT
BRANCH   1   7
ATOM      7  C   UNL     1      44.252   5.064  10.703  0.00  0.00    +0.000 C 
BRANCH   7  10
ATOM      8  O   UNL     1      43.998   2.388   9.905  0.00  0.00    +0.000 OA
ATOM      9  C   UNL     1      44.803   3.099   9.312  0.00  0.00    +0.000 C 
ATOM     10  N   UNL     1      44.955   4.446   9.601  0.00  0.00    +0.000 N 
ATOM     11  H   UNL     1      45.739   4.933   9.177  0.00  0.00    +0.000 HD
BRANCH   9  12
ATOM     12  C   UNL     1      45.693   2.567   8.210  0.00  0.00    +0.000 A 
ATOM     13  N   UNL     1      45.966   3.392   7.182  0.00  0.00    +0.000 NA
ATOM     14  C   UNL     1      46.789   2.902   6.237  0.00  0.00    +0.000 A 
ATOM     15  C   UNL     1      47.334   1.639   6.288  0.00  0.00    +0.000 A 
ATOM     16  C   UNL     1      46.986   0.877   7.384  0.00  0.00    +0.000 A 
ATOM     17  N   UNL     1      46.172   1.308   8.367  0.00  0.00    +0.000 NA
ENDBRANCH   9  12
ENDBRANCH   7  10
ENDBRANCH   1   7
BRANCH   3  18
ATOM     18  C   UNL     1      48.454   7.311  12.396  0.00  0.00    +0.000 C 
BRANCH  18  19
ATOM     19  N   UNL     1      48.689   6.609  13.632  0.00  0.00    +0.000 N 
ATOM     20  C   UNL     1      48.782   7.288  14.821  0.00  0.00    +0.000 C 
ATOM     21  O   UNL     1      48.632   8.505  14.885  0.00  0.00    +0.000 OA
ATOM     22  H   UNL     1      49.041   5.658  13.573  0.00  0.00    +0.000 HD
BRANCH  20  23
ATOM     23  C   UNL     1      49.008   6.480  16.026  0.00  0.00    +0.000 A 
ATOM     24  C   UNL     1      49.972   6.876  16.945  0.00  0.00    +0.000 A 
ATOM     25  S   UNL     1      50.071   5.865  18.314  0.00  0.00    +0.000 S 
ATOM     26  C   UNL     1      48.865   4.832  17.706  0.00  0.00    +0.000 A 
ATOM     27  N   UNL     1      48.478   3.727  18.397  0.00  0.00    +0.000 NA
ATOM     28  C   UNL     1      47.578   3.016  17.806  0.00  0.00    +0.000 A 
ATOM     29  N   UNL     1      47.028   3.309  16.585  0.00  0.00    +0.000 N 
ATOM     30  C   UNL     1      47.370   4.427  15.861  0.00  0.00    +0.000 A 
ATOM     31  O   UNL     1      46.836   4.680  14.785  0.00  0.00    +0.000 OA
ATOM     32  C   UNL     1      48.383   5.260  16.480  0.00  0.00    +0.000 A 
ATOM     33  H   UNL     1      46.323   2.712  16.180  0.00  0.00    +0.000 HD
ENDBRANCH  20  23
ENDBRANCH  18  19
ENDBRANCH   3  18
TORSDOF 6
ENDMDL
MODEL 3
REMARK VINA RESULT:    -8.052      2.080      2.688
REMARK INTER + INTRA:         -11.734
REMARK INTER:                 -10.762
REMARK INTRA:                  -0.972
REMARK UNBOUND:                -0.857
REMARK  Name = 
REMARK  6 active torsions:
REMARK  status: ('A' for Active; 'I' for Inactive)
REMARK    1  A    between atoms: C_2  and  C_25
REMARK    2  A    between atoms: N_3  and  C_4
REMARK    3  A    between atoms: C_4  and  C_5
REMARK    4  A    between atoms: C_7  and  C_8
REMARK    5  A    between atoms: C_8  and  N_9
REMARK    6  A    between atoms: C_10  and  C_12
REMARK                            x       y       z     vdW  Elec       q    Type
REMARK                         _______ _______ _______ _____ _____    ______ ____
ROOT
ATOM      1  C   UNL     1      44.755   5.865  11.534  0.00  0.00    +0.000 A 
ATOM      2  C   UNL     1      45.683   5.121  12.268  0.00  0.00    +0.000 A 
ATOM      3  C   UNL     1      46.529   5.777  13.170  0.00  0.00    +0.000 A 
ATOM      4  C   UNL     1      46.426   7.165  13.284  0.00  0.00    +0.000 A 
ATOM      5  C   UNL     1      45.468   7.824  12.532  0.00  0.00    +0.000 A 
ATOM      6  N   UNL     1      44.627   7.208  11.674  0.00  0.00    +0.000 NA
ENDROOT
BRANCH   1   7
ATOM      7  C   UNL     1      43.827   5.178  10.558  0.00  0.00    +0.000 C 
BRANCH   7  10
ATOM      8  O   UNL     1      44.192   2.423  10.190  0.00  0.00    +0.000 OA
ATOM      9  C   UNL     1      44.719   3.192   9.392  0.00  0.00    +0.000 C 
ATOM     10  N   UNL     1      44.546   4.565   9.463  0.00  0.00    +0.000 N 
ATOM     11  H   UNL     1      45.128   5.145   8.866  0.00  0.00    +0.000 HD
BRANCH   9  12
ATOM     12  C   UNL     1      45.595   2.706   8.258  0.00  0.00    +0.000 A 
ATOM     13  N   UNL     1      45.811   3.554   7.235  0.00  0.00    +0.000 NA
ATOM     14  C   UNL     1      46.623   3.105   6.260  0.00  0.00    +0.000 A 
ATOM     15  C   UNL     1      47.212   1.860   6.278  0.00  0.00    +0.000 A 
ATOM     16  C   UNL     1      46.921   1.073   7.372  0.00  0.00    +0.000 A 
ATOM     17  N   UNL     1      46.120   1.462   8.383  0.00  0.00    +0.000 NA
ENDBRANCH   9  12
ENDBRANCH   7  10
ENDBRANCH   1   7
BRANCH   3  18
ATOM     18  C   UNL     1      47.558   5.022  13.967  0.00  0.00    +0.000 C 
BRANCH  18  19
ATOM     19  N   UNL     1      47.568   5.445  15.345  0.00  0.00    +0.000 N 
ATOM     20  C   UNL     1      48.653   6.099  15.873  0.00  0.00    +0.000 C 
ATOM     21  O   UNL     1      49.635   6.380  15.191  0.00  0.00    +0.000 OA
ATOM     22  H   UNL     1      46.887   5.026  15.969  0.00  0.00    +0.000 HD
BRANCH  20  23
ATOM     23  C   UNL     1      48.559   6.501  17.282  0.00  0.00    +0.000 A 
ATOM     24  C   UNL     1      48.500   7.850  17.608  0.00  0.00    +0.000 A 
ATOM     25  S   UNL     1      48.335   8.147  19.278  0.00  0.00    +0.000 S 
ATOM     26  C   UNL     1      48.389   6.484  19.634  0.00  0.00    +0.000 A 
ATOM     27  N   UNL     1      48.316   6.042  20.917  0.00  0.00    +0.000 NA
ATOM     28  C   UNL     1      48.400   4.761  21.046  0.00  0.00    +0.000 A 
ATOM     29  N   UNL     1      48.549   3.880  20.006  0.00  0.00    +0.000 N 
ATOM     30  C   UNL     1      48.602   4.277  18.691  0.00  0.00    +0.000 A 
ATOM     31  O   UNL     1      48.703   3.462  17.780  0.00  0.00    +0.000 OA
ATOM     32  C   UNL     1      48.517   5.712  18.492  0.00  0.00    +0.000 A 
ATOM     33  H   UNL     1      48.603   2.887  20.176  0.00  0.00    +0.000 HD
ENDBRANCH  20  23
ENDBRANCH  18  19
ENDBRANCH   3  18
TORSDOF 6
ENDMDL
MODEL 4
REMARK VINA RESULT:    -7.824      2.681      3.414
REMARK INTER + INTRA:         -11.426
REMARK INTER:                 -10.372
REMARK INTRA:                  -1.054
REMARK UNBOUND:                -0.857
REMARK  Name = 
REMARK  6 active torsions:
REMARK  status: ('A' for Active; 'I' for Inactive)
REMARK    1  A    between atoms: C_2  and  C_25
REMARK    2  A    between atoms: N_3  and  C_4
REMARK    3  A    between atoms: C_4  and  C_5
REMARK    4  A    between atoms: C_7  and  C_8
REMARK    5  A    between atoms: C_8  and  N_9
REMARK    6  A    between atoms: C_10  and  C_12
REMARK                            x       y       z     vdW  Elec       q    Type
REMARK                         _______ _______ _______ _____ _____    ______ ____
ROOT
ATOM      1  C   UNL     1      44.450   7.389  11.512  0.00  0.00    +0.000 A 
ATOM      2  C   UNL     1      45.655   7.320  12.216  0.00  0.00    +0.000 A 
ATOM      3  C   UNL     1      46.303   8.504  12.587  0.00  0.00    +0.000 A 
ATOM      4  C   UNL     1      45.724   9.719  12.214  0.00  0.00    +0.000 A 
ATOM      5  C   UNL     1      44.520   9.700  11.532  0.00  0.00    +0.000 A 
ATOM      6  N   UNL     1      43.867   8.570  11.186  0.00  0.00    +0.000 NA
ENDROOT
BRANCH   1   7
ATOM      7  C   UNL     1      43.729   6.125  11.106  0.00  0.00    +0.000 C 
BRANCH   7  10
ATOM      8  O   UNL     1      43.483   3.374  10.620  0.00  0.00    +0.000 OA
ATOM      9  C   UNL     1      44.309   4.009   9.972  0.00  0.00    +0.000 C 
ATOM     10  N   UNL     1      44.460   5.379  10.105  0.00  0.00    +0.000 N 
ATOM     11  H   UNL     1      45.259   5.812   9.651  0.00  0.00    +0.000 HD
BRANCH   9  12
ATOM     12  C   UNL     1      45.228   3.348   8.967  0.00  0.00    +0.000 A 
ATOM     13  N   UNL     1      45.387   2.015   9.057  0.00  0.00    +0.000 NA
ATOM     14  C   UNL     1      46.181   1.453   8.127  0.00  0.00    +0.000 A 
ATOM     15  C   UNL     1      46.808   2.171   7.134  0.00  0.00    +0.000 A 
ATOM     16  C   UNL     1      46.579   3.530   7.136  0.00  0.00    +0.000 A 
ATOM     17  N   UNL     1      45.792   4.155   8.034  0.00  0.00    +0.000 NA
ENDBRANCH   9  12
ENDBRANCH   7  10
ENDBRANCH   1   7
BRANCH   3  18
ATOM     18  C   UNL     1      47.614   8.481  13.327  0.00  0.00    +0.000 C 
BRANCH  18  19
ATOM     19  N   UNL     1      47.558   7.597  14.463  0.00  0.00    +0.000 N 
ATOM     20  C   UNL     1      48.125   6.348  14.413  0.00  0.00    +0.000 C 
ATOM     21  O   UNL     1      48.730   5.951  13.421  0.00  0.00    +0.000 OA
ATOM     22  H   UNL     1      46.879   7.807  15.188  0.00  0.00    +0.000 HD
BRANCH  20  23
ATOM     23  C   UNL     1      48.027   5.529  15.628  0.00  0.00    +0.000 A 
ATOM     24  C   UNL     1      47.327   4.329  15.592  0.00  0.00    +0.000 A 
ATOM     25  S   UNL     1      47.356   3.473  17.065  0.00  0.00    +0.000 S 
ATOM     26  C   UNL     1      48.261   4.698  17.822  0.00  0.00    +0.000 A 
ATOM     27  N   UNL     1      48.616   4.597  19.131  0.00  0.00    +0.000 NA
ATOM     28  C   UNL     1      49.272   5.611  19.585  0.00  0.00    +0.000 A 
ATOM     29  N   UNL     1      49.608   6.718  18.850  0.00  0.00    +0.000 N 
ATOM     30  C   UNL     1      49.293   6.854  17.518  0.00  0.00    +0.000 A 
ATOM     31  O   UNL     1      49.637   7.842  16.877  0.00  0.00    +0.000 OA
ATOM     32  C   UNL     1      48.549   5.741  16.958  0.00  0.00    +0.000 A 
ATOM     33  H   UNL     1      50.128   7.475  19.266  0.00  0.00    +0.000 HD
ENDBRANCH  20  23
ENDBRANCH  18  19
ENDBRANCH   3  18
TORSDOF 6
ENDMDL
MODEL 5
REMARK VINA RESULT:    -7.705      4.055      7.363
REMARK INTER + INTRA:         -11.266
REMARK INTER:                 -10.073
REMARK INTRA:                  -1.193
REMARK UNBOUND:                -0.857
REMARK  Name = 
REMARK  6 active torsions:
REMARK  status: ('A' for Active; 'I' for Inactive)
REMARK    1  A    between atoms: C_2  and  C_25
REMARK    2  A    between atoms: N_3  and  C_4
REMARK    3  A    between atoms: C_4  and  C_5
REMARK    4  A    between atoms: C_7  and  C_8
REMARK    5  A    between atoms: C_8  and  N_9
REMARK    6  A    between atoms: C_10  and  C_12
REMARK                            x       y       z     vdW  Elec       q    Type
REMARK                         _______ _______ _______ _____ _____    ______ ____
ROOT
ATOM      1  C   UNL     1      46.106   4.603  13.562  0.00  0.00    +0.000 A 
ATOM      2  C   UNL     1      46.635   5.863  13.270  0.00  0.00    +0.000 A 
ATOM      3  C   UNL     1      47.602   6.416  14.118  0.00  0.00    +0.000 A 
ATOM      4  C   UNL     1      47.986   5.687  15.245  0.00  0.00    +0.000 A 
ATOM      5  C   UNL     1      47.425   4.439  15.453  0.00  0.00    +0.000 A 
ATOM      6  N   UNL     1      46.508   3.879  14.636  0.00  0.00    +0.000 NA
ENDROOT
BRANCH   1   7
ATOM      7  C   UNL     1      45.064   3.984  12.659  0.00  0.00    +0.000 C 
BRANCH   7  10
ATOM      8  O   UNL     1      43.588   2.934  10.519  0.00  0.00    +0.000 OA
ATOM      9  C   UNL     1      44.769   3.207  10.333  0.00  0.00    +0.000 C 
ATOM     10  N   UNL     1      45.560   3.782  11.315  0.00  0.00    +0.000 N 
ATOM     11  H   UNL     1      46.559   3.841  11.142  0.00  0.00    +0.000 HD
BRANCH   9  12
ATOM     12  C   UNL     1      45.461   2.946   9.013  0.00  0.00    +0.000 A 
ATOM     13  N   UNL     1      45.633   3.994   8.186  0.00  0.00    +0.000 NA
ATOM     14  C   UNL     1      46.283   3.736   7.037  0.00  0.00    +0.000 A 
ATOM     15  C   UNL     1      46.755   2.488   6.697  0.00  0.00    +0.000 A 
ATOM     16  C   UNL     1      46.523   1.486   7.615  0.00  0.00    +0.000 A 
ATOM     17  N   UNL     1      45.883   1.677   8.786  0.00  0.00    +0.000 NA
ENDBRANCH   9  12
ENDBRANCH   7  10
ENDBRANCH   1   7
BRANCH   3  18
ATOM     18  C   UNL     1      48.186   7.778  13.856  0.00  0.00    +0.000 C 
BRANCH  18  19
ATOM     19  N   UNL     1      47.178   8.702  13.400  0.00  0.00    +0.000 N 
ATOM     20  C   UNL     1      47.357   9.427  12.249  0.00  0.00    +0.000 C 
ATOM     21  O   UNL     1      48.355   9.293  11.547  0.00  0.00    +0.000 OA
ATOM     22  H   UNL     1      46.473   8.994  14.069  0.00  0.00    +0.000 HD
BRANCH  20  23
ATOM     23  C   UNL     1      46.265  10.330  11.863  0.00  0.00    +0.000 A 
ATOM     24  C   UNL     1      46.460  11.705  11.921  0.00  0.00    +0.000 A 
ATOM     25  S   UNL     1      45.119  12.611  11.386  0.00  0.00    +0.000 S 
ATOM     26  C   UNL     1      44.210  11.202  11.105  0.00  0.00    +0.000 A 
ATOM     27  N   UNL     1      42.932  11.275  10.647  0.00  0.00    +0.000 NA
ATOM     28  C   UNL     1      42.349  10.132  10.508  0.00  0.00    +0.000 A 
ATOM     29  N   UNL     1      42.928   8.921  10.783  0.00  0.00    +0.000 N 
ATOM     30  C   UNL     1      44.224   8.796  11.224  0.00  0.00    +0.000 A 
ATOM     31  O   UNL     1      44.726   7.695  11.431  0.00  0.00    +0.000 OA
ATOM     32  C   UNL     1      44.925  10.054  11.402  0.00  0.00    +0.000 A 
ATOM     33  H   UNL     1      42.417   8.062  10.648  0.00  0.00    +0.000 HD
ENDBRANCH  20  23
ENDBRANCH  18  19
ENDBRANCH   3  18
TORSDOF 6
ENDMDL
MODEL 6
REMARK VINA RESULT:    -7.399      2.331      2.949
REMARK INTER + INTRA:         -10.851
REMARK INTER:                  -9.989
REMARK INTRA:                  -0.862
REMARK UNBOUND:                -0.857
REMARK  Name = 
REMARK  6 active torsions:
REMARK  status: ('A' for Active; 'I' for Inactive)
REMARK    1  A    between atoms: C_2  and  C_25
REMARK    2  A    between atoms: N_3  and  C_4
REMARK    3  A    between atoms: C_4  and  C_5
REMARK    4  A    between atoms: C_7  and  C_8
REMARK    5  A    between atoms: C_8  and  N_9
REMARK    6  A    between atoms: C_10  and  C_12
REMARK                            x       y       z     vdW  Elec       q    Type
REMARK                         _______ _______ _______ _____ _____    ______ ____
ROOT
ATOM      1  C   UNL     1      44.993   4.809  11.117  0.00  0.00    +0.000 A 
ATOM      2  C   UNL     1      45.878   5.884  11.232  0.00  0.00    +0.000 A 
ATOM      3  C   UNL     1      46.558   6.087  12.439  0.00  0.00    +0.000 A 
ATOM      4  C   UNL     1      46.304   5.212  13.496  0.00  0.00    +0.000 A 
ATOM      5  C   UNL     1      45.425   4.162  13.293  0.00  0.00    +0.000 A 
ATOM      6  N   UNL     1      44.776   3.935  12.131  0.00  0.00    +0.000 NA
ENDROOT
BRANCH   1   7
ATOM      7  C   UNL     1      44.251   4.567   9.822  0.00  0.00    +0.000 C 
BRANCH   7  10
ATOM      8  O   UNL     1      46.367   5.080   8.055  0.00  0.00    +0.000 OA
ATOM      9  C   UNL     1      45.916   3.940   8.110  0.00  0.00    +0.000 C 
ATOM     10  N   UNL     1      44.911   3.582   8.993  0.00  0.00    +0.000 N 
ATOM     11  H   UNL     1      44.486   2.667   8.880  0.00  0.00    +0.000 HD
BRANCH   9  12
ATOM     12  C   UNL     1      46.426   2.825   7.222  0.00  0.00    +0.000 A 
ATOM     13  N   UNL     1      46.656   3.121   5.928  0.00  0.00    +0.000 NA
ATOM     14  C   UNL     1      47.143   2.119   5.174  0.00  0.00    +0.000 A 
ATOM     15  C   UNL     1      47.399   0.858   5.664  0.00  0.00    +0.000 A 
ATOM     16  C   UNL     1      47.126   0.664   7.001  0.00  0.00    +0.000 A 
ATOM     17  N   UNL     1      46.642   1.624   7.813  0.00  0.00    +0.000 NA
ENDBRANCH   9  12
ENDBRANCH   7  10
ENDBRANCH   1   7
BRANCH   3  18
ATOM     18  C   UNL     1      47.506   7.243  12.618  0.00  0.00    +0.000 C 
BRANCH  18  19
ATOM     19  N   UNL     1      48.622   6.881  13.454  0.00  0.00    +0.000 N 
ATOM     20  C   UNL     1      48.867   7.546  14.629  0.00  0.00    +0.000 C 
ATOM     21  O   UNL     1      48.131   8.443  15.031  0.00  0.00    +0.000 OA
ATOM     22  H   UNL     1      49.357   6.318  13.038  0.00  0.00    +0.000 HD
BRANCH  20  23
ATOM     23  C   UNL     1      50.020   7.092  15.416  0.00  0.00    +0.000 A 
ATOM     24  C   UNL     1      51.267   7.665  15.198  0.00  0.00    +0.000 A 
ATOM     25  S   UNL     1      52.486   7.070  16.230  0.00  0.00    +0.000 S 
ATOM     26  C   UNL     1      51.405   5.988  16.973  0.00  0.00    +0.000 A 
ATOM     27  N   UNL     1      51.823   5.146  17.955  0.00  0.00    +0.000 NA
ATOM     28  C   UNL     1      50.907   4.357  18.408  0.00  0.00    +0.000 A 
ATOM     29  N   UNL     1      49.609   4.335  17.969  0.00  0.00    +0.000 N 
ATOM     30  C   UNL     1      49.134   5.183  16.997  0.00  0.00    +0.000 A 
ATOM     31  O   UNL     1      47.957   5.161  16.648  0.00  0.00    +0.000 OA
ATOM     32  C   UNL     1      50.126   6.088  16.450  0.00  0.00    +0.000 A 
ATOM     33  H   UNL     1      48.940   3.695  18.370  0.00  0.00    +0.000 HD
ENDBRANCH  20  23
ENDBRANCH  18  19
ENDBRANCH   3  18
TORSDOF 6
ENDMDL
MODEL 7
REMARK VINA RESULT:    -7.376      3.536      9.736
REMARK INTER + INTRA:         -10.821
REMARK INTER:                  -9.933
REMARK INTRA:                  -0.888
REMARK UNBOUND:                -0.857
REMARK  Name = 
REMARK  6 active torsions:
REMARK  status: ('A' for Active; 'I' for Inactive)
REMARK    1  A    between atoms: C_2  and  C_25
REMARK    2  A    between atoms: N_3  and  C_4
REMARK    3  A    between atoms: C_4  and  C_5
REMARK    4  A    between atoms: C_7  and  C_8
REMARK    5  A    between atoms: C_8  and  N_9
REMARK    6  A    between atoms: C_10  and  C_12
REMARK                            x       y       z     vdW  Elec       q    Type
REMARK                         _______ _______ _______ _____ _____    ______ ____
ROOT
ATOM      1  C   UNL     1      51.183   3.012  17.649  0.00  0.00    +0.000 A 
ATOM      2  C   UNL     1      50.648   4.295  17.509  0.00  0.00    +0.000 A 
ATOM      3  C   UNL     1      49.336   4.445  17.043  0.00  0.00    +0.000 A 
ATOM      4  C   UNL     1      48.616   3.295  16.711  0.00  0.00    +0.000 A 
ATOM      5  C   UNL     1      49.215   2.060  16.895  0.00  0.00    +0.000 A 
ATOM      6  N   UNL     1      50.470   1.893  17.365  0.00  0.00    +0.000 NA
ENDROOT
BRANCH   1   7
ATOM      7  C   UNL     1      52.594   2.824  18.155  0.00  0.00    +0.000 C 
BRANCH   7  10
ATOM      8  O   UNL     1      54.925   1.530  17.286  0.00  0.00    +0.000 OA
ATOM      9  C   UNL     1      54.070   0.865  17.862  0.00  0.00    +0.000 C 
ATOM     10  N   UNL     1      52.914   1.431  18.375  0.00  0.00    +0.000 N 
ATOM     11  H   UNL     1      52.187   0.803  18.704  0.00  0.00    +0.000 HD
BRANCH   9  12
ATOM     12  C   UNL     1      54.209  -0.627  18.068  0.00  0.00    +0.000 A 
ATOM     13  N   UNL     1      54.859  -1.325  17.118  0.00  0.00    +0.000 NA
ATOM     14  C   UNL     1      54.997  -2.644  17.348  0.00  0.00    +0.000 A 
ATOM     15  C   UNL     1      54.513  -3.271  18.474  0.00  0.00    +0.000 A 
ATOM     16  C   UNL     1      53.861  -2.463  19.381  0.00  0.00    +0.000 A 
ATOM     17  N   UNL     1      53.692  -1.136  19.214  0.00  0.00    +0.000 NA
ENDBRANCH   9  12
ENDBRANCH   7  10
ENDBRANCH   1   7
BRANCH   3  18
ATOM     18  C   UNL     1      48.723   5.807  16.855  0.00  0.00    +0.000 C 
BRANCH  18  19
ATOM     19  N   UNL     1      47.751   5.803  15.791  0.00  0.00    +0.000 N 
ATOM     20  C   UNL     1      48.084   6.233  14.531  0.00  0.00    +0.000 C 
ATOM     21  O   UNL     1      49.222   6.600  14.252  0.00  0.00    +0.000 OA
ATOM     22  H   UNL     1      46.773   5.729  16.050  0.00  0.00    +0.000 HD
BRANCH  20  23
ATOM     23  C   UNL     1      47.027   6.176  13.514  0.00  0.00    +0.000 A 
ATOM     24  C   UNL     1      46.559   7.354  12.944  0.00  0.00    +0.000 A 
ATOM     25  S   UNL     1      45.376   7.112  11.742  0.00  0.00    +0.000 S 
ATOM     26  C   UNL     1      45.406   5.428  11.974  0.00  0.00    +0.000 A 
ATOM     27  N   UNL     1      44.594   4.609  11.254  0.00  0.00    +0.000 NA
ATOM     28  C   UNL     1      44.697   3.358  11.553  0.00  0.00    +0.000 A 
ATOM     29  N   UNL     1      45.541   2.849  12.506  0.00  0.00    +0.000 N 
ATOM     30  C   UNL     1      46.398   3.634  13.241  0.00  0.00    +0.000 A 
ATOM     31  O   UNL     1      47.165   3.146  14.065  0.00  0.00    +0.000 OA
ATOM     32  C   UNL     1      46.318   5.053  12.947  0.00  0.00    +0.000 A 
ATOM     33  H   UNL     1      45.576   1.858  12.688  0.00  0.00    +0.000 HD
ENDBRANCH  20  23
ENDBRANCH  18  19
ENDBRANCH   3  18
TORSDOF 6
ENDMDL
MODEL 8
REMARK VINA RESULT:    -7.343      4.445      6.502
REMARK INTER + INTRA:         -10.776
REMARK INTER:                  -9.832
REMARK INTRA:                  -0.944
REMARK UNBOUND:                -0.857
REMARK  Name = 
REMARK  6 active torsions:
REMARK  status: ('A' for Active; 'I' for Inactive)
REMARK    1  A    between atoms: C_2  and  C_25
REMARK    2  A    between atoms: N_3  and  C_4
REMARK    3  A    between atoms: C_4  and  C_5
REMARK    4  A    between atoms: C_7  and  C_8
REMARK    5  A    between atoms: C_8  and  N_9
REMARK    6  A    between atoms: C_10  and  C_12
REMARK                            x       y       z     vdW  Elec       q    Type
REMARK                         _______ _______ _______ _____ _____    ______ ____
ROOT
ATOM      1  C   UNL     1      44.127   6.622  11.577  0.00  0.00    +0.000 A 
ATOM      2  C   UNL     1      45.168   5.957  12.232  0.00  0.00    +0.000 A 
ATOM      3  C   UNL     1      45.018   4.605  12.563  0.00  0.00    +0.000 A 
ATOM      4  C   UNL     1      43.813   3.975  12.244  0.00  0.00    +0.000 A 
ATOM      5  C   UNL     1      42.839   4.702  11.581  0.00  0.00    +0.000 A 
ATOM      6  N   UNL     1      42.973   5.999  11.232  0.00  0.00    +0.000 NA
ENDROOT
BRANCH   1   7
ATOM      7  C   UNL     1      44.268   8.079  11.205  0.00  0.00    +0.000 C 
BRANCH   7  10
ATOM      8  O   UNL     1      43.793  10.830  10.945  0.00  0.00    +0.000 OA
ATOM      9  C   UNL     1      42.843  10.062  10.830  0.00  0.00    +0.000 C 
ATOM     10  N   UNL     1      42.993   8.686  10.888  0.00  0.00    +0.000 N 
ATOM     11  H   UNL     1      42.151   8.121  10.935  0.00  0.00    +0.000 HD
BRANCH   9  12
ATOM     12  C   UNL     1      41.428  10.552  10.610  0.00  0.00    +0.000 A 
ATOM     13  N   UNL     1      41.248  11.539   9.712  0.00  0.00    +0.000 NA
ATOM     14  C   UNL     1      39.975  11.927   9.513  0.00  0.00    +0.000 A 
ATOM     15  C   UNL     1      38.902  11.370  10.172  0.00  0.00    +0.000 A 
ATOM     16  C   UNL     1      39.200  10.369  11.071  0.00  0.00    +0.000 A 
ATOM     17  N   UNL     1      40.451   9.930  11.315  0.00  0.00    +0.000 NA
ENDBRANCH   9  12
ENDBRANCH   7  10
ENDBRANCH   1   7
BRANCH   3  18
ATOM     18  C   UNL     1      46.102   3.852  13.287  0.00  0.00    +0.000 C 
BRANCH  18  19
ATOM     19  N   UNL     1      46.540   4.563  14.461  0.00  0.00    +0.000 N 
ATOM     20  C   UNL     1      47.386   3.973  15.367  0.00  0.00    +0.000 C 
ATOM     21  O   UNL     1      47.829   2.841  15.197  0.00  0.00    +0.000 OA
ATOM     22  H   UNL     1      46.014   5.387  14.734  0.00  0.00    +0.000 HD
BRANCH  20  23
ATOM     23  C   UNL     1      47.785   4.786  16.523  0.00  0.00    +0.000 A 
ATOM     24  C   UNL     1      47.390   4.403  17.799  0.00  0.00    +0.000 A 
ATOM     25  S   UNL     1      47.982   5.417  19.035  0.00  0.00    +0.000 S 
ATOM     26  C   UNL     1      48.745   6.436  17.906  0.00  0.00    +0.000 A 
ATOM     27  N   UNL     1      49.431   7.538  18.312  0.00  0.00    +0.000 NA
ATOM     28  C   UNL     1      49.932   8.238  17.351  0.00  0.00    +0.000 A 
ATOM     29  N   UNL     1      49.812   7.936  16.020  0.00  0.00    +0.000 N 
ATOM     30  C   UNL     1      49.151   6.821  15.563  0.00  0.00    +0.000 A 
ATOM     31  O   UNL     1      49.088   6.559  14.365  0.00  0.00    +0.000 OA
ATOM     32  C   UNL     1      48.562   6.000  16.605  0.00  0.00    +0.000 A 
ATOM     33  H   UNL     1      50.234   8.524  15.317  0.00  0.00    +0.000 HD
ENDBRANCH  20  23
ENDBRANCH  18  19
ENDBRANCH   3  18
TORSDOF 6
ENDMDL
MODEL 9
REMARK VINA RESULT:    -7.317      2.996      3.782
REMARK INTER + INTRA:         -10.742
REMARK INTER:                  -9.792
REMARK INTRA:                  -0.949
REMARK UNBOUND:                -0.857
REMARK  Name = 
REMARK  6 active torsions:
REMARK  status: ('A' for Active; 'I' for Inactive)
REMARK    1  A    between atoms: C_2  and  C_25
REMARK    2  A    between atoms: N_3  and  C_4
REMARK    3  A    between atoms: C_4  and  C_5
REMARK    4  A    between atoms: C_7  and  C_8
REMARK    5  A    between atoms: C_8  and  N_9
REMARK    6  A    between atoms: C_10  and  C_12
REMARK                            x       y       z     vdW  Elec       q    Type
REMARK                         _______ _______ _______ _____ _____    ______ ____
ROOT
ATOM      1  C   UNL     1      44.502   7.512  11.565  0.00  0.00    +0.000 A 
ATOM      2  C   UNL     1      45.709   7.708  12.242  0.00  0.00    +0.000 A 
ATOM      3  C   UNL     1      46.191   9.010  12.424  0.00  0.00    +0.000 A 
ATOM      4  C   UNL     1      45.450  10.069  11.897  0.00  0.00    +0.000 A 
ATOM      5  C   UNL     1      44.255   9.790  11.254  0.00  0.00    +0.000 A 
ATOM      6  N   UNL     1      43.762   8.544  11.088  0.00  0.00    +0.000 NA
ENDROOT
BRANCH   1   7
ATOM      7  C   UNL     1      43.959   6.117  11.361  0.00  0.00    +0.000 C 
BRANCH   7  10
ATOM      8  O   UNL     1      43.501   3.455  10.607  0.00  0.00    +0.000 OA
ATOM      9  C   UNL     1      44.396   4.076  10.041  0.00  0.00    +0.000 C 
ATOM     10  N   UNL     1      44.656   5.410  10.309  0.00  0.00    +0.000 N 
ATOM     11  H   UNL     1      45.501   5.814   9.917  0.00  0.00    +0.000 HD
BRANCH   9  12
ATOM     12  C   UNL     1      45.287   3.438   8.998  0.00  0.00    +0.000 A 
ATOM     13  N   UNL     1      45.444   2.102   9.051  0.00  0.00    +0.000 NA
ATOM     14  C   UNL     1      46.213   1.561   8.088  0.00  0.00    +0.000 A 
ATOM     15  C   UNL     1      46.818   2.301   7.097  0.00  0.00    +0.000 A 
ATOM     16  C   UNL     1      46.593   3.661   7.139  0.00  0.00    +0.000 A 
ATOM     17  N   UNL     1      45.831   4.265   8.071  0.00  0.00    +0.000 NA
ENDBRANCH   9  12
ENDBRANCH   7  10
ENDBRANCH   1   7
BRANCH   3  18
ATOM     18  C   UNL     1      47.496   9.270  13.128  0.00  0.00    +0.000 C 
BRANCH  18  19
ATOM     19  N   UNL     1      47.486   8.732  14.465  0.00  0.00    +0.000 N 
ATOM     20  C   UNL     1      48.435   9.109  15.382  0.00  0.00    +0.000 C 
ATOM     21  O   UNL     1      49.299   9.940  15.116  0.00  0.00    +0.000 OA
ATOM     22  H   UNL     1      46.940   7.892  14.629  0.00  0.00    +0.000 HD
BRANCH  20  23
ATOM     23  C   UNL     1      48.330   8.516  16.721  0.00  0.00    +0.000 A 
ATOM     24  C   UNL     1      48.113   9.337  17.820  0.00  0.00    +0.000 A 
ATOM     25  S   UNL     1      47.958   8.490  19.291  0.00  0.00    +0.000 S 
ATOM     26  C   UNL     1      48.228   6.997  18.522  0.00  0.00    +0.000 A 
ATOM     27  N   UNL     1      48.246   5.838  19.233  0.00  0.00    +0.000 NA
ATOM     28  C   UNL     1      48.493   4.785  18.530  0.00  0.00    +0.000 A 
ATOM     29  N   UNL     1      48.721   4.784  17.178  0.00  0.00    +0.000 N 
ATOM     30  C   UNL     1      48.688   5.926  16.414  0.00  0.00    +0.000 A 
ATOM     31  O   UNL     1      48.865   5.888  15.200  0.00  0.00    +0.000 OA
ATOM     32  C   UNL     1      48.420   7.142  17.158  0.00  0.00    +0.000 A 
ATOM     33  H   UNL     1      48.904   3.922  16.687  0.00  0.00    +0.000 HD
ENDBRANCH  20  23
ENDBRANCH  18  19
ENDBRANCH   3  18
TORSDOF 6
ENDMDL
