MODEL 1
REMARK VINA RESULT:    -7.883      0.000      0.000
REMARK INTER + INTRA:         -12.083
REMARK INTER:                 -11.800
REMARK INTRA:                  -0.284
REMARK UNBOUND:                -0.284
REMARK  Name = 
REMARK  9 active torsions:
REMARK  status: ('A' for Active; 'I' for Inactive)
REMARK    1  A    between atoms: N_1  and  C_2
REMARK    2  A    between atoms: C_2  and  C_3
REMARK    3  A    between atoms: C_2  and  C_19
REMARK    4  A    between atoms: C_3  and  C_4
REMARK    5  A    between atoms: C_7  and  C_8
REMARK    6  A    between atoms: C_8  and  C_9
REMARK    7  A    between atoms: C_9  and  N_10
REMARK    8  A    between atoms: N_10  and  C_11
REMARK    9  A    between atoms: C_19  and  C_21
REMARK                            x       y       z     vdW  Elec       q    Type
REMARK                         _______ _______ _______ _____ _____    ______ ____
ROOT
ATOM      1  C   UNL     1      47.722   5.039  15.386  0.00  0.00    +0.000 C 
ENDROOT
BRANCH   1   2
ATOM      2  C   UNL     1      46.860   4.759  14.188  0.00  0.00    +0.000 A 
ATOM      3  C   UNL     1      46.510   5.852  13.385  0.00  0.00    +0.000 A 
ATOM      4  C   UNL     1      45.785   5.641  12.217  0.00  0.00    +0.000 A 
ATOM      5  C   UNL     1      45.411   4.347  11.877  0.00  0.00    +0.000 A 
ATOM      6  C   UNL     1      45.815   3.324  12.745  0.00  0.00    +0.000 A 
ATOM      7  N   UNL     1      46.514   3.496  13.889  0.00  0.00    +0.000 NA
BRANCH   5   8
ATOM      8  C   UNL     1      44.637   4.085  10.608  0.00  0.00    +0.000 C 
BRANCH   8   9
ATOM      9  C   UNL     1      45.041   5.068   9.511  0.00  0.00    +0.000 C 
BRANCH   9  10
ATOM     10  N   UNL     1      46.075   4.584   8.608  0.00  0.00    +0.000 NA
ATOM     11  H   UNL     1      46.783   4.075   9.136  0.00  0.00    +0.000 HD
BRANCH  10  12
ATOM     12  C   UNL     1      45.484   3.713   7.570  0.00  0.00    +0.000 C 
ATOM     13  C   UNL     1      44.954   2.351   8.076  0.00  0.00    +0.000 C 
ATOM     14  C   UNL     1      46.069   1.366   8.414  0.00  0.00    +0.000 C 
ATOM     15  N   UNL     1      46.992   1.196   7.293  0.00  0.00    +0.000 NA
ATOM     16  C   UNL     1      47.598   2.479   6.923  0.00  0.00    +0.000 C 
ATOM     17  C   UNL     1      46.538   3.483   6.481  0.00  0.00    +0.000 C 
ATOM     18  H   UNL     1      46.473   0.837   6.490  0.00  0.00    +0.000 HD
ENDBRANCH  10  12
ENDBRANCH   9  10
ENDBRANCH   8   9
ENDBRANCH   5   8
ENDBRANCH   1   2
BRANCH   1  19
ATOM     19  C   UNL     1      47.917   3.938  16.448  0.00  0.00    +0.000 C 
BRANCH  19  20
ATOM     20  N   UNL     1      46.636   3.424  16.994  0.00  0.00    +0.000 NA
ATOM     21  H   UNL     1      46.128   4.245  17.346  0.00  0.00    +0.000 HD
ATOM     22  H   UNL     1      46.830   2.861  17.822  0.00  0.00    +0.000 HD
ENDBRANCH  19  20
BRANCH  19  23
ATOM     23  C   UNL     1      48.752   4.572  17.592  0.00  0.00    +0.000 C 
ATOM     24  O   UNL     1      48.169   5.226  18.460  0.00  0.00    +0.000 OA
BRANCH  23  25
ATOM     25  C   UNL     1      50.188   4.306  17.741  0.00  0.00    +0.000 A 
ATOM     26  C   UNL     1      51.023   5.347  18.133  0.00  0.00    +0.000 A 
ATOM     27  S   UNL     1      52.641   4.871  18.372  0.00  0.00    +0.000 S 
ATOM     28  C   UNL     1      52.282   3.265  17.935  0.00  0.00    +0.000 A 
ATOM     29  N   UNL     1      53.234   2.297  17.983  0.00  0.00    +0.000 NA
ATOM     30  C   UNL     1      52.803   1.117  17.683  0.00  0.00    +0.000 A 
ATOM     31  N   UNL     1      51.522   0.829  17.287  0.00  0.00    +0.000 N 
ATOM     32  C   UNL     1      50.614   1.821  16.994  0.00  0.00    +0.000 A 
ATOM     33  O   UNL     1      49.656   1.617  16.255  0.00  0.00    +0.000 OA
ATOM     34  C   UNL     1      50.964   3.118  17.533  0.00  0.00    +0.000 A 
ATOM     35  H   UNL     1      51.288  -0.096  16.960  0.00  0.00    +0.000 HD
ENDBRANCH  23  25
ENDBRANCH  19  23
ENDBRANCH   1  19
TORSDOF 9
ENDMDL
MODEL 2
REMARK VINA RESULT:    -7.852      2.857      3.894
REMARK INTER + INTRA:         -12.038
REMARK INTER:                 -10.419
REMARK INTRA:                  -1.619
REMARK UNBOUND:                -0.284
REMARK  Name = 
REMARK  9 active torsions:
REMARK  status: ('A' for Active; 'I' for Inactive)
REMARK    1  A    between atoms: N_1  and  C_2
REMARK    2  A    between atoms: C_2  and  C_3
REMARK    3  A    between atoms: C_2  and  C_19
REMARK    4  A    between atoms: C_3  and  C_4
REMARK    5  A    between atoms: C_7  and  C_8
REMARK    6  A    between atoms: C_8  and  C_9
REMARK    7  A    between atoms: C_9  and  N_10
REMARK    8  A    between atoms: N_10  and  C_11
REMARK    9  A    between atoms: C_19  and  C_21
REMARK                            x       y       z     vdW  Elec       q    Type
REMARK                         _______ _______ _______ _____ _____    ______ ____
ROOT
ATOM      1  C   UNL     1      46.023   7.570  13.150  0.00  0.00    +0.000 C 
ENDROOT
BRANCH   1   2
ATOM      2  C   UNL     1      45.690   6.405  12.261  0.00  0.00    +0.000 A 
ATOM      3  C   UNL     1      45.030   5.320  12.853  0.00  0.00    +0.000 A 
ATOM      4  C   UNL     1      44.622   4.252  12.062  0.00  0.00    +0.000 A 
ATOM      5  C   UNL     1      44.889   4.276  10.699  0.00  0.00    +0.000 A 
ATOM      6  C   UNL     1      45.550   5.410  10.206  0.00  0.00    +0.000 A 
ATOM      7  N   UNL     1      45.965   6.461  10.948  0.00  0.00    +0.000 NA
BRANCH   5   8
ATOM      8  C   UNL     1      44.446   3.138   9.814  0.00  0.00    +0.000 C 
BRANCH   8   9
ATOM      9  C   UNL     1      44.576   3.514   8.339  0.00  0.00    +0.000 C 
BRANCH   9  10
ATOM     10  N   UNL     1      45.176   2.488   7.499  0.00  0.00    +0.000 NA
ATOM     11  H   UNL     1      44.984   2.690   6.518  0.00  0.00    +0.000 HD
BRANCH  10  12
ATOM     12  C   UNL     1      46.634   2.419   7.733  0.00  0.00    +0.000 C 
ATOM     13  C   UNL     1      47.493   3.318   6.812  0.00  0.00    +0.000 C 
ATOM     14  C   UNL     1      47.592   2.788   5.386  0.00  0.00    +0.000 C 
ATOM     15  N   UNL     1      48.056   1.402   5.360  0.00  0.00    +0.000 NA
ATOM     16  C   UNL     1      47.145   0.537   6.117  0.00  0.00    +0.000 C 
ATOM     17  C   UNL     1      47.075   0.958   7.582  0.00  0.00    +0.000 C 
ATOM     18  H   UNL     1      48.981   1.356   5.790  0.00  0.00    +0.000 HD
ENDBRANCH  10  12
ENDBRANCH   9  10
ENDBRANCH   8   9
ENDBRANCH   5   8
ENDBRANCH   1   2
BRANCH   1  19
ATOM     19  C   UNL     1      47.483   8.055  13.240  0.00  0.00    +0.000 C 
BRANCH  19  20
ATOM     20  N   UNL     1      48.002   8.580  11.953  0.00  0.00    +0.000 NA
ATOM     21  H   UNL     1      48.115   9.594  12.084  0.00  0.00    +0.000 HD
ATOM     22  H   UNL     1      47.279   8.489  11.240  0.00  0.00    +0.000 HD
ENDBRANCH  19  20
BRANCH  19  23
ATOM     23  C   UNL     1      48.329   6.831  13.681  0.00  0.00    +0.000 C 
ATOM     24  O   UNL     1      48.956   6.204  12.824  0.00  0.00    +0.000 OA
BRANCH  23  25
ATOM     25  C   UNL     1      48.506   6.483  15.096  0.00  0.00    +0.000 A 
ATOM     26  C   UNL     1      49.183   7.373  15.923  0.00  0.00    +0.000 A 
ATOM     27  S   UNL     1      49.219   6.894  17.557  0.00  0.00    +0.000 S 
ATOM     28  C   UNL     1      48.354   5.470  17.207  0.00  0.00    +0.000 A 
ATOM     29  N   UNL     1      47.988   4.613  18.195  0.00  0.00    +0.000 NA
ATOM     30  C   UNL     1      47.284   3.609  17.789  0.00  0.00    +0.000 A 
ATOM     31  N   UNL     1      46.962   3.357  16.480  0.00  0.00    +0.000 N 
ATOM     32  C   UNL     1      47.526   4.069  15.446  0.00  0.00    +0.000 A 
ATOM     33  O   UNL     1      47.596   3.606  14.311  0.00  0.00    +0.000 OA
ATOM     34  C   UNL     1      48.116   5.327  15.849  0.00  0.00    +0.000 A 
ATOM     35  H   UNL     1      46.506   2.493  16.227  0.00  0.00    +0.000 HD
ENDBRANCH  23  25
ENDBRANCH  19  23
ENDBRANCH   1  19
TORSDOF 9
ENDMDL
MODEL 3
REMARK VINA RESULT:    -7.586      2.276      3.021
REMARK INTER + INTRA:         -11.639
REMARK INTER:                 -10.883
REMARK INTRA:                  -0.756
REMARK UNBOUND:                -0.284
REMARK  Name = 
REMARK  9 active torsions:
REMARK  status: ('A' for Active; 'I' for Inactive)
REMARK    1  A    between atoms: N_1  and  C_2
REMARK    2  A    between atoms: C_2  and  C_3
REMARK    3  A    between atoms: C_2  and  C_19
REMARK    4  A    between atoms: C_3  and  C_4
REMARK    5  A    between atoms: C_7  and  C_8
REMARK    6  A    between atoms: C_8  and  C_9
REMARK    7  A    between atoms: C_9  and  N_10
REMARK    8  A    between atoms: N_10  and  C_11
REMARK    9  A    between atoms: C_19  and  C_21
REMARK                            x       y       z     vdW  Elec       q    Type
REMARK                         _______ _______ _______ _____ _____    ______ ____
ROOT
ATOM      1  C   UNL     1      48.663   5.645  16.587  0.00  0.00    +0.000 C 
ENDROOT
BRANCH   1   2
ATOM      2  C   UNL     1      48.097   5.924  15.225  0.00  0.00    +0.000 A 
ATOM      3  C   UNL     1      48.452   7.138  14.623  0.00  0.00    +0.000 A 
ATOM      4  C   UNL     1      48.027   7.412  13.328  0.00  0.00    +0.000 A 
ATOM      5  C   UNL     1      47.244   6.480  12.660  0.00  0.00    +0.000 A 
ATOM      6  C   UNL     1      46.947   5.295  13.349  0.00  0.00    +0.000 A 
ATOM      7  N   UNL     1      47.341   5.002  14.608  0.00  0.00    +0.000 NA
BRANCH   5   8
ATOM      8  C   UNL     1      46.779   6.743  11.249  0.00  0.00    +0.000 C 
BRANCH   8   9
ATOM      9  C   UNL     1      45.298   6.405  11.092  0.00  0.00    +0.000 C 
BRANCH   9  10
ATOM     10  N   UNL     1      45.021   5.253  10.247  0.00  0.00    +0.000 NA
ATOM     11  H   UNL     1      45.709   4.521  10.424  0.00  0.00    +0.000 HD
BRANCH  10  12
ATOM     12  C   UNL     1      43.655   4.746  10.499  0.00  0.00    +0.000 C 
ATOM     13  C   UNL     1      42.885   5.463  11.633  0.00  0.00    +0.000 C 
ATOM     14  C   UNL     1      43.391   5.093  13.023  0.00  0.00    +0.000 C 
ATOM     15  N   UNL     1      43.405   3.645  13.222  0.00  0.00    +0.000 NA
ATOM     16  C   UNL     1      44.261   2.994  12.225  0.00  0.00    +0.000 C 
ATOM     17  C   UNL     1      43.750   3.247  10.809  0.00  0.00    +0.000 C 
ATOM     18  H   UNL     1      42.453   3.289  13.116  0.00  0.00    +0.000 HD
ENDBRANCH  10  12
ENDBRANCH   9  10
ENDBRANCH   8   9
ENDBRANCH   5   8
ENDBRANCH   1   2
BRANCH   1  19
ATOM     19  C   UNL     1      48.311   4.320  17.293  0.00  0.00    +0.000 C 
BRANCH  19  20
ATOM     20  N   UNL     1      46.888   4.241  17.706  0.00  0.00    +0.000 NA
ATOM     21  H   UNL     1      46.849   3.544  18.461  0.00  0.00    +0.000 HD
ATOM     22  H   UNL     1      46.344   3.832  16.946  0.00  0.00    +0.000 HD
ENDBRANCH  19  20
BRANCH  19  23
ATOM     23  C   UNL     1      49.221   4.232  18.546  0.00  0.00    +0.000 C 
ATOM     24  O   UNL     1      48.698   4.260  19.663  0.00  0.00    +0.000 OA
BRANCH  23  25
ATOM     25  C   UNL     1      50.665   3.985  18.439  0.00  0.00    +0.000 A 
ATOM     26  C   UNL     1      51.545   4.951  18.915  0.00  0.00    +0.000 A 
ATOM     27  S   UNL     1      53.181   4.487  18.827  0.00  0.00    +0.000 S 
ATOM     28  C   UNL     1      52.767   2.991  18.128  0.00  0.00    +0.000 A 
ATOM     29  N   UNL     1      53.718   2.062  17.847  0.00  0.00    +0.000 NA
ATOM     30  C   UNL     1      53.251   0.953  17.378  0.00  0.00    +0.000 A 
ATOM     31  N   UNL     1      51.927   0.712  17.112  0.00  0.00    +0.000 N 
ATOM     32  C   UNL     1      50.986   1.714  17.154  0.00  0.00    +0.000 A 
ATOM     33  O   UNL     1      49.933   1.633  16.528  0.00  0.00    +0.000 OA
ATOM     34  C   UNL     1      51.406   2.887  17.890  0.00  0.00    +0.000 A 
ATOM     35  H   UNL     1      51.652  -0.136  16.640  0.00  0.00    +0.000 HD
ENDBRANCH  23  25
ENDBRANCH  19  23
ENDBRANCH   1  19
TORSDOF 9
ENDMDL
MODEL 4
REMARK VINA RESULT:    -7.477      2.400      3.184
REMARK INTER + INTRA:         -11.475
REMARK INTER:                 -10.189
REMARK INTRA:                  -1.286
REMARK UNBOUND:                -0.284
REMARK  Name = 
REMARK  9 active torsions:
REMARK  status: ('A' for Active; 'I' for Inactive)
REMARK    1  A    between atoms: N_1  and  C_2
REMARK    2  A    between atoms: C_2  and  C_3
REMARK    3  A    between atoms: C_2  and  C_19
REMARK    4  A    between atoms: C_3  and  C_4
REMARK    5  A    between atoms: C_7  and  C_8
REMARK    6  A    between atoms: C_8  and  C_9
REMARK    7  A    between atoms: C_9  and  N_10
REMARK    8  A    between atoms: N_10  and  C_11
REMARK    9  A    between atoms: C_19  and  C_21
REMARK                            x       y       z     vdW  Elec       q    Type
REMARK                         _______ _______ _______ _____ _____    ______ ____
ROOT
ATOM      1  C   UNL     1      47.305   5.806  13.979  0.00  0.00    +0.000 C 
ENDROOT
BRANCH   1   2
ATOM      2  C   UNL     1      46.408   5.169  12.957  0.00  0.00    +0.000 A 
ATOM      3  C   UNL     1      46.150   5.902  11.791  0.00  0.00    +0.000 A 
ATOM      4  C   UNL     1      45.396   5.328  10.774  0.00  0.00    +0.000 A 
ATOM      5  C   UNL     1      44.901   4.040  10.940  0.00  0.00    +0.000 A 
ATOM      6  C   UNL     1      45.220   3.392  12.141  0.00  0.00    +0.000 A 
ATOM      7  N   UNL     1      45.945   3.924  13.151  0.00  0.00    +0.000 NA
BRANCH   5   8
ATOM      8  C   UNL     1      44.092   3.386   9.848  0.00  0.00    +0.000 C 
BRANCH   8   9
ATOM      9  C   UNL     1      44.890   2.272   9.172  0.00  0.00    +0.000 C 
BRANCH   9  10
ATOM     10  N   UNL     1      45.208   2.512   7.773  0.00  0.00    +0.000 NA
ATOM     11  H   UNL     1      44.705   3.334   7.440  0.00  0.00    +0.000 HD
BRANCH  10  12
ATOM     12  C   UNL     1      46.665   2.697   7.600  0.00  0.00    +0.000 C 
ATOM     13  C   UNL     1      47.082   3.519   6.358  0.00  0.00    +0.000 C 
ATOM     14  C   UNL     1      46.921   2.748   5.052  0.00  0.00    +0.000 C 
ATOM     15  N   UNL     1      47.616   1.463   5.098  0.00  0.00    +0.000 NA
ATOM     16  C   UNL     1      47.102   0.636   6.194  0.00  0.00    +0.000 C 
ATOM     17  C   UNL     1      47.321   1.313   7.545  0.00  0.00    +0.000 C 
ATOM     18  H   UNL     1      48.611   1.632   5.256  0.00  0.00    +0.000 HD
ENDBRANCH  10  12
ENDBRANCH   9  10
ENDBRANCH   8   9
ENDBRANCH   5   8
ENDBRANCH   1   2
BRANCH   1  19
ATOM     19  C   UNL     1      47.784   4.973  15.185  0.00  0.00    +0.000 C 
BRANCH  19  20
ATOM     20  N   UNL     1      46.670   4.353  15.943  0.00  0.00    +0.000 NA
ATOM     21  H   UNL     1      47.068   3.530  16.413  0.00  0.00    +0.000 HD
ATOM     22  H   UNL     1      45.991   3.972  15.284  0.00  0.00    +0.000 HD
ENDBRANCH  19  20
BRANCH  19  23
ATOM     23  C   UNL     1      48.565   5.944  16.110  0.00  0.00    +0.000 C 
ATOM     24  O   UNL     1      48.526   7.153  15.870  0.00  0.00    +0.000 OA
BRANCH  23  25
ATOM     25  C   UNL     1      49.234   5.479  17.332  0.00  0.00    +0.000 A 
ATOM     26  C   UNL     1      50.557   5.059  17.249  0.00  0.00    +0.000 A 
ATOM     27  S   UNL     1      51.239   4.652  18.757  0.00  0.00    +0.000 S 
ATOM     28  C   UNL     1      49.781   5.000  19.562  0.00  0.00    +0.000 A 
ATOM     29  N   UNL     1      49.691   4.914  20.915  0.00  0.00    +0.000 NA
ATOM     30  C   UNL     1      48.543   5.267  21.392  0.00  0.00    +0.000 A 
ATOM     31  N   UNL     1      47.463   5.642  20.634  0.00  0.00    +0.000 N 
ATOM     32  C   UNL     1      47.453   5.498  19.266  0.00  0.00    +0.000 A 
ATOM     33  O   UNL     1      46.404   5.413  18.637  0.00  0.00    +0.000 OA
ATOM     34  C   UNL     1      48.768   5.341  18.681  0.00  0.00    +0.000 A 
ATOM     35  H   UNL     1      46.567   5.794  21.071  0.00  0.00    +0.000 HD
ENDBRANCH  23  25
ENDBRANCH  19  23
ENDBRANCH   1  19
TORSDOF 9
ENDMDL
MODEL 5
REMARK VINA RESULT:    -7.459      4.289      9.830
REMARK INTER + INTRA:         -11.449
REMARK INTER:                 -10.030
REMARK INTRA:                  -1.419
REMARK UNBOUND:                -0.284
REMARK  Name = 
REMARK  9 active torsions:
REMARK  status: ('A' for Active; 'I' for Inactive)
REMARK    1  A    between atoms: N_1  and  C_2
REMARK    2  A    between atoms: C_2  and  C_3
REMARK    3  A    between atoms: C_2  and  C_19
REMARK    4  A    between atoms: C_3  and  C_4
REMARK    5  A    between atoms: C_7  and  C_8
REMARK    6  A    between atoms: C_8  and  C_9
REMARK    7  A    between atoms: C_9  and  N_10
REMARK    8  A    between atoms: N_10  and  C_11
REMARK    9  A    between atoms: C_19  and  C_21
REMARK                            x       y       z     vdW  Elec       q    Type
REMARK                         _______ _______ _______ _____ _____    ______ ____
ROOT
ATOM      1  C   UNL     1      46.913   6.316  12.226  0.00  0.00    +0.000 C 
ENDROOT
BRANCH   1   2
ATOM      2  C   UNL     1      47.332   5.989  13.631  0.00  0.00    +0.000 A 
ATOM      3  C   UNL     1      46.813   4.815  14.193  0.00  0.00    +0.000 A 
ATOM      4  C   UNL     1      47.233   4.418  15.459  0.00  0.00    +0.000 A 
ATOM      5  C   UNL     1      48.149   5.204  16.146  0.00  0.00    +0.000 A 
ATOM      6  C   UNL     1      48.610   6.355  15.493  0.00  0.00    +0.000 A 
ATOM      7  N   UNL     1      48.218   6.771  14.268  0.00  0.00    +0.000 NA
BRANCH   5   8
ATOM      8  C   UNL     1      48.634   4.791  17.514  0.00  0.00    +0.000 C 
BRANCH   8   9
ATOM      9  C   UNL     1      47.568   5.063  18.574  0.00  0.00    +0.000 C 
BRANCH   9  10
ATOM     10  N   UNL     1      47.184   6.460  18.710  0.00  0.00    +0.000 NA
ATOM     11  H   UNL     1      46.367   6.536  19.315  0.00  0.00    +0.000 HD
BRANCH  10  12
ATOM     12  C   UNL     1      48.306   7.250  19.261  0.00  0.00    +0.000 C 
ATOM     13  C   UNL     1      48.444   7.214  20.801  0.00  0.00    +0.000 C 
ATOM     14  C   UNL     1      47.377   8.037  21.514  0.00  0.00    +0.000 C 
ATOM     15  N   UNL     1      47.338   9.411  21.016  0.00  0.00    +0.000 NA
ATOM     16  C   UNL     1      47.058   9.431  19.576  0.00  0.00    +0.000 C 
ATOM     17  C   UNL     1      48.146   8.701  18.793  0.00  0.00    +0.000 C 
ATOM     18  H   UNL     1      48.248   9.846  21.177  0.00  0.00    +0.000 HD
ENDBRANCH  10  12
ENDBRANCH   9  10
ENDBRANCH   8   9
ENDBRANCH   5   8
ENDBRANCH   1   2
BRANCH   1  19
ATOM     19  C   UNL     1      46.001   7.533  11.975  0.00  0.00    +0.000 C 
BRANCH  19  20
ATOM     20  N   UNL     1      45.797   8.366  13.186  0.00  0.00    +0.000 NA
ATOM     21  H   UNL     1      46.612   8.195  13.789  0.00  0.00    +0.000 HD
ATOM     22  H   UNL     1      45.003   8.001  13.712  0.00  0.00    +0.000 HD
ENDBRANCH  19  20
BRANCH  19  23
ATOM     23  C   UNL     1      44.636   6.972  11.496  0.00  0.00    +0.000 C 
ATOM     24  O   UNL     1      43.786   7.759  11.073  0.00  0.00    +0.000 OA
BRANCH  23  25
ATOM     25  C   UNL     1      44.381   5.528  11.409  0.00  0.00    +0.000 A 
ATOM     26  C   UNL     1      43.785   4.889  12.491  0.00  0.00    +0.000 A 
ATOM     27  S   UNL     1      43.449   3.243  12.211  0.00  0.00    +0.000 S 
ATOM     28  C   UNL     1      44.111   3.326  10.645  0.00  0.00    +0.000 A 
ATOM     29  N   UNL     1      44.089   2.249   9.818  0.00  0.00    +0.000 NA
ATOM     30  C   UNL     1      44.570   2.477   8.641  0.00  0.00    +0.000 A 
ATOM     31  N   UNL     1      45.122   3.667   8.238  0.00  0.00    +0.000 N 
ATOM     32  C   UNL     1      45.379   4.684   9.128  0.00  0.00    +0.000 A 
ATOM     33  O   UNL     1      46.228   5.540   8.898  0.00  0.00    +0.000 OA
ATOM     34  C   UNL     1      44.655   4.572  10.376  0.00  0.00    +0.000 A 
ATOM     35  H   UNL     1      45.580   3.735   7.342  0.00  0.00    +0.000 HD
ENDBRANCH  23  25
ENDBRANCH  19  23
ENDBRANCH   1  19
TORSDOF 9
ENDMDL
MODEL 6
REMARK VINA RESULT:    -7.283      2.180      2.907
REMARK INTER + INTRA:         -11.185
REMARK INTER:                 -10.420
REMARK INTRA:                  -0.766
REMARK UNBOUND:                -0.284
REMARK  Name = 
REMARK  9 active torsions:
REMARK  status: ('A' for Active; 'I' for Inactive)
REMARK    1  A    between atoms: N_1  and  C_2
REMARK    2  A    between atoms: C_2  and  C_3
REMARK    3  A    between atoms: C_2  and  C_19
REMARK    4  A    between atoms: C_3  and  C_4
REMARK    5  A    between atoms: C_7  and  C_8
REMARK    6  A    between atoms: C_8  and  C_9
REMARK    7  A    between atoms: C_9  and  N_10
REMARK    8  A    between atoms: N_10  and  C_11
REMARK    9  A    between atoms: C_19  and  C_21
REMARK                            x       y       z     vdW  Elec       q    Type
REMARK                         _______ _______ _______ _____ _____    ______ ____
ROOT
ATOM      1  C   UNL     1      47.725   4.785  15.809  0.00  0.00    +0.000 C 
ENDROOT
BRANCH   1   2
ATOM      2  C   UNL     1      46.955   4.897  14.525  0.00  0.00    +0.000 A 
ATOM      3  C   UNL     1      47.316   5.932  13.652  0.00  0.00    +0.000 A 
ATOM      4  C   UNL     1      46.695   6.032  12.412  0.00  0.00    +0.000 A 
ATOM      5  C   UNL     1      45.716   5.109  12.068  0.00  0.00    +0.000 A 
ATOM      6  C   UNL     1      45.431   4.110  13.010  0.00  0.00    +0.000 A 
ATOM      7  N   UNL     1      46.012   3.989  14.224  0.00  0.00    +0.000 NA
BRANCH   5   8
ATOM      8  C   UNL     1      45.035   5.183  10.724  0.00  0.00    +0.000 C 
BRANCH   8   9
ATOM      9  C   UNL     1      44.350   3.860  10.387  0.00  0.00    +0.000 C 
BRANCH   9  10
ATOM     10  N   UNL     1      45.252   2.786  10.002  0.00  0.00    +0.000 NA
ATOM     11  H   UNL     1      45.248   2.058  10.716  0.00  0.00    +0.000 HD
BRANCH  10  12
ATOM     12  C   UNL     1      44.853   2.223   8.694  0.00  0.00    +0.000 C 
ATOM     13  C   UNL     1      45.705   1.029   8.203  0.00  0.00    +0.000 C 
ATOM     14  C   UNL     1      47.090   1.444   7.718  0.00  0.00    +0.000 C 
ATOM     15  N   UNL     1      47.010   2.494   6.704  0.00  0.00    +0.000 NA
ATOM     16  C   UNL     1      46.328   3.677   7.237  0.00  0.00    +0.000 C 
ATOM     17  C   UNL     1      44.897   3.348   7.654  0.00  0.00    +0.000 C 
ATOM     18  H   UNL     1      46.478   2.142   5.907  0.00  0.00    +0.000 HD
ENDBRANCH  10  12
ENDBRANCH   9  10
ENDBRANCH   8   9
ENDBRANCH   5   8
ENDBRANCH   1   2
BRANCH   1  19
ATOM     19  C   UNL     1      47.807   3.421  16.522  0.00  0.00    +0.000 C 
BRANCH  19  20
ATOM     20  N   UNL     1      46.672   3.179  17.446  0.00  0.00    +0.000 NA
ATOM     21  H   UNL     1      46.065   4.006  17.373  0.00  0.00    +0.000 HD
ATOM     22  H   UNL     1      47.015   3.193  18.407  0.00  0.00    +0.000 HD
ENDBRANCH  19  20
BRANCH  19  23
ATOM     23  C   UNL     1      49.137   3.420  17.322  0.00  0.00    +0.000 C 
ATOM     24  O   UNL     1      50.034   2.645  16.982  0.00  0.00    +0.000 OA
BRANCH  23  25
ATOM     25  C   UNL     1      49.403   4.402  18.380  0.00  0.00    +0.000 A 
ATOM     26  C   UNL     1      48.752   4.261  19.601  0.00  0.00    +0.000 A 
ATOM     27  S   UNL     1      49.237   5.402  20.770  0.00  0.00    +0.000 S 
ATOM     28  C   UNL     1      50.314   6.135  19.674  0.00  0.00    +0.000 A 
ATOM     29  N   UNL     1      51.112   7.165  20.060  0.00  0.00    +0.000 NA
ATOM     30  C   UNL     1      51.920   7.579  19.141  0.00  0.00    +0.000 A 
ATOM     31  N   UNL     1      51.963   7.094  17.859  0.00  0.00    +0.000 N 
ATOM     32  C   UNL     1      51.005   6.231  17.379  0.00  0.00    +0.000 A 
ATOM     33  O   UNL     1      50.775   6.130  16.178  0.00  0.00    +0.000 OA
ATOM     34  C   UNL     1      50.240   5.566  18.412  0.00  0.00    +0.000 A 
ATOM     35  H   UNL     1      52.542   7.544  17.166  0.00  0.00    +0.000 HD
ENDBRANCH  23  25
ENDBRANCH  19  23
ENDBRANCH   1  19
TORSDOF 9
ENDMDL
MODEL 7
REMARK VINA RESULT:    -7.174      3.210      4.250
REMARK INTER + INTRA:         -11.023
REMARK INTER:                  -9.500
REMARK INTRA:                  -1.522
REMARK UNBOUND:                -0.284
REMARK  Name = 
REMARK  9 active torsions:
REMARK  status: ('A' for Active; 'I' for Inactive)
REMARK    1  A    between atoms: N_1  and  C_2
REMARK    2  A    between atoms: C_2  and  C_3
REMARK    3  A    between atoms: C_2  and  C_19
REMARK    4  A    between atoms: C_3  and  C_4
REMARK    5  A    between atoms: C_7  and  C_8
REMARK    6  A    between atoms: C_8  and  C_9
REMARK    7  A    between atoms: C_9  and  N_10
REMARK    8  A    between atoms: N_10  and  C_11
REMARK    9  A    between atoms: C_19  and  C_21
REMARK                            x       y       z     vdW  Elec       q    Type
REMARK                         _______ _______ _______ _____ _____    ______ ____
ROOT
ATOM      1  C   UNL     1      49.882   7.061  16.782  0.00  0.00    +0.000 C 
ENDROOT
BRANCH   1   2
ATOM      2  C   UNL     1      49.014   7.238  15.570  0.00  0.00    +0.000 A 
ATOM      3  C   UNL     1      48.419   8.494  15.390  0.00  0.00    +0.000 A 
ATOM      4  C   UNL     1      47.674   8.742  14.242  0.00  0.00    +0.000 A 
ATOM      5  C   UNL     1      47.523   7.731  13.301  0.00  0.00    +0.000 A 
ATOM      6  C   UNL     1      48.162   6.514  13.573  0.00  0.00    +0.000 A 
ATOM      7  N   UNL     1      48.888   6.240  14.681  0.00  0.00    +0.000 NA
BRANCH   5   8
ATOM      8  C   UNL     1      46.733   7.975  12.039  0.00  0.00    +0.000 C 
BRANCH   8   9
ATOM      9  C   UNL     1      45.245   7.721  12.271  0.00  0.00    +0.000 C 
BRANCH   9  10
ATOM     10  N   UNL     1      44.771   6.420  11.825  0.00  0.00    +0.000 NA
ATOM     11  H   UNL     1      45.511   5.940  11.312  0.00  0.00    +0.000 HD
BRANCH  10  12
ATOM     12  C   UNL     1      44.338   5.606  12.981  0.00  0.00    +0.000 C 
ATOM     13  C   UNL     1      45.383   4.590  13.500  0.00  0.00    +0.000 C 
ATOM     14  C   UNL     1      45.548   3.383  12.582  0.00  0.00    +0.000 C 
ATOM     15  N   UNL     1      44.265   2.737  12.310  0.00  0.00    +0.000 NA
ATOM     16  C   UNL     1      43.334   3.679  11.681  0.00  0.00    +0.000 C 
ATOM     17  C   UNL     1      43.051   4.869  12.595  0.00  0.00    +0.000 C 
ATOM     18  H   UNL     1      43.861   2.421  13.193  0.00  0.00    +0.000 HD
ENDBRANCH  10  12
ENDBRANCH   9  10
ENDBRANCH   8   9
ENDBRANCH   5   8
ENDBRANCH   1   2
BRANCH   1  19
ATOM     19  C   UNL     1      49.306   7.386  18.176  0.00  0.00    +0.000 C 
BRANCH  19  20
ATOM     20  N   UNL     1      50.354   7.547  19.214  0.00  0.00    +0.000 NA
ATOM     21  H   UNL     1      51.237   7.686  18.707  0.00  0.00    +0.000 HD
ATOM     22  H   UNL     1      50.473   6.662  19.707  0.00  0.00    +0.000 HD
ENDBRANCH  19  20
BRANCH  19  23
ATOM     23  C   UNL     1      48.376   6.204  18.555  0.00  0.00    +0.000 C 
ATOM     24  O   UNL     1      47.397   6.425  19.272  0.00  0.00    +0.000 OA
BRANCH  23  25
ATOM     25  C   UNL     1      48.553   4.864  17.980  0.00  0.00    +0.000 A 
ATOM     26  C   UNL     1      47.497   4.295  17.276  0.00  0.00    +0.000 A 
ATOM     27  S   UNL     1      47.877   2.791  16.572  0.00  0.00    +0.000 S 
ATOM     28  C   UNL     1      49.456   2.842  17.206  0.00  0.00    +0.000 A 
ATOM     29  N   UNL     1      50.354   1.862  16.926  0.00  0.00    +0.000 NA
ATOM     30  C   UNL     1      51.529   2.064  17.424  0.00  0.00    +0.000 A 
ATOM     31  N   UNL     1      51.868   3.127  18.222  0.00  0.00    +0.000 N 
ATOM     32  C   UNL     1      50.920   3.991  18.718  0.00  0.00    +0.000 A 
ATOM     33  O   UNL     1      51.121   4.651  19.733  0.00  0.00    +0.000 OA
ATOM     34  C   UNL     1      49.658   3.951  18.011  0.00  0.00    +0.000 A 
ATOM     35  H   UNL     1      52.773   3.158  18.666  0.00  0.00    +0.000 HD
ENDBRANCH  23  25
ENDBRANCH  19  23
ENDBRANCH   1  19
TORSDOF 9
ENDMDL
MODEL 8
REMARK VINA RESULT:    -7.080      3.198      4.312
REMARK INTER + INTRA:         -10.882
REMARK INTER:                  -9.584
REMARK INTRA:                  -1.298
REMARK UNBOUND:                -0.284
REMARK  Name = 
REMARK  9 active torsions:
REMARK  status: ('A' for Active; 'I' for Inactive)
REMARK    1  A    between atoms: N_1  and  C_2
REMARK    2  A    between atoms: C_2  and  C_3
REMARK    3  A    between atoms: C_2  and  C_19
REMARK    4  A    between atoms: C_3  and  C_4
REMARK    5  A    between atoms: C_7  and  C_8
REMARK    6  A    between atoms: C_8  and  C_9
REMARK    7  A    between atoms: C_9  and  N_10
REMARK    8  A    between atoms: N_10  and  C_11
REMARK    9  A    between atoms: C_19  and  C_21
REMARK                            x       y       z     vdW  Elec       q    Type
REMARK                         _______ _______ _______ _____ _____    ______ ____
ROOT
ATOM      1  C   UNL     1      48.518   6.949  13.391  0.00  0.00    +0.000 C 
ENDROOT
BRANCH   1   2
ATOM      2  C   UNL     1      47.262   6.282  12.909  0.00  0.00    +0.000 A 
ATOM      3  C   UNL     1      46.730   5.267  13.715  0.00  0.00    +0.000 A 
ATOM      4  C   UNL     1      45.522   4.674  13.362  0.00  0.00    +0.000 A 
ATOM      5  C   UNL     1      44.874   5.092  12.207  0.00  0.00    +0.000 A 
ATOM      6  C   UNL     1      45.487   6.117  11.474  0.00  0.00    +0.000 A 
ATOM      7  N   UNL     1      46.661   6.709  11.787  0.00  0.00    +0.000 NA
BRANCH   5   8
ATOM      8  C   UNL     1      43.555   4.477  11.807  0.00  0.00    +0.000 C 
BRANCH   8   9
ATOM      9  C   UNL     1      43.731   3.005  11.438  0.00  0.00    +0.000 C 
BRANCH   9  10
ATOM     10  N   UNL     1      44.862   2.725  10.566  0.00  0.00    +0.000 NA
ATOM     11  H   UNL     1      45.381   1.922  10.921  0.00  0.00    +0.000 HD
BRANCH  10  12
ATOM     12  C   UNL     1      44.397   2.467   9.187  0.00  0.00    +0.000 C 
ATOM     13  C   UNL     1      45.083   1.279   8.472  0.00  0.00    +0.000 C 
ATOM     14  C   UNL     1      46.513   1.587   8.042  0.00  0.00    +0.000 C 
ATOM     15  N   UNL     1      46.580   2.805   7.236  0.00  0.00    +0.000 NA
ATOM     16  C   UNL     1      46.061   3.952   7.987  0.00  0.00    +0.000 C 
ATOM     17  C   UNL     1      44.597   3.746   8.366  0.00  0.00    +0.000 C 
ATOM     18  H   UNL     1      46.009   2.677   6.399  0.00  0.00    +0.000 HD
ENDBRANCH  10  12
ENDBRANCH   9  10
ENDBRANCH   8   9
ENDBRANCH   5   8
ENDBRANCH   1   2
BRANCH   1  19
ATOM     19  C   UNL     1      48.514   7.673  14.752  0.00  0.00    +0.000 C 
BRANCH  19  20
ATOM     20  N   UNL     1      49.040   9.058  14.675  0.00  0.00    +0.000 NA
ATOM     21  H   UNL     1      48.681   9.450  13.795  0.00  0.00    +0.000 HD
ATOM     22  H   UNL     1      50.052   9.024  14.550  0.00  0.00    +0.000 HD
ENDBRANCH  19  20
BRANCH  19  23
ATOM     23  C   UNL     1      49.405   6.831  15.703  0.00  0.00    +0.000 C 
ATOM     24  O   UNL     1      50.619   6.783  15.492  0.00  0.00    +0.000 OA
BRANCH  23  25
ATOM     25  C   UNL     1      48.864   6.203  16.915  0.00  0.00    +0.000 A 
ATOM     26  C   UNL     1      48.793   4.815  16.973  0.00  0.00    +0.000 A 
ATOM     27  S   UNL     1      48.251   4.222  18.476  0.00  0.00    +0.000 S 
ATOM     28  C   UNL     1      48.071   5.800  19.086  0.00  0.00    +0.000 A 
ATOM     29  N   UNL     1      47.686   6.014  20.371  0.00  0.00    +0.000 NA
ATOM     30  C   UNL     1      47.651   7.259  20.713  0.00  0.00    +0.000 A 
ATOM     31  N   UNL     1      47.912   8.309  19.870  0.00  0.00    +0.000 N 
ATOM     32  C   UNL     1      48.060   8.129  18.514  0.00  0.00    +0.000 A 
ATOM     33  O   UNL     1      47.865   9.044  17.719  0.00  0.00    +0.000 OA
ATOM     34  C   UNL     1      48.342   6.763  18.127  0.00  0.00    +0.000 A 
ATOM     35  H   UNL     1      47.755   9.257  20.177  0.00  0.00    +0.000 HD
ENDBRANCH  23  25
ENDBRANCH  19  23
ENDBRANCH   1  19
TORSDOF 9
ENDMDL
MODEL 9
REMARK VINA RESULT:    -7.022      3.902      9.656
REMARK INTER + INTRA:         -10.794
REMARK INTER:                  -8.850
REMARK INTRA:                  -1.944
REMARK UNBOUND:                -0.284
REMARK  Name = 
REMARK  9 active torsions:
REMARK  status: ('A' for Active; 'I' for Inactive)
REMARK    1  A    between atoms: N_1  and  C_2
REMARK    2  A    between atoms: C_2  and  C_3
REMARK    3  A    between atoms: C_2  and  C_19
REMARK    4  A    between atoms: C_3  and  C_4
REMARK    5  A    between atoms: C_7  and  C_8
REMARK    6  A    between atoms: C_8  and  C_9
REMARK    7  A    between atoms: C_9  and  N_10
REMARK    8  A    between atoms: N_10  and  C_11
REMARK    9  A    between atoms: C_19  and  C_21
REMARK                            x       y       z     vdW  Elec       q    Type
REMARK                         _______ _______ _______ _____ _____    ______ ____
ROOT
ATOM      1  C   UNL     1      49.417   7.264  15.006  0.00  0.00    +0.000 C 
ENDROOT
BRANCH   1   2
ATOM      2  C   UNL     1      50.234   6.976  16.233  0.00  0.00    +0.000 A 
ATOM      3  C   UNL     1      50.264   7.964  17.225  0.00  0.00    +0.000 A 
ATOM      4  C   UNL     1      50.934   7.717  18.419  0.00  0.00    +0.000 A 
ATOM      5  C   UNL     1      51.575   6.497  18.596  0.00  0.00    +0.000 A 
ATOM      6  C   UNL     1      51.482   5.576  17.544  0.00  0.00    +0.000 A 
ATOM      7  N   UNL     1      50.843   5.787  16.372  0.00  0.00    +0.000 NA
BRANCH   5   8
ATOM      8  C   UNL     1      52.298   6.195  19.886  0.00  0.00    +0.000 C 
BRANCH   8   9
ATOM      9  C   UNL     1      51.519   5.183  20.723  0.00  0.00    +0.000 C 
BRANCH   9  10
ATOM     10  N   UNL     1      50.301   5.700  21.329  0.00  0.00    +0.000 NA
ATOM     11  H   UNL     1      50.023   6.564  20.863  0.00  0.00    +0.000 HD
BRANCH  10  12
ATOM     12  C   UNL     1      49.217   4.698  21.240  0.00  0.00    +0.000 C 
ATOM     13  C   UNL     1      48.827   4.274  19.805  0.00  0.00    +0.000 C 
ATOM     14  C   UNL     1      48.038   5.346  19.060  0.00  0.00    +0.000 C 
ATOM     15  N   UNL     1      46.869   5.778  19.823  0.00  0.00    +0.000 NA
ATOM     16  C   UNL     1      47.272   6.316  21.127  0.00  0.00    +0.000 C 
ATOM     17  C   UNL     1      47.986   5.258  21.963  0.00  0.00    +0.000 C 
ATOM     18  H   UNL     1      46.260   4.973  19.978  0.00  0.00    +0.000 HD
ENDBRANCH  10  12
ENDBRANCH   9  10
ENDBRANCH   8   9
ENDBRANCH   5   8
ENDBRANCH   1   2
BRANCH   1  19
ATOM     19  C   UNL     1      48.060   6.555  14.820  0.00  0.00    +0.000 C 
BRANCH  19  20
ATOM     20  N   UNL     1      47.983   5.254  15.530  0.00  0.00    +0.000 NA
ATOM     21  H   UNL     1      47.688   4.564  14.827  0.00  0.00    +0.000 HD
ATOM     22  H   UNL     1      47.215   5.286  16.201  0.00  0.00    +0.000 HD
ENDBRANCH  19  20
BRANCH  19  23
ATOM     23  C   UNL     1      47.887   6.326  13.296  0.00  0.00    +0.000 C 
ATOM     24  O   UNL     1      48.892   6.142  12.605  0.00  0.00    +0.000 OA
BRANCH  23  25
ATOM     25  C   UNL     1      46.561   6.193  12.679  0.00  0.00    +0.000 A 
ATOM     26  C   UNL     1      45.898   7.344  12.267  0.00  0.00    +0.000 A 
ATOM     27  S   UNL     1      44.423   7.034  11.471  0.00  0.00    +0.000 S 
ATOM     28  C   UNL     1      44.613   5.355  11.675  0.00  0.00    +0.000 A 
ATOM     29  N   UNL     1      43.709   4.481  11.160  0.00  0.00    +0.000 NA
ATOM     30  C   UNL     1      44.015   3.238  11.339  0.00  0.00    +0.000 A 
ATOM     31  N   UNL     1      45.111   2.794  12.034  0.00  0.00    +0.000 N 
ATOM     32  C   UNL     1      45.898   3.650  12.769  0.00  0.00    +0.000 A 
ATOM     33  O   UNL     1      46.583   3.249  13.705  0.00  0.00    +0.000 OA
ATOM     34  C   UNL     1      45.745   5.045  12.413  0.00  0.00    +0.000 A 
ATOM     35  H   UNL     1      45.223   1.811  12.230  0.00  0.00    +0.000 HD
ENDBRANCH  23  25
ENDBRANCH  19  23
ENDBRANCH   1  19
TORSDOF 9
ENDMDL
