MODEL 1
REMARK VINA RESULT:    -7.563      0.000      0.000
REMARK INTER + INTRA:         -10.561
REMARK INTER:                  -9.773
REMARK INTRA:                  -0.787
REMARK UNBOUND:                -0.787
REMARK  Name = 
REMARK  7 active torsions:
REMARK  status: ('A' for Active; 'I' for Inactive)
REMARK    1  A    between atoms: C_1  and  C_2
REMARK    2  A    between atoms: C_4  and  C_5
REMARK    3  A    between atoms: C_5  and  C_6
REMARK    4  A    between atoms: C_5  and  C_7
REMARK    5  A    between atoms: C_7  and  O_8
REMARK    6  A    between atoms: O_8  and  C_9
REMARK    7  A    between atoms: C_13  and  C_14
REMARK                            x       y       z     vdW  Elec       q    Type
REMARK                         _______ _______ _______ _____ _____    ______ ____
ROOT
ATOM      1  O   UNL     1      44.563   4.789  12.092  0.00  0.00    +0.000 OA
ENDROOT
BRANCH   1   2
ATOM      2  C   UNL     1      45.683   5.260  12.726  0.00  0.00    +0.000 A 
ATOM      3  C   UNL     1      46.428   6.218  12.047  0.00  0.00    +0.000 A 
ATOM      4  C   UNL     1      47.590   6.736  12.621  0.00  0.00    +0.000 A 
ATOM      5  C   UNL     1      48.030   6.267  13.864  0.00  0.00    +0.000 A 
ATOM      6  C   UNL     1      47.327   5.260  14.548  0.00  0.00    +0.000 A 
ATOM      7  C   UNL     1      46.140   4.785  13.957  0.00  0.00    +0.000 A 
BRANCH   6   8
ATOM      8  C   UNL     1      47.798   4.658  15.811  0.00  0.00    +0.000 A 
ATOM      9  C   UNL     1      48.350   5.392  16.858  0.00  0.00    +0.000 A 
ATOM     10  N   UNL     1      48.877   4.826  17.977  0.00  0.00    +0.000 NA
ATOM     11  C   UNL     1      48.839   3.478  18.010  0.00  0.00    +0.000 A 
ATOM     12  C   UNL     1      48.287   2.729  16.988  0.00  0.00    +0.000 A 
ATOM     13  N   UNL     1      47.760   3.297  15.880  0.00  0.00    +0.000 NA
ENDBRANCH   6   8
ENDBRANCH   1   2
BRANCH   1  14
ATOM     14  C   UNL     1      44.564   4.980  10.668  0.00  0.00    +0.000 C 
BRANCH  14  15
ATOM     15  C   UNL     1      44.119   3.687   9.966  0.00  0.00    +0.000 C 
ATOM     16  C   UNL     1      43.885   2.547  10.957  0.00  0.00    +0.000 C 
BRANCH  15  20
ATOM     17  C   UNL     1      46.666   0.120   7.796  0.00  0.00    +0.000 C 
ATOM     18  C   UNL     1      46.349   1.587   7.852  0.00  0.00    +0.000 A 
ATOM     19  N   UNL     1      45.437   1.965   8.790  0.00  0.00    +0.000 NA
ATOM     20  C   UNL     1      45.123   3.282   8.901  0.00  0.00    +0.000 A 
ATOM     21  C   UNL     1      45.683   4.244   8.067  0.00  0.00    +0.000 A 
ATOM     22  C   UNL     1      46.609   3.846   7.105  0.00  0.00    +0.000 A 
ATOM     23  C   UNL     1      46.954   2.503   6.993  0.00  0.00    +0.000 A 
ATOM     24 CL   UNL     1      48.112   2.040   5.804  0.00  0.00    +0.000 Cl
ENDBRANCH  15  20
ENDBRANCH  14  15
ENDBRANCH   1  14
TORSDOF 5
ENDMDL
MODEL 2
REMARK VINA RESULT:    -7.199      3.039      7.566
REMARK INTER + INTRA:         -10.090
REMARK INTER:                  -9.284
REMARK INTRA:                  -0.807
REMARK UNBOUND:                -0.787
REMARK  Name = 
REMARK  7 active torsions:
REMARK  status: ('A' for Active; 'I' for Inactive)
REMARK    1  A    between atoms: C_1  and  C_2
REMARK    2  A    between atoms: C_4  and  C_5
REMARK    3  A    between atoms: C_5  and  C_6
REMARK    4  A    between atoms: C_5  and  C_7
REMARK    5  A    between atoms: C_7  and  O_8
REMARK    6  A    between atoms: O_8  and  C_9
REMARK    7  A    between atoms: C_13  and  C_14
REMARK                            x       y       z     vdW  Elec       q    Type
REMARK                         _______ _______ _______ _____ _____    ______ ____
ROOT
ATOM      1  O   UNL     1      44.654   6.485  11.624  0.00  0.00    +0.000 OA
ENDROOT
BRANCH   1   2
ATOM      2  C   UNL     1      44.442   5.225  11.130  0.00  0.00    +0.000 A 
ATOM      3  C   UNL     1      43.599   4.399  11.866  0.00  0.00    +0.000 A 
ATOM      4  C   UNL     1      43.345   3.096  11.434  0.00  0.00    +0.000 A 
ATOM      5  C   UNL     1      43.967   2.604  10.280  0.00  0.00    +0.000 A 
ATOM      6  C   UNL     1      44.865   3.398   9.547  0.00  0.00    +0.000 A 
ATOM      7  C   UNL     1      45.071   4.718   9.991  0.00  0.00    +0.000 A 
BRANCH   6   8
ATOM      8  C   UNL     1      45.623   2.899   8.383  0.00  0.00    +0.000 A 
ATOM      9  C   UNL     1      46.175   1.622   8.310  0.00  0.00    +0.000 A 
ATOM     10  N   UNL     1      46.959   1.199   7.282  0.00  0.00    +0.000 NA
ATOM     11  C   UNL     1      47.184   2.115   6.318  0.00  0.00    +0.000 A 
ATOM     12  C   UNL     1      46.639   3.384   6.364  0.00  0.00    +0.000 A 
ATOM     13  N   UNL     1      45.855   3.798   7.385  0.00  0.00    +0.000 NA
ENDBRANCH   6   8
ENDBRANCH   1   2
BRANCH   1  14
ATOM     14  C   UNL     1      45.311   6.517  12.902  0.00  0.00    +0.000 C 
BRANCH  14  15
ATOM     15  C   UNL     1      46.591   5.666  12.853  0.00  0.00    +0.000 C 
ATOM     16  C   UNL     1      46.651   4.651  13.993  0.00  0.00    +0.000 C 
BRANCH  15  20
ATOM     17  C   UNL     1      50.524   7.320  15.244  0.00  0.00    +0.000 C 
ATOM     18  C   UNL     1      49.710   7.355  13.983  0.00  0.00    +0.000 A 
ATOM     19  N   UNL     1      48.610   6.551  13.959  0.00  0.00    +0.000 NA
ATOM     20  C   UNL     1      47.824   6.553  12.852  0.00  0.00    +0.000 A 
ATOM     21  C   UNL     1      48.128   7.328  11.736  0.00  0.00    +0.000 A 
ATOM     22  C   UNL     1      49.260   8.140  11.766  0.00  0.00    +0.000 A 
ATOM     23  C   UNL     1      50.063   8.161  12.902  0.00  0.00    +0.000 A 
ATOM     24 CL   UNL     1      51.449   9.185  12.918  0.00  0.00    +0.000 Cl
ENDBRANCH  15  20
ENDBRANCH  14  15
ENDBRANCH   1  14
TORSDOF 5
ENDMDL
MODEL 3
REMARK VINA RESULT:    -7.172      2.813      7.673
REMARK INTER + INTRA:         -10.056
REMARK INTER:                  -9.043
REMARK INTRA:                  -1.013
REMARK UNBOUND:                -0.787
REMARK  Name = 
REMARK  7 active torsions:
REMARK  status: ('A' for Active; 'I' for Inactive)
REMARK    1  A    between atoms: C_1  and  C_2
REMARK    2  A    between atoms: C_4  and  C_5
REMARK    3  A    between atoms: C_5  and  C_6
REMARK    4  A    between atoms: C_5  and  C_7
REMARK    5  A    between atoms: C_7  and  O_8
REMARK    6  A    between atoms: O_8  and  C_9
REMARK    7  A    between atoms: C_13  and  C_14
REMARK                            x       y       z     vdW  Elec       q    Type
REMARK                         _______ _______ _______ _____ _____    ______ ____
ROOT
ATOM      1  O   UNL     1      46.137   7.726  11.605  0.00  0.00    +0.000 OA
ENDROOT
BRANCH   1   2
ATOM      2  C   UNL     1      45.352   6.682  11.190  0.00  0.00    +0.000 A 
ATOM      3  C   UNL     1      44.114   6.547  11.808  0.00  0.00    +0.000 A 
ATOM      4  C   UNL     1      43.264   5.499  11.449  0.00  0.00    +0.000 A 
ATOM      5  C   UNL     1      43.670   4.560  10.493  0.00  0.00    +0.000 A 
ATOM      6  C   UNL     1      44.937   4.641   9.892  0.00  0.00    +0.000 A 
ATOM      7  C   UNL     1      45.755   5.729  10.251  0.00  0.00    +0.000 A 
BRANCH   6   8
ATOM      8  C   UNL     1      45.455   3.625   8.955  0.00  0.00    +0.000 A 
ATOM      9  C   UNL     1      45.419   2.254   9.204  0.00  0.00    +0.000 A 
ATOM     10  N   UNL     1      45.988   1.327   8.387  0.00  0.00    +0.000 NA
ATOM     11  C   UNL     1      46.612   1.825   7.300  0.00  0.00    +0.000 A 
ATOM     12  C   UNL     1      46.652   3.179   7.028  0.00  0.00    +0.000 A 
ATOM     13  N   UNL     1      46.080   4.097   7.839  0.00  0.00    +0.000 NA
ENDBRANCH   6   8
ENDBRANCH   1   2
BRANCH   1  14
ATOM     14  C   UNL     1      46.308   7.807  13.030  0.00  0.00    +0.000 C 
BRANCH  14  15
ATOM     15  C   UNL     1      47.744   7.411  13.408  0.00  0.00    +0.000 C 
ATOM     16  C   UNL     1      48.600   7.111  12.179  0.00  0.00    +0.000 C 
BRANCH  15  20
ATOM     17  C   UNL     1      49.415   5.418  17.550  0.00  0.00    +0.000 C 
ATOM     18  C   UNL     1      48.531   5.265  16.346  0.00  0.00    +0.000 A 
ATOM     19  N   UNL     1      48.508   6.320  15.484  0.00  0.00    +0.000 NA
ATOM     20  C   UNL     1      47.741   6.234  14.367  0.00  0.00    +0.000 A 
ATOM     21  C   UNL     1      46.959   5.114  14.097  0.00  0.00    +0.000 A 
ATOM     22  C   UNL     1      46.982   4.044  14.989  0.00  0.00    +0.000 A 
ATOM     23  C   UNL     1      47.779   4.112  16.128  0.00  0.00    +0.000 A 
ATOM     24 CL   UNL     1      47.800   2.769  17.207  0.00  0.00    +0.000 Cl
ENDBRANCH  15  20
ENDBRANCH  14  15
ENDBRANCH   1  14
TORSDOF 5
ENDMDL
MODEL 4
REMARK VINA RESULT:    -6.930      3.815      5.365
REMARK INTER + INTRA:          -9.743
REMARK INTER:                  -8.959
REMARK INTRA:                  -0.784
REMARK UNBOUND:                -0.787
REMARK  Name = 
REMARK  7 active torsions:
REMARK  status: ('A' for Active; 'I' for Inactive)
REMARK    1  A    between atoms: C_1  and  C_2
REMARK    2  A    between atoms: C_4  and  C_5
REMARK    3  A    between atoms: C_5  and  C_6
REMARK    4  A    between atoms: C_5  and  C_7
REMARK    5  A    between atoms: C_7  and  O_8
REMARK    6  A    between atoms: O_8  and  C_9
REMARK    7  A    between atoms: C_13  and  C_14
REMARK                            x       y       z     vdW  Elec       q    Type
REMARK                         _______ _______ _______ _____ _____    ______ ____
ROOT
ATOM      1  O   UNL     1      43.831   5.201  11.916  0.00  0.00    +0.000 OA
ENDROOT
BRANCH   1   2
ATOM      2  C   UNL     1      44.657   6.294  11.952  0.00  0.00    +0.000 A 
ATOM      3  C   UNL     1      45.961   6.077  12.385  0.00  0.00    +0.000 A 
ATOM      4  C   UNL     1      46.859   7.143  12.462  0.00  0.00    +0.000 A 
ATOM      5  C   UNL     1      46.440   8.439  12.140  0.00  0.00    +0.000 A 
ATOM      6  C   UNL     1      45.114   8.697  11.752  0.00  0.00    +0.000 A 
ATOM      7  C   UNL     1      44.245   7.594  11.652  0.00  0.00    +0.000 A 
BRANCH   6   8
ATOM      8  C   UNL     1      44.593  10.055  11.499  0.00  0.00    +0.000 A 
ATOM      9  C   UNL     1      45.276  11.220  11.839  0.00  0.00    +0.000 A 
ATOM     10  N   UNL     1      44.752  12.467  11.699  0.00  0.00    +0.000 NA
ATOM     11  C   UNL     1      43.496  12.509  11.208  0.00  0.00    +0.000 A 
ATOM     12  C   UNL     1      42.803  11.367  10.855  0.00  0.00    +0.000 A 
ATOM     13  N   UNL     1      43.331  10.130  10.990  0.00  0.00    +0.000 NA
ENDBRANCH   6   8
ENDBRANCH   1   2
BRANCH   1  14
ATOM     14  C   UNL     1      43.602   4.676  10.599  0.00  0.00    +0.000 C 
BRANCH  14  15
ATOM     15  C   UNL     1      44.107   3.226  10.519  0.00  0.00    +0.000 C 
ATOM     16  C   UNL     1      44.784   2.781  11.814  0.00  0.00    +0.000 C 
BRANCH  15  20
ATOM     17  C   UNL     1      46.688   0.195   7.678  0.00  0.00    +0.000 C 
ATOM     18  C   UNL     1      46.279   1.611   7.963  0.00  0.00    +0.000 A 
ATOM     19  N   UNL     1      45.430   1.787   9.014  0.00  0.00    +0.000 NA
ATOM     20  C   UNL     1      45.038   3.048   9.332  0.00  0.00    +0.000 A 
ATOM     21  C   UNL     1      45.457   4.155   8.599  0.00  0.00    +0.000 A 
ATOM     22  C   UNL     1      46.319   3.964   7.522  0.00  0.00    +0.000 A 
ATOM     23  C   UNL     1      46.742   2.679   7.196  0.00  0.00    +0.000 A 
ATOM     24 CL   UNL     1      47.820   2.472   5.867  0.00  0.00    +0.000 Cl
ENDBRANCH  15  20
ENDBRANCH  14  15
ENDBRANCH   1  14
TORSDOF 5
ENDMDL
MODEL 5
REMARK VINA RESULT:    -6.586      3.673      7.989
REMARK INTER + INTRA:          -9.299
REMARK INTER:                  -8.453
REMARK INTRA:                  -0.846
REMARK UNBOUND:                -0.787
REMARK  Name = 
REMARK  7 active torsions:
REMARK  status: ('A' for Active; 'I' for Inactive)
REMARK    1  A    between atoms: C_1  and  C_2
REMARK    2  A    between atoms: C_4  and  C_5
REMARK    3  A    between atoms: C_5  and  C_6
REMARK    4  A    between atoms: C_5  and  C_7
REMARK    5  A    between atoms: C_7  and  O_8
REMARK    6  A    between atoms: O_8  and  C_9
REMARK    7  A    between atoms: C_13  and  C_14
REMARK                            x       y       z     vdW  Elec       q    Type
REMARK                         _______ _______ _______ _____ _____    ______ ____
ROOT
ATOM      1  O   UNL     1      49.061   6.189  15.076  0.00  0.00    +0.000 OA
ENDROOT
BRANCH   1   2
ATOM      2  C   UNL     1      48.046   6.492  14.206  0.00  0.00    +0.000 A 
ATOM      3  C   UNL     1      47.775   7.842  14.009  0.00  0.00    +0.000 A 
ATOM      4  C   UNL     1      46.746   8.230  13.148  0.00  0.00    +0.000 A 
ATOM      5  C   UNL     1      45.961   7.263  12.509  0.00  0.00    +0.000 A 
ATOM      6  C   UNL     1      46.178   5.892  12.732  0.00  0.00    +0.000 A 
ATOM      7  C   UNL     1      47.245   5.535  13.578  0.00  0.00    +0.000 A 
BRANCH   6   8
ATOM      8  C   UNL     1      45.319   4.833  12.165  0.00  0.00    +0.000 A 
ATOM      9  C   UNL     1      45.084   4.678  10.801  0.00  0.00    +0.000 A 
ATOM     10  N   UNL     1      44.213   3.768  10.287  0.00  0.00    +0.000 NA
ATOM     11  C   UNL     1      43.568   3.012  11.200  0.00  0.00    +0.000 A 
ATOM     12  C   UNL     1      43.793   3.142  12.557  0.00  0.00    +0.000 A 
ATOM     13  N   UNL     1      44.664   4.044  13.062  0.00  0.00    +0.000 NA
ENDBRANCH   6   8
ENDBRANCH   1   2
BRANCH   1  14
ATOM     14  C   UNL     1      48.837   6.634  16.423  0.00  0.00    +0.000 C 
BRANCH  14  15
ATOM     15  C   UNL     1      48.267   5.482  17.267  0.00  0.00    +0.000 C 
ATOM     16  C   UNL     1      47.886   5.935  18.676  0.00  0.00    +0.000 C 
BRANCH  15  20
ATOM     17  C   UNL     1      52.804   3.901  18.181  0.00  0.00    +0.000 C 
ATOM     18  C   UNL     1      51.410   3.547  17.751  0.00  0.00    +0.000 A 
ATOM     19  N   UNL     1      50.516   4.575  17.717  0.00  0.00    +0.000 NA
ATOM     20  C   UNL     1      49.243   4.320  17.317  0.00  0.00    +0.000 A 
ATOM     21  C   UNL     1      48.824   3.038  16.972  0.00  0.00    +0.000 A 
ATOM     22  C   UNL     1      49.743   1.993  17.017  0.00  0.00    +0.000 A 
ATOM     23  C   UNL     1      51.055   2.244  17.408  0.00  0.00    +0.000 A 
ATOM     24 CL   UNL     1      52.175   0.934  17.442  0.00  0.00    +0.000 Cl
ENDBRANCH  15  20
ENDBRANCH  14  15
ENDBRANCH   1  14
TORSDOF 5
ENDMDL
MODEL 6
REMARK VINA RESULT:    -6.298      3.332      8.138
REMARK INTER + INTRA:          -8.927
REMARK INTER:                  -8.297
REMARK INTRA:                  -0.630
REMARK UNBOUND:                -0.787
REMARK  Name = 
REMARK  7 active torsions:
REMARK  status: ('A' for Active; 'I' for Inactive)
REMARK    1  A    between atoms: C_1  and  C_2
REMARK    2  A    between atoms: C_4  and  C_5
REMARK    3  A    between atoms: C_5  and  C_6
REMARK    4  A    between atoms: C_5  and  C_7
REMARK    5  A    between atoms: C_7  and  O_8
REMARK    6  A    between atoms: O_8  and  C_9
REMARK    7  A    between atoms: C_13  and  C_14
REMARK                            x       y       z     vdW  Elec       q    Type
REMARK                         _______ _______ _______ _____ _____    ______ ____
ROOT
ATOM      1  O   UNL     1      46.008   7.510  11.904  0.00  0.00    +0.000 OA
ENDROOT
BRANCH   1   2
ATOM      2  C   UNL     1      45.241   6.539  11.316  0.00  0.00    +0.000 A 
ATOM      3  C   UNL     1      43.937   6.406  11.780  0.00  0.00    +0.000 A 
ATOM      4  C   UNL     1      43.098   5.430  11.240  0.00  0.00    +0.000 A 
ATOM      5  C   UNL     1      43.578   4.557  10.256  0.00  0.00    +0.000 A 
ATOM      6  C   UNL     1      44.907   4.632   9.807  0.00  0.00    +0.000 A 
ATOM      7  C   UNL     1      45.715   5.651  10.347  0.00  0.00    +0.000 A 
BRANCH   6   8
ATOM      8  C   UNL     1      45.494   3.676   8.847  0.00  0.00    +0.000 A 
ATOM      9  C   UNL     1      45.487   2.295   9.031  0.00  0.00    +0.000 A 
ATOM     10  N   UNL     1      46.116   1.423   8.198  0.00  0.00    +0.000 NA
ATOM     11  C   UNL     1      46.771   1.989   7.164  0.00  0.00    +0.000 A 
ATOM     12  C   UNL     1      46.784   3.355   6.956  0.00  0.00    +0.000 A 
ATOM     13  N   UNL     1      46.152   4.217   7.784  0.00  0.00    +0.000 NA
ENDBRANCH   6   8
ENDBRANCH   1   2
BRANCH   1  14
ATOM     14  C   UNL     1      47.389   7.152  12.073  0.00  0.00    +0.000 C 
BRANCH  14  15
ATOM     15  C   UNL     1      48.170   8.339  12.659  0.00  0.00    +0.000 C 
ATOM     16  C   UNL     1      48.975   9.080  11.592  0.00  0.00    +0.000 C 
BRANCH  15  20
ATOM     17  C   UNL     1      48.645   5.835  16.833  0.00  0.00    +0.000 C 
ATOM     18  C   UNL     1      49.312   6.688  15.793  0.00  0.00    +0.000 A 
ATOM     19  N   UNL     1      48.526   7.093  14.758  0.00  0.00    +0.000 NA
ATOM     20  C   UNL     1      49.068   7.882  13.795  0.00  0.00    +0.000 A 
ATOM     21  C   UNL     1      50.407   8.262  13.825  0.00  0.00    +0.000 A 
ATOM     22  C   UNL     1      51.206   7.837  14.884  0.00  0.00    +0.000 A 
ATOM     23  C   UNL     1      50.657   7.042  15.886  0.00  0.00    +0.000 A 
ATOM     24 CL   UNL     1      51.665   6.542  17.192  0.00  0.00    +0.000 Cl
ENDBRANCH  15  20
ENDBRANCH  14  15
ENDBRANCH   1  14
TORSDOF 5
ENDMDL
MODEL 7
REMARK VINA RESULT:    -6.285      3.274      4.822
REMARK INTER + INTRA:          -8.909
REMARK INTER:                  -8.158
REMARK INTRA:                  -0.752
REMARK UNBOUND:                -0.787
REMARK  Name = 
REMARK  7 active torsions:
REMARK  status: ('A' for Active; 'I' for Inactive)
REMARK    1  A    between atoms: C_1  and  C_2
REMARK    2  A    between atoms: C_4  and  C_5
REMARK    3  A    between atoms: C_5  and  C_6
REMARK    4  A    between atoms: C_5  and  C_7
REMARK    5  A    between atoms: C_7  and  O_8
REMARK    6  A    between atoms: O_8  and  C_9
REMARK    7  A    between atoms: C_13  and  C_14
REMARK                            x       y       z     vdW  Elec       q    Type
REMARK                         _______ _______ _______ _____ _____    ______ ____
ROOT
ATOM      1  O   UNL     1      45.851   5.203  11.806  0.00  0.00    +0.000 OA
ENDROOT
BRANCH   1   2
ATOM      2  C   UNL     1      46.818   5.985  12.381  0.00  0.00    +0.000 A 
ATOM      3  C   UNL     1      47.176   5.674  13.689  0.00  0.00    +0.000 A 
ATOM      4  C   UNL     1      48.144   6.434  14.348  0.00  0.00    +0.000 A 
ATOM      5  C   UNL     1      48.731   7.533  13.709  0.00  0.00    +0.000 A 
ATOM      6  C   UNL     1      48.349   7.903  12.408  0.00  0.00    +0.000 A 
ATOM      7  C   UNL     1      47.395   7.095  11.760  0.00  0.00    +0.000 A 
BRANCH   6   8
ATOM      8  C   UNL     1      48.859   9.109  11.726  0.00  0.00    +0.000 A 
ATOM      9  C   UNL     1      50.204   9.316  11.427  0.00  0.00    +0.000 A 
ATOM     10  N   UNL     1      50.685  10.470  10.891  0.00  0.00    +0.000 NA
ATOM     11  C   UNL     1      49.763  11.428  10.669  0.00  0.00    +0.000 A 
ATOM     12  C   UNL     1      48.422  11.241  10.949  0.00  0.00    +0.000 A 
ATOM     13  N   UNL     1      47.948  10.090  11.475  0.00  0.00    +0.000 NA
ENDBRANCH   6   8
ENDBRANCH   1   2
BRANCH   1  14
ATOM     14  C   UNL     1      44.917   5.925  10.986  0.00  0.00    +0.000 C 
BRANCH  14  15
ATOM     15  C   UNL     1      43.937   4.944  10.321  0.00  0.00    +0.000 C 
ATOM     16  C   UNL     1      43.029   4.260  11.342  0.00  0.00    +0.000 C 
BRANCH  15  20
ATOM     17  C   UNL     1      47.003   4.028   6.622  0.00  0.00    +0.000 C 
ATOM     18  C   UNL     1      46.153   3.462   7.723  0.00  0.00    +0.000 A 
ATOM     19  N   UNL     1      45.487   4.370   8.490  0.00  0.00    +0.000 NA
ATOM     20  C   UNL     1      44.687   3.918   9.490  0.00  0.00    +0.000 A 
ATOM     21  C   UNL     1      44.555   2.560   9.768  0.00  0.00    +0.000 A 
ATOM     22  C   UNL     1      45.246   1.640   8.984  0.00  0.00    +0.000 A 
ATOM     23  C   UNL     1      46.054   2.089   7.944  0.00  0.00    +0.000 A 
ATOM     24 CL   UNL     1      46.887   0.928   6.980  0.00  0.00    +0.000 Cl
ENDBRANCH  15  20
ENDBRANCH  14  15
ENDBRANCH   1  14
TORSDOF 5
ENDMDL
MODEL 8
REMARK VINA RESULT:    -6.226      3.632      7.870
REMARK INTER + INTRA:          -8.833
REMARK INTER:                  -7.843
REMARK INTRA:                  -0.991
REMARK UNBOUND:                -0.787
REMARK  Name = 
REMARK  7 active torsions:
REMARK  status: ('A' for Active; 'I' for Inactive)
REMARK    1  A    between atoms: C_1  and  C_2
REMARK    2  A    between atoms: C_4  and  C_5
REMARK    3  A    between atoms: C_5  and  C_6
REMARK    4  A    between atoms: C_5  and  C_7
REMARK    5  A    between atoms: C_7  and  O_8
REMARK    6  A    between atoms: O_8  and  C_9
REMARK    7  A    between atoms: C_13  and  C_14
REMARK                            x       y       z     vdW  Elec       q    Type
REMARK                         _______ _______ _______ _____ _____    ______ ____
ROOT
ATOM      1  O   UNL     1      49.744   6.875  14.405  0.00  0.00    +0.000 OA
ENDROOT
BRANCH   1   2
ATOM      2  C   UNL     1      48.514   7.118  13.852  0.00  0.00    +0.000 A 
ATOM      3  C   UNL     1      48.027   8.416  13.959  0.00  0.00    +0.000 A 
ATOM      4  C   UNL     1      46.775   8.739  13.432  0.00  0.00    +0.000 A 
ATOM      5  C   UNL     1      45.989   7.750  12.829  0.00  0.00    +0.000 A 
ATOM      6  C   UNL     1      46.432   6.418  12.756  0.00  0.00    +0.000 A 
ATOM      7  C   UNL     1      47.714   6.135  13.266  0.00  0.00    +0.000 A 
BRANCH   6   8
ATOM      8  C   UNL     1      45.606   5.318  12.223  0.00  0.00    +0.000 A 
ATOM      9  C   UNL     1      45.227   4.205  12.971  0.00  0.00    +0.000 A 
ATOM     10  N   UNL     1      44.553   3.144  12.450  0.00  0.00    +0.000 NA
ATOM     11  C   UNL     1      44.273   3.232  11.134  0.00  0.00    +0.000 A 
ATOM     12  C   UNL     1      44.631   4.330  10.375  0.00  0.00    +0.000 A 
ATOM     13  N   UNL     1      45.295   5.384  10.898  0.00  0.00    +0.000 NA
ENDBRANCH   6   8
ENDBRANCH   1   2
BRANCH   1  14
ATOM     14  C   UNL     1      50.111   7.784  15.455  0.00  0.00    +0.000 C 
BRANCH  14  15
ATOM     15  C   UNL     1      50.658   7.001  16.659  0.00  0.00    +0.000 C 
ATOM     16  C   UNL     1      52.090   6.520  16.429  0.00  0.00    +0.000 C 
BRANCH  15  20
ATOM     17  C   UNL     1      50.092   2.169  17.161  0.00  0.00    +0.000 C 
ATOM     18  C   UNL     1      49.457   3.527  17.246  0.00  0.00    +0.000 A 
ATOM     19  N   UNL     1      50.267   4.584  16.959  0.00  0.00    +0.000 NA
ATOM     20  C   UNL     1      49.745   5.836  17.001  0.00  0.00    +0.000 A 
ATOM     21  C   UNL     1      48.419   6.068  17.355  0.00  0.00    +0.000 A 
ATOM     22  C   UNL     1      47.600   4.982  17.654  0.00  0.00    +0.000 A 
ATOM     23  C   UNL     1      48.118   3.692  17.598  0.00  0.00    +0.000 A 
ATOM     24 CL   UNL     1      47.080   2.364  17.959  0.00  0.00    +0.000 Cl
ENDBRANCH  15  20
ENDBRANCH  14  15
ENDBRANCH   1  14
TORSDOF 5
ENDMDL
MODEL 9
REMARK VINA RESULT:    -6.164      2.807      4.448
REMARK INTER + INTRA:          -8.753
REMARK INTER:                  -7.910
REMARK INTRA:                  -0.843
REMARK UNBOUND:                -0.787
REMARK  Name = 
REMARK  7 active torsions:
REMARK  status: ('A' for Active; 'I' for Inactive)
REMARK    1  A    between atoms: C_1  and  C_2
REMARK    2  A    between atoms: C_4  and  C_5
REMARK    3  A    between atoms: C_5  and  C_6
REMARK    4  A    between atoms: C_5  and  C_7
REMARK    5  A    between atoms: C_7  and  O_8
REMARK    6  A    between atoms: O_8  and  C_9
REMARK    7  A    between atoms: C_13  and  C_14
REMARK                            x       y       z     vdW  Elec       q    Type
REMARK                         _______ _______ _______ _____ _____    ______ ____
ROOT
ATOM      1  O   UNL     1      48.710   8.301  13.109  0.00  0.00    +0.000 OA
ENDROOT
BRANCH   1   2
ATOM      2  C   UNL     1      48.773   7.950  14.433  0.00  0.00    +0.000 A 
ATOM      3  C   UNL     1      49.196   8.935  15.320  0.00  0.00    +0.000 A 
ATOM      4  C   UNL     1      49.299   8.650  16.682  0.00  0.00    +0.000 A 
ATOM      5  C   UNL     1      49.015   7.363  17.155  0.00  0.00    +0.000 A 
ATOM      6  C   UNL     1      48.639   6.334  16.275  0.00  0.00    +0.000 A 
ATOM      7  C   UNL     1      48.511   6.665  14.912  0.00  0.00    +0.000 A 
BRANCH   6   8
ATOM      8  C   UNL     1      48.426   4.938  16.703  0.00  0.00    +0.000 A 
ATOM      9  C   UNL     1      47.168   4.378  16.912  0.00  0.00    +0.000 A 
ATOM     10  N   UNL     1      46.975   3.125  17.405  0.00  0.00    +0.000 NA
ATOM     11  C   UNL     1      48.103   2.443  17.695  0.00  0.00    +0.000 A 
ATOM     12  C   UNL     1      49.361   2.975  17.487  0.00  0.00    +0.000 A 
ATOM     13  N   UNL     1      49.547   4.218  16.991  0.00  0.00    +0.000 NA
ENDBRANCH   6   8
ENDBRANCH   1   2
BRANCH   1  14
ATOM     14  C   UNL     1      48.214   7.265  12.246  0.00  0.00    +0.000 C 
BRANCH  14  15
ATOM     15  C   UNL     1      46.783   7.601  11.794  0.00  0.00    +0.000 C 
ATOM     16  C   UNL     1      46.156   8.705  12.645  0.00  0.00    +0.000 C 
BRANCH  15  20
ATOM     17  C   UNL     1      44.508   4.116   9.227  0.00  0.00    +0.000 C 
ATOM     18  C   UNL     1      44.819   4.681  10.583  0.00  0.00    +0.000 A 
ATOM     19  N   UNL     1      45.612   5.788  10.600  0.00  0.00    +0.000 NA
ATOM     20  C   UNL     1      45.914   6.356  11.796  0.00  0.00    +0.000 A 
ATOM     21  C   UNL     1      45.460   5.822  12.999  0.00  0.00    +0.000 A 
ATOM     22  C   UNL     1      44.655   4.685  12.971  0.00  0.00    +0.000 A 
ATOM     23  C   UNL     1      44.324   4.104  11.751  0.00  0.00    +0.000 A 
ATOM     24 CL   UNL     1      43.316   2.706  11.745  0.00  0.00    +0.000 Cl
ENDBRANCH  15  20
ENDBRANCH  14  15
ENDBRANCH   1  14
TORSDOF 5
ENDMDL
