MODEL 1
REMARK VINA RESULT:    -8.112      0.000      0.000
REMARK INTER + INTRA:         -11.783
REMARK INTER:                 -10.958
REMARK INTRA:                  -0.825
REMARK UNBOUND:                -0.825
REMARK  Name = 
REMARK  6 active torsions:
REMARK  status: ('A' for Active; 'I' for Inactive)
REMARK    1  A    between atoms: C_2  and  C_4
REMARK    2  A    between atoms: C_7  and  O_8
REMARK    3  A    between atoms: O_8  and  C_9
REMARK    4  A    between atoms: C_9  and  C_10
REMARK    5  A    between atoms: C_10  and  C_11
REMARK    6  A    between atoms: C_15  and  C_16
REMARK                            x       y       z     vdW  Elec       q    Type
REMARK                         _______ _______ _______ _____ _____    ______ ____
ROOT
ATOM      1  C   UNL     1      43.486   4.664  12.183  0.00  0.00    +0.000 C 
ENDROOT
BRANCH   1   2
ATOM      2  C   UNL     1      44.861   5.081  12.654  0.00  0.00    +0.000 A 
ATOM      3  C   UNL     1      45.654   4.214  13.410  0.00  0.00    +0.000 A 
ATOM      4  C   UNL     1      46.936   4.601  13.799  0.00  0.00    +0.000 A 
ATOM      5  C   UNL     1      47.444   5.850  13.423  0.00  0.00    +0.000 A 
ATOM      6  C   UNL     1      46.677   6.764  12.676  0.00  0.00    +0.000 A 
ATOM      7  C   UNL     1      45.376   6.349  12.325  0.00  0.00    +0.000 A 
ATOM      8  F   UNL     1      44.570   7.191  11.657  0.00  0.00    +0.000 F 
BRANCH   6   9
ATOM      9  C   UNL     1      47.223   8.087  12.276  0.00  0.00    +0.000 A 
ATOM     10  C   UNL     1      46.451   9.257  12.342  0.00  0.00    +0.000 A 
ATOM     11  C   UNL     1      47.009  10.475  11.979  0.00  0.00    +0.000 A 
ATOM     12  N   UNL     1      48.271  10.619  11.530  0.00  0.00    +0.000 NA
ATOM     13  C   UNL     1      49.005   9.493  11.451  0.00  0.00    +0.000 A 
ATOM     14  C   UNL     1      48.539   8.234  11.807  0.00  0.00    +0.000 A 
ENDBRANCH   6   9
ENDBRANCH   1   2
BRANCH   1  15
ATOM     15  C   UNL     1      43.548   3.811  10.914  0.00  0.00    +0.000 C 
BRANCH  15  16
ATOM     16  O   UNL     1      44.007   4.595   9.802  0.00  0.00    +0.000 OA
BRANCH  16  20
ATOM     17  C   UNL     1      46.626   2.430   7.461  0.00  0.00    +0.000 A 
ATOM     18  C   UNL     1      45.876   1.775   8.440  0.00  0.00    +0.000 A 
ATOM     19  C   UNL     1      44.997   2.516   9.236  0.00  0.00    +0.000 A 
ATOM     20  C   UNL     1      44.902   3.884   9.019  0.00  0.00    +0.000 A 
ATOM     21  N   UNL     1      45.635   4.541   8.093  0.00  0.00    +0.000 NA
ATOM     22  C   UNL     1      46.484   3.803   7.341  0.00  0.00    +0.000 A 
BRANCH  17  24
ATOM     23  N   UNL     1      48.739   2.384   6.264  0.00  0.00    +0.000 N 
ATOM     24  C   UNL     1      47.565   1.747   6.549  0.00  0.00    +0.000 C 
ATOM     25  O   UNL     1      47.328   0.630   6.105  0.00  0.00    +0.000 OA
ATOM     26  H   UNL     1      49.423   1.843   5.750  0.00  0.00    +0.000 HD
ATOM     27  H   UNL     1      49.078   3.163   6.811  0.00  0.00    +0.000 HD
ENDBRANCH  17  24
ENDBRANCH  16  20
ENDBRANCH  15  16
ENDBRANCH   1  15
TORSDOF 6
ENDMDL
MODEL 2
REMARK VINA RESULT:    -8.017      2.388      3.633
REMARK INTER + INTRA:         -11.654
REMARK INTER:                 -10.802
REMARK INTRA:                  -0.853
REMARK UNBOUND:                -0.825
REMARK  Name = 
REMARK  6 active torsions:
REMARK  status: ('A' for Active; 'I' for Inactive)
REMARK    1  A    between atoms: C_2  and  C_4
REMARK    2  A    between atoms: C_7  and  O_8
REMARK    3  A    between atoms: O_8  and  C_9
REMARK    4  A    between atoms: C_9  and  C_10
REMARK    5  A    between atoms: C_10  and  C_11
REMARK    6  A    between atoms: C_15  and  C_16
REMARK                            x       y       z     vdW  Elec       q    Type
REMARK                         _______ _______ _______ _____ _____    ______ ____
ROOT
ATOM      1  C   UNL     1      43.823   5.609  11.794  0.00  0.00    +0.000 C 
ENDROOT
BRANCH   1   2
ATOM      2  C   UNL     1      45.275   5.813  12.165  0.00  0.00    +0.000 A 
ATOM      3  C   UNL     1      46.137   6.527  11.328  0.00  0.00    +0.000 A 
ATOM      4  C   UNL     1      47.461   6.740  11.709  0.00  0.00    +0.000 A 
ATOM      5  C   UNL     1      47.934   6.256  12.934  0.00  0.00    +0.000 A 
ATOM      6  C   UNL     1      47.108   5.517  13.803  0.00  0.00    +0.000 A 
ATOM      7  C   UNL     1      45.783   5.298  13.372  0.00  0.00    +0.000 A 
ATOM      8  F   UNL     1      44.956   4.557  14.127  0.00  0.00    +0.000 F 
BRANCH   6   9
ATOM      9  C   UNL     1      47.614   5.009  15.105  0.00  0.00    +0.000 A 
ATOM     10  C   UNL     1      48.378   5.812  15.966  0.00  0.00    +0.000 A 
ATOM     11  C   UNL     1      48.812   5.304  17.182  0.00  0.00    +0.000 A 
ATOM     12  N   UNL     1      48.566   4.047  17.601  0.00  0.00    +0.000 NA
ATOM     13  C   UNL     1      47.847   3.273  16.767  0.00  0.00    +0.000 A 
ATOM     14  C   UNL     1      47.357   3.699  15.539  0.00  0.00    +0.000 A 
ENDBRANCH   6   9
ENDBRANCH   1   2
BRANCH   1  15
ATOM     15  C   UNL     1      43.606   4.308  11.017  0.00  0.00    +0.000 C 
BRANCH  15  16
ATOM     16  O   UNL     1      43.592   4.563   9.604  0.00  0.00    +0.000 OA
BRANCH  16  20
ATOM     17  C   UNL     1      46.615   2.521   7.673  0.00  0.00    +0.000 A 
ATOM     18  C   UNL     1      45.746   1.826   8.518  0.00  0.00    +0.000 A 
ATOM     19  C   UNL     1      44.730   2.526   9.176  0.00  0.00    +0.000 A 
ATOM     20  C   UNL     1      44.622   3.894   8.962  0.00  0.00    +0.000 A 
ATOM     21  N   UNL     1      45.466   4.588   8.167  0.00  0.00    +0.000 NA
ATOM     22  C   UNL     1      46.446   3.891   7.548  0.00  0.00    +0.000 A 
BRANCH  17  24
ATOM     23  N   UNL     1      48.637   2.705   6.341  0.00  0.00    +0.000 N 
ATOM     24  C   UNL     1      47.706   1.884   6.911  0.00  0.00    +0.000 C 
ATOM     25  O   UNL     1      47.807   0.665   6.833  0.00  0.00    +0.000 OA
ATOM     26  H   UNL     1      49.446   2.247   5.941  0.00  0.00    +0.000 HD
ATOM     27  H   UNL     1      48.735   3.676   6.605  0.00  0.00    +0.000 HD
ENDBRANCH  17  24
ENDBRANCH  16  20
ENDBRANCH  15  16
ENDBRANCH   1  15
TORSDOF 6
ENDMDL
MODEL 3
REMARK VINA RESULT:    -7.818      1.690      2.336
REMARK INTER + INTRA:         -11.385
REMARK INTER:                 -10.633
REMARK INTRA:                  -0.752
REMARK UNBOUND:                -0.825
REMARK  Name = 
REMARK  6 active torsions:
REMARK  status: ('A' for Active; 'I' for Inactive)
REMARK    1  A    between atoms: C_2  and  C_4
REMARK    2  A    between atoms: C_7  and  O_8
REMARK    3  A    between atoms: O_8  and  C_9
REMARK    4  A    between atoms: C_9  and  C_10
REMARK    5  A    between atoms: C_10  and  C_11
REMARK    6  A    between atoms: C_15  and  C_16
REMARK                            x       y       z     vdW  Elec       q    Type
REMARK                         _______ _______ _______ _____ _____    ______ ____
ROOT
ATOM      1  C   UNL     1      43.782   3.778  12.617  0.00  0.00    +0.000 C 
ENDROOT
BRANCH   1   2
ATOM      2  C   UNL     1      44.309   5.144  12.234  0.00  0.00    +0.000 A 
ATOM      3  C   UNL     1      43.474   6.094  11.639  0.00  0.00    +0.000 A 
ATOM      4  C   UNL     1      43.967   7.361  11.333  0.00  0.00    +0.000 A 
ATOM      5  C   UNL     1      45.292   7.698  11.632  0.00  0.00    +0.000 A 
ATOM      6  C   UNL     1      46.175   6.770  12.216  0.00  0.00    +0.000 A 
ATOM      7  C   UNL     1      45.649   5.490  12.485  0.00  0.00    +0.000 A 
ATOM      8  F   UNL     1      46.449   4.539  12.995  0.00  0.00    +0.000 F 
BRANCH   6   9
ATOM      9  C   UNL     1      47.580   7.134  12.536  0.00  0.00    +0.000 A 
ATOM     10  C   UNL     1      48.082   7.067  13.845  0.00  0.00    +0.000 A 
ATOM     11  C   UNL     1      49.408   7.397  14.094  0.00  0.00    +0.000 A 
ATOM     12  N   UNL     1      50.269   7.812  13.146  0.00  0.00    +0.000 NA
ATOM     13  C   UNL     1      49.781   7.892  11.894  0.00  0.00    +0.000 A 
ATOM     14  C   UNL     1      48.476   7.568  11.546  0.00  0.00    +0.000 A 
ENDBRANCH   6   9
ENDBRANCH   1   2
BRANCH   1  15
ATOM     15  C   UNL     1      43.622   2.864  11.400  0.00  0.00    +0.000 C 
BRANCH  15  16
ATOM     16  O   UNL     1      43.597   3.637  10.190  0.00  0.00    +0.000 OA
BRANCH  16  20
ATOM     17  C   UNL     1      46.618   2.504   7.616  0.00  0.00    +0.000 A 
ATOM     18  C   UNL     1      46.264   3.852   7.711  0.00  0.00    +0.000 A 
ATOM     19  C   UNL     1      45.233   4.227   8.578  0.00  0.00    +0.000 A 
ATOM     20  C   UNL     1      44.598   3.239   9.318  0.00  0.00    +0.000 A 
ATOM     21  N   UNL     1      44.909   1.928   9.224  0.00  0.00    +0.000 NA
ATOM     22  C   UNL     1      45.904   1.588   8.372  0.00  0.00    +0.000 A 
BRANCH  17  24
ATOM     23  N   UNL     1      48.638   2.896   6.327  0.00  0.00    +0.000 N 
ATOM     24  C   UNL     1      47.703   1.997   6.753  0.00  0.00    +0.000 C 
ATOM     25  O   UNL     1      47.795   0.808   6.472  0.00  0.00    +0.000 OA
ATOM     26  H   UNL     1      49.443   2.506   5.853  0.00  0.00    +0.000 HD
ATOM     27  H   UNL     1      48.744   3.808   6.749  0.00  0.00    +0.000 HD
ENDBRANCH  17  24
ENDBRANCH  16  20
ENDBRANCH  15  16
ENDBRANCH   1  15
TORSDOF 6
ENDMDL
MODEL 4
REMARK VINA RESULT:    -7.575      3.393      7.512
REMARK INTER + INTRA:         -11.057
REMARK INTER:                 -10.189
REMARK INTRA:                  -0.868
REMARK UNBOUND:                -0.825
REMARK  Name = 
REMARK  6 active torsions:
REMARK  status: ('A' for Active; 'I' for Inactive)
REMARK    1  A    between atoms: C_2  and  C_4
REMARK    2  A    between atoms: C_7  and  O_8
REMARK    3  A    between atoms: O_8  and  C_9
REMARK    4  A    between atoms: C_9  and  C_10
REMARK    5  A    between atoms: C_10  and  C_11
REMARK    6  A    between atoms: C_15  and  C_16
REMARK                            x       y       z     vdW  Elec       q    Type
REMARK                         _______ _______ _______ _____ _____    ______ ____
ROOT
ATOM      1  C   UNL     1      45.083   6.654  11.008  0.00  0.00    +0.000 C 
ENDROOT
BRANCH   1   2
ATOM      2  C   UNL     1      44.851   5.205  10.640  0.00  0.00    +0.000 A 
ATOM      3  C   UNL     1      43.945   4.419  11.358  0.00  0.00    +0.000 A 
ATOM      4  C   UNL     1      43.714   3.098  10.977  0.00  0.00    +0.000 A 
ATOM      5  C   UNL     1      44.372   2.554   9.868  0.00  0.00    +0.000 A 
ATOM      6  C   UNL     1      45.304   3.302   9.125  0.00  0.00    +0.000 A 
ATOM      7  C   UNL     1      45.534   4.624   9.556  0.00  0.00    +0.000 A 
ATOM      8  F   UNL     1      46.449   5.377   8.925  0.00  0.00    +0.000 F 
BRANCH   6   9
ATOM      9  C   UNL     1      45.997   2.720   7.945  0.00  0.00    +0.000 A 
ATOM     10  C   UNL     1      46.155   3.440   6.751  0.00  0.00    +0.000 A 
ATOM     11  C   UNL     1      46.828   2.865   5.681  0.00  0.00    +0.000 A 
ATOM     12  N   UNL     1      47.336   1.618   5.697  0.00  0.00    +0.000 NA
ATOM     13  C   UNL     1      47.169   0.922   6.837  0.00  0.00    +0.000 A 
ATOM     14  C   UNL     1      46.525   1.419   7.963  0.00  0.00    +0.000 A 
ENDBRANCH   6   9
ENDBRANCH   1   2
BRANCH   1  15
ATOM     15  C   UNL     1      45.773   6.798  12.367  0.00  0.00    +0.000 C 
BRANCH  15  16
ATOM     16  O   UNL     1      46.995   6.045  12.393  0.00  0.00    +0.000 OA
BRANCH  16  20
ATOM     17  C   UNL     1      47.906   4.722  16.194  0.00  0.00    +0.000 A 
ATOM     18  C   UNL     1      47.002   3.999  15.412  0.00  0.00    +0.000 A 
ATOM     19  C   UNL     1      46.691   4.458  14.129  0.00  0.00    +0.000 A 
ATOM     20  C   UNL     1      47.298   5.622  13.677  0.00  0.00    +0.000 A 
ATOM     21  N   UNL     1      48.157   6.348  14.426  0.00  0.00    +0.000 NA
ATOM     22  C   UNL     1      48.436   5.888  15.667  0.00  0.00    +0.000 A 
BRANCH  17  24
ATOM     23  N   UNL     1      47.488   4.628  18.585  0.00  0.00    +0.000 N 
ATOM     24  C   UNL     1      48.325   4.319  17.551  0.00  0.00    +0.000 C 
ATOM     25  O   UNL     1      49.358   3.687  17.741  0.00  0.00    +0.000 OA
ATOM     26  H   UNL     1      47.726   4.226  19.483  0.00  0.00    +0.000 HD
ATOM     27  H   UNL     1      46.526   4.901  18.438  0.00  0.00    +0.000 HD
ENDBRANCH  17  24
ENDBRANCH  16  20
ENDBRANCH  15  16
ENDBRANCH   1  15
TORSDOF 6
ENDMDL
MODEL 5
REMARK VINA RESULT:    -7.555      1.778      2.291
REMARK INTER + INTRA:         -11.030
REMARK INTER:                 -10.614
REMARK INTRA:                  -0.417
REMARK UNBOUND:                -0.825
REMARK  Name = 
REMARK  6 active torsions:
REMARK  status: ('A' for Active; 'I' for Inactive)
REMARK    1  A    between atoms: C_2  and  C_4
REMARK    2  A    between atoms: C_7  and  O_8
REMARK    3  A    between atoms: O_8  and  C_9
REMARK    4  A    between atoms: C_9  and  C_10
REMARK    5  A    between atoms: C_10  and  C_11
REMARK    6  A    between atoms: C_15  and  C_16
REMARK                            x       y       z     vdW  Elec       q    Type
REMARK                         _______ _______ _______ _____ _____    ______ ____
ROOT
ATOM      1  C   UNL     1      43.703   3.992  12.357  0.00  0.00    +0.000 C 
ENDROOT
BRANCH   1   2
ATOM      2  C   UNL     1      44.651   5.169  12.293  0.00  0.00    +0.000 A 
ATOM      3  C   UNL     1      46.017   5.006  12.541  0.00  0.00    +0.000 A 
ATOM      4  C   UNL     1      46.880   6.095  12.436  0.00  0.00    +0.000 A 
ATOM      5  C   UNL     1      46.392   7.354  12.066  0.00  0.00    +0.000 A 
ATOM      6  C   UNL     1      45.022   7.570  11.822  0.00  0.00    +0.000 A 
ATOM      7  C   UNL     1      44.176   6.452  11.967  0.00  0.00    +0.000 A 
ATOM      8  F   UNL     1      42.851   6.599  11.800  0.00  0.00    +0.000 F 
BRANCH   6   9
ATOM      9  C   UNL     1      44.510   8.909  11.426  0.00  0.00    +0.000 A 
ATOM     10  C   UNL     1      45.170  10.091  11.794  0.00  0.00    +0.000 A 
ATOM     11  C   UNL     1      44.667  11.319  11.384  0.00  0.00    +0.000 A 
ATOM     12  N   UNL     1      43.544  11.465  10.655  0.00  0.00    +0.000 NA
ATOM     13  C   UNL     1      42.903  10.330  10.318  0.00  0.00    +0.000 A 
ATOM     14  C   UNL     1      43.338   9.058  10.668  0.00  0.00    +0.000 A 
ENDBRANCH   6   9
ENDBRANCH   1   2
BRANCH   1  15
ATOM     15  C   UNL     1      43.481   3.359  10.981  0.00  0.00    +0.000 C 
BRANCH  15  16
ATOM     16  O   UNL     1      43.901   4.255   9.941  0.00  0.00    +0.000 OA
BRANCH  16  20
ATOM     17  C   UNL     1      46.599   2.410   7.423  0.00  0.00    +0.000 A 
ATOM     18  C   UNL     1      45.953   1.659   8.407  0.00  0.00    +0.000 A 
ATOM     19  C   UNL     1      45.047   2.293   9.264  0.00  0.00    +0.000 A 
ATOM     20  C   UNL     1      44.821   3.653   9.099  0.00  0.00    +0.000 A 
ATOM     21  N   UNL     1      45.453   4.402   8.168  0.00  0.00    +0.000 NA
ATOM     22  C   UNL     1      46.332   3.768   7.357  0.00  0.00    +0.000 A 
BRANCH  17  24
ATOM     23  N   UNL     1      48.708   2.539   6.225  0.00  0.00    +0.000 N 
ATOM     24  C   UNL     1      47.555   1.843   6.451  0.00  0.00    +0.000 C 
ATOM     25  O   UNL     1      47.351   0.766   5.905  0.00  0.00    +0.000 OA
ATOM     26  H   UNL     1      49.407   2.069   5.663  0.00  0.00    +0.000 HD
ATOM     27  H   UNL     1      49.026   3.274   6.843  0.00  0.00    +0.000 HD
ENDBRANCH  17  24
ENDBRANCH  16  20
ENDBRANCH  15  16
ENDBRANCH   1  15
TORSDOF 6
ENDMDL
MODEL 6
REMARK VINA RESULT:    -7.047      5.130      7.916
REMARK INTER + INTRA:         -10.343
REMARK INTER:                  -9.376
REMARK INTRA:                  -0.967
REMARK UNBOUND:                -0.825
REMARK  Name = 
REMARK  6 active torsions:
REMARK  status: ('A' for Active; 'I' for Inactive)
REMARK    1  A    between atoms: C_2  and  C_4
REMARK    2  A    between atoms: C_7  and  O_8
REMARK    3  A    between atoms: O_8  and  C_9
REMARK    4  A    between atoms: C_9  and  C_10
REMARK    5  A    between atoms: C_10  and  C_11
REMARK    6  A    between atoms: C_15  and  C_16
REMARK                            x       y       z     vdW  Elec       q    Type
REMARK                         _______ _______ _______ _____ _____    ______ ____
ROOT
ATOM      1  C   UNL     1      49.026   6.868  14.540  0.00  0.00    +0.000 C 
ENDROOT
BRANCH   1   2
ATOM      2  C   UNL     1      47.705   7.130  13.850  0.00  0.00    +0.000 A 
ATOM      3  C   UNL     1      47.214   8.431  13.711  0.00  0.00    +0.000 A 
ATOM      4  C   UNL     1      46.017   8.655  13.034  0.00  0.00    +0.000 A 
ATOM      5  C   UNL     1      45.305   7.587  12.477  0.00  0.00    +0.000 A 
ATOM      6  C   UNL     1      45.752   6.258  12.605  0.00  0.00    +0.000 A 
ATOM      7  C   UNL     1      46.952   6.067  13.320  0.00  0.00    +0.000 A 
ATOM      8  F   UNL     1      47.409   4.820  13.526  0.00  0.00    +0.000 F 
BRANCH   6   9
ATOM      9  C   UNL     1      44.995   5.127  12.007  0.00  0.00    +0.000 A 
ATOM     10  C   UNL     1      44.255   4.233  12.796  0.00  0.00    +0.000 A 
ATOM     11  C   UNL     1      43.545   3.203  12.193  0.00  0.00    +0.000 A 
ATOM     12  N   UNL     1      43.533   2.976  10.866  0.00  0.00    +0.000 NA
ATOM     13  C   UNL     1      44.258   3.825  10.112  0.00  0.00    +0.000 A 
ATOM     14  C   UNL     1      44.985   4.892  10.623  0.00  0.00    +0.000 A 
ENDBRANCH   6   9
ENDBRANCH   1   2
BRANCH   1  15
ATOM     15  C   UNL     1      48.878   6.822  16.063  0.00  0.00    +0.000 C 
BRANCH  15  16
ATOM     16  O   UNL     1      48.205   5.620  16.468  0.00  0.00    +0.000 OA
BRANCH  16  20
ATOM     17  C   UNL     1      50.875   2.613  17.395  0.00  0.00    +0.000 A 
ATOM     18  C   UNL     1      49.543   2.291  17.122  0.00  0.00    +0.000 A 
ATOM     19  C   UNL     1      48.642   3.316  16.818  0.00  0.00    +0.000 A 
ATOM     20  C   UNL     1      49.109   4.623  16.796  0.00  0.00    +0.000 A 
ATOM     21  N   UNL     1      50.387   4.958  17.080  0.00  0.00    +0.000 NA
ATOM     22  C   UNL     1      51.238   3.950  17.379  0.00  0.00    +0.000 A 
BRANCH  17  24
ATOM     23  N   UNL     1      51.500   0.368  18.077  0.00  0.00    +0.000 N 
ATOM     24  C   UNL     1      51.916   1.614  17.704  0.00  0.00    +0.000 C 
ATOM     25  O   UNL     1      53.108   1.873  17.583  0.00  0.00    +0.000 OA
ATOM     26  H   UNL     1      52.224  -0.337  18.151  0.00  0.00    +0.000 HD
ATOM     27  H   UNL     1      50.553   0.047  17.930  0.00  0.00    +0.000 HD
ENDBRANCH  17  24
ENDBRANCH  16  20
ENDBRANCH  15  16
ENDBRANCH   1  15
TORSDOF 6
ENDMDL
MODEL 7
REMARK VINA RESULT:    -6.892      2.661      3.485
REMARK INTER + INTRA:         -10.134
REMARK INTER:                  -9.569
REMARK INTRA:                  -0.565
REMARK UNBOUND:                -0.825
REMARK  Name = 
REMARK  6 active torsions:
REMARK  status: ('A' for Active; 'I' for Inactive)
REMARK    1  A    between atoms: C_2  and  C_4
REMARK    2  A    between atoms: C_7  and  O_8
REMARK    3  A    between atoms: O_8  and  C_9
REMARK    4  A    between atoms: C_9  and  C_10
REMARK    5  A    between atoms: C_10  and  C_11
REMARK    6  A    between atoms: C_15  and  C_16
REMARK                            x       y       z     vdW  Elec       q    Type
REMARK                         _______ _______ _______ _____ _____    ______ ____
ROOT
ATOM      1  C   UNL     1      44.782   4.352  12.809  0.00  0.00    +0.000 C 
ENDROOT
BRANCH   1   2
ATOM      2  C   UNL     1      45.973   5.285  12.838  0.00  0.00    +0.000 A 
ATOM      3  C   UNL     1      46.301   6.065  11.726  0.00  0.00    +0.000 A 
ATOM      4  C   UNL     1      47.376   6.950  11.788  0.00  0.00    +0.000 A 
ATOM      5  C   UNL     1      48.124   7.076  12.964  0.00  0.00    +0.000 A 
ATOM      6  C   UNL     1      47.841   6.300  14.104  0.00  0.00    +0.000 A 
ATOM      7  C   UNL     1      46.765   5.396  13.995  0.00  0.00    +0.000 A 
ATOM      8  F   UNL     1      46.473   4.587  15.027  0.00  0.00    +0.000 F 
BRANCH   6   9
ATOM      9  C   UNL     1      48.636   6.442  15.353  0.00  0.00    +0.000 A 
ATOM     10  C   UNL     1      48.741   5.398  16.285  0.00  0.00    +0.000 A 
ATOM     11  C   UNL     1      49.511   5.567  17.428  0.00  0.00    +0.000 A 
ATOM     12  N   UNL     1      50.169   6.703  17.729  0.00  0.00    +0.000 NA
ATOM     13  C   UNL     1      50.054   7.709  16.841  0.00  0.00    +0.000 A 
ATOM     14  C   UNL     1      49.320   7.628  15.665  0.00  0.00    +0.000 A 
ENDBRANCH   6   9
ENDBRANCH   1   2
BRANCH   1  15
ATOM     15  C   UNL     1      44.948   3.243  11.766  0.00  0.00    +0.000 C 
BRANCH  15  16
ATOM     16  O   UNL     1      44.223   3.566  10.569  0.00  0.00    +0.000 OA
BRANCH  16  20
ATOM     17  C   UNL     1      46.442   2.669   7.207  0.00  0.00    +0.000 A 
ATOM     18  C   UNL     1      46.083   3.995   7.461  0.00  0.00    +0.000 A 
ATOM     19  C   UNL     1      45.322   4.290   8.597  0.00  0.00    +0.000 A 
ATOM     20  C   UNL     1      44.954   3.248   9.436  0.00  0.00    +0.000 A 
ATOM     21  N   UNL     1      45.272   1.956   9.197  0.00  0.00    +0.000 NA
ATOM     22  C   UNL     1      46.000   1.694   8.087  0.00  0.00    +0.000 A 
BRANCH  17  24
ATOM     23  N   UNL     1      48.473   1.676   6.321  0.00  0.00    +0.000 N 
ATOM     24  C   UNL     1      47.260   2.245   6.055  0.00  0.00    +0.000 C 
ATOM     25  O   UNL     1      46.850   2.348   4.905  0.00  0.00    +0.000 OA
ATOM     26  H   UNL     1      48.955   1.270   5.529  0.00  0.00    +0.000 HD
ATOM     27  H   UNL     1      48.721   1.336   7.240  0.00  0.00    +0.000 HD
ENDBRANCH  17  24
ENDBRANCH  16  20
ENDBRANCH  15  16
ENDBRANCH   1  15
TORSDOF 6
ENDMDL
MODEL 8
REMARK VINA RESULT:    -6.818      4.044      7.717
REMARK INTER + INTRA:         -10.035
REMARK INTER:                  -9.090
REMARK INTRA:                  -0.945
REMARK UNBOUND:                -0.825
REMARK  Name = 
REMARK  6 active torsions:
REMARK  status: ('A' for Active; 'I' for Inactive)
REMARK    1  A    between atoms: C_2  and  C_4
REMARK    2  A    between atoms: C_7  and  O_8
REMARK    3  A    between atoms: O_8  and  C_9
REMARK    4  A    between atoms: C_9  and  C_10
REMARK    5  A    between atoms: C_10  and  C_11
REMARK    6  A    between atoms: C_15  and  C_16
REMARK                            x       y       z     vdW  Elec       q    Type
REMARK                         _______ _______ _______ _____ _____    ______ ____
ROOT
ATOM      1  C   UNL     1      48.553   8.238  12.697  0.00  0.00    +0.000 C 
ENDROOT
BRANCH   1   2
ATOM      2  C   UNL     1      47.106   8.102  12.278  0.00  0.00    +0.000 A 
ATOM      3  C   UNL     1      46.285   9.226  12.154  0.00  0.00    +0.000 A 
ATOM      4  C   UNL     1      44.966   9.083  11.726  0.00  0.00    +0.000 A 
ATOM      5  C   UNL     1      44.458   7.820  11.403  0.00  0.00    +0.000 A 
ATOM      6  C   UNL     1      45.241   6.657  11.527  0.00  0.00    +0.000 A 
ATOM      7  C   UNL     1      46.561   6.837  11.990  0.00  0.00    +0.000 A 
ATOM      8  F   UNL     1      47.347   5.765  12.182  0.00  0.00    +0.000 F 
BRANCH   6   9
ATOM      9  C   UNL     1      44.698   5.318  11.178  0.00  0.00    +0.000 A 
ATOM     10  C   UNL     1      44.954   4.716   9.936  0.00  0.00    +0.000 A 
ATOM     11  C   UNL     1      44.444   3.455   9.660  0.00  0.00    +0.000 A 
ATOM     12  N   UNL     1      43.677   2.752  10.516  0.00  0.00    +0.000 NA
ATOM     13  C   UNL     1      43.418   3.338  11.700  0.00  0.00    +0.000 A 
ATOM     14  C   UNL     1      43.898   4.588  12.071  0.00  0.00    +0.000 A 
ENDBRANCH   6   9
ENDBRANCH   1   2
BRANCH   1  15
ATOM     15  C   UNL     1      48.701   8.363  14.216  0.00  0.00    +0.000 C 
BRANCH  15  16
ATOM     16  O   UNL     1      49.762   7.517  14.688  0.00  0.00    +0.000 OA
BRANCH  16  20
ATOM     17  C   UNL     1      48.308   4.494  17.091  0.00  0.00    +0.000 A 
ATOM     18  C   UNL     1      49.425   5.223  17.504  0.00  0.00    +0.000 A 
ATOM     19  C   UNL     1      49.918   6.240  16.680  0.00  0.00    +0.000 A 
ATOM     20  C   UNL     1      49.272   6.489  15.477  0.00  0.00    +0.000 A 
ATOM     21  N   UNL     1      48.204   5.780  15.049  0.00  0.00    +0.000 NA
ATOM     22  C   UNL     1      47.750   4.796  15.859  0.00  0.00    +0.000 A 
BRANCH  17  24
ATOM     23  N   UNL     1      48.263   3.113  19.088  0.00  0.00    +0.000 N 
ATOM     24  C   UNL     1      47.688   3.416  17.888  0.00  0.00    +0.000 C 
ATOM     25  O   UNL     1      46.667   2.850  17.515  0.00  0.00    +0.000 OA
ATOM     26  H   UNL     1      47.748   2.471  19.677  0.00  0.00    +0.000 HD
ATOM     27  H   UNL     1      48.927   3.727  19.541  0.00  0.00    +0.000 HD
ENDBRANCH  17  24
ENDBRANCH  16  20
ENDBRANCH  15  16
ENDBRANCH   1  15
TORSDOF 6
ENDMDL
MODEL 9
REMARK VINA RESULT:    -6.704      6.002      8.107
REMARK INTER + INTRA:          -9.880
REMARK INTER:                  -9.347
REMARK INTRA:                  -0.533
REMARK UNBOUND:                -0.825
REMARK  Name = 
REMARK  6 active torsions:
REMARK  status: ('A' for Active; 'I' for Inactive)
REMARK    1  A    between atoms: C_2  and  C_4
REMARK    2  A    between atoms: C_7  and  O_8
REMARK    3  A    between atoms: O_8  and  C_9
REMARK    4  A    between atoms: C_9  and  C_10
REMARK    5  A    between atoms: C_10  and  C_11
REMARK    6  A    between atoms: C_15  and  C_16
REMARK                            x       y       z     vdW  Elec       q    Type
REMARK                         _______ _______ _______ _____ _____    ______ ____
ROOT
ATOM      1  C   UNL     1      47.714   3.231  16.941  0.00  0.00    +0.000 C 
ENDROOT
BRANCH   1   2
ATOM      2  C   UNL     1      49.015   3.628  17.603  0.00  0.00    +0.000 A 
ATOM      3  C   UNL     1      49.081   4.740  18.448  0.00  0.00    +0.000 A 
ATOM      4  C   UNL     1      50.279   5.064  19.082  0.00  0.00    +0.000 A 
ATOM      5  C   UNL     1      51.419   4.274  18.892  0.00  0.00    +0.000 A 
ATOM      6  C   UNL     1      51.406   3.155  18.038  0.00  0.00    +0.000 A 
ATOM      7  C   UNL     1      50.184   2.874  17.392  0.00  0.00    +0.000 A 
ATOM      8  F   UNL     1      50.114   1.852  16.524  0.00  0.00    +0.000 F 
BRANCH   6   9
ATOM      9  C   UNL     1      52.618   2.316  17.844  0.00  0.00    +0.000 A 
ATOM     10  C   UNL     1      52.550   0.915  17.803  0.00  0.00    +0.000 A 
ATOM     11  C   UNL     1      53.704   0.172  17.598  0.00  0.00    +0.000 A 
ATOM     12  N   UNL     1      54.929   0.714  17.453  0.00  0.00    +0.000 NA
ATOM     13  C   UNL     1      54.995   2.058  17.509  0.00  0.00    +0.000 A 
ATOM     14  C   UNL     1      53.893   2.883  17.694  0.00  0.00    +0.000 A 
ENDBRANCH   6   9
ENDBRANCH   1   2
BRANCH   1  15
ATOM     15  C   UNL     1      47.347   4.171  15.790  0.00  0.00    +0.000 C 
BRANCH  15  16
ATOM     16  O   UNL     1      47.381   3.468  14.537  0.00  0.00    +0.000 OA
BRANCH  16  20
ATOM     17  C   UNL     1      44.543   4.933  11.925  0.00  0.00    +0.000 A 
ATOM     18  C   UNL     1      45.243   5.819  12.747  0.00  0.00    +0.000 A 
ATOM     19  C   UNL     1      46.196   5.314  13.637  0.00  0.00    +0.000 A 
ATOM     20  C   UNL     1      46.414   3.944  13.667  0.00  0.00    +0.000 A 
ATOM     21  N   UNL     1      45.732   3.068  12.896  0.00  0.00    +0.000 NA
ATOM     22  C   UNL     1      44.808   3.579  12.049  0.00  0.00    +0.000 A 
BRANCH  17  24
ATOM     23  N   UNL     1      42.772   6.446  11.237  0.00  0.00    +0.000 N 
ATOM     24  C   UNL     1      43.533   5.353  10.934  0.00  0.00    +0.000 C 
ATOM     25  O   UNL     1      43.414   4.780   9.857  0.00  0.00    +0.000 OA
ATOM     26  H   UNL     1      42.184   6.797  10.492  0.00  0.00    +0.000 HD
ATOM     27  H   UNL     1      43.020   7.089  11.976  0.00  0.00    +0.000 HD
ENDBRANCH  17  24
ENDBRANCH  16  20
ENDBRANCH  15  16
ENDBRANCH   1  15
TORSDOF 6
ENDMDL
