MODEL 1
REMARK VINA RESULT:    -7.887      0.000      0.000
REMARK INTER + INTRA:         -12.386
REMARK INTER:                 -11.575
REMARK INTRA:                  -0.811
REMARK UNBOUND:                -0.811
REMARK  Name = 
REMARK  8 active torsions:
REMARK  status: ('A' for Active; 'I' for Inactive)
REMARK    1  A    between atoms: C_2  and  C_12
REMARK    2  A    between atoms: N_3  and  C_4
REMARK    3  A    between atoms: C_4  and  C_5
REMARK    4  A    between atoms: C_5  and  N_6
REMARK    5  A    between atoms: C_15  and  C_16
REMARK    6  A    between atoms: C_16  and  N_17
REMARK    7  A    between atoms: N_17  and  C_18
REMARK    8  A    between atoms: C_18  and  C_19
REMARK                            x       y       z     vdW  Elec       q    Type
REMARK                         _______ _______ _______ _____ _____    ______ ____
ROOT
ATOM      1  C   UNL     1      47.032   5.955  12.856  0.00  0.00    +0.000 A 
ATOM      2  C   UNL     1      46.233   4.891  13.289  0.00  0.00    +0.000 A 
ATOM      3  C   UNL     1      45.139   4.485  12.527  0.00  0.00    +0.000 A 
ATOM      4  C   UNL     1      44.833   5.139  11.326  0.00  0.00    +0.000 A 
ATOM      5  C   UNL     1      45.675   6.164  10.868  0.00  0.00    +0.000 A 
ATOM      6  C   UNL     1      46.777   6.566  11.623  0.00  0.00    +0.000 A 
ENDROOT
BRANCH   1   8
ATOM      7  O   UNL     1      49.240   6.604  13.271  0.00  0.00    +0.000 OA
ATOM      8  C   UNL     1      48.127   6.400  13.747  0.00  0.00    +0.000 C 
ATOM      9  N   UNL     1      47.842   6.504  15.099  0.00  0.00    +0.000 N 
ATOM     10  H   UNL     1      46.896   6.409  15.438  0.00  0.00    +0.000 HD
BRANCH   9  11
ATOM     11  C   UNL     1      48.878   6.966  16.000  0.00  0.00    +0.000 C 
BRANCH  11  12
ATOM     12  C   UNL     1      49.157   6.038  17.201  0.00  0.00    +0.000 C 
BRANCH  12  13
ATOM     13  N   UNL     1      47.901   5.585  17.840  0.00  0.00    +0.000 NA
ATOM     14  C   UNL     1      47.870   5.847  19.297  0.00  0.00    +0.000 C 
ATOM     15  C   UNL     1      48.824   4.952  20.114  0.00  0.00    +0.000 C 
ATOM     16  N   UNL     1      48.514   3.523  19.942  0.00  0.00    +0.000 NA
ATOM     17  C   UNL     1      48.493   3.184  18.508  0.00  0.00    +0.000 C 
ATOM     18  C   UNL     1      47.653   4.144  17.627  0.00  0.00    +0.000 C 
ATOM     19  H   UNL     1      47.578   3.366  20.318  0.00  0.00    +0.000 HD
ENDBRANCH  12  13
ENDBRANCH  11  12
ENDBRANCH   9  11
ENDBRANCH   1   8
BRANCH   4  20
ATOM     20  C   UNL     1      43.591   4.763  10.556  0.00  0.00    +0.000 C 
BRANCH  20  21
ATOM     21  N   UNL     1      43.961   4.234   9.245  0.00  0.00    +0.000 NA
ATOM     22  H   UNL     1      44.754   4.762   8.883  0.00  0.00    +0.000 HD
BRANCH  21  23
ATOM     23  C   UNL     1      44.353   2.824   9.333  0.00  0.00    +0.000 C 
BRANCH  23  24
ATOM     24  C   UNL     1      45.519   2.508   8.417  0.00  0.00    +0.000 A 
ATOM     25  C   UNL     1      46.080   3.513   7.629  0.00  0.00    +0.000 A 
ATOM     26  C   UNL     1      47.157   3.201   6.806  0.00  0.00    +0.000 A 
ATOM     27  C   UNL     1      47.641   1.899   6.788  0.00  0.00    +0.000 A 
ATOM     28  C   UNL     1      47.029   0.961   7.602  0.00  0.00    +0.000 A 
ATOM     29  N   UNL     1      45.984   1.235   8.414  0.00  0.00    +0.000 NA
ENDBRANCH  23  24
ENDBRANCH  21  23
ENDBRANCH  20  21
ENDBRANCH   4  20
TORSDOF 8
ENDMDL
MODEL 2
REMARK VINA RESULT:    -7.017      1.324      1.828
REMARK INTER + INTRA:         -11.110
REMARK INTER:                 -10.314
REMARK INTRA:                  -0.797
REMARK UNBOUND:                -0.811
REMARK  Name = 
REMARK  8 active torsions:
REMARK  status: ('A' for Active; 'I' for Inactive)
REMARK    1  A    between atoms: C_2  and  C_12
REMARK    2  A    between atoms: N_3  and  C_4
REMARK    3  A    between atoms: C_4  and  C_5
REMARK    4  A    between atoms: C_5  and  N_6
REMARK    5  A    between atoms: C_15  and  C_16
REMARK    6  A    between atoms: C_16  and  N_17
REMARK    7  A    between atoms: N_17  and  C_18
REMARK    8  A    between atoms: C_18  and  C_19
REMARK                            x       y       z     vdW  Elec       q    Type
REMARK                         _______ _______ _______ _____ _____    ______ ____
ROOT
ATOM      1  C   UNL     1      46.813   5.790  13.398  0.00  0.00    +0.000 A 
ATOM      2  C   UNL     1      45.920   6.708  12.833  0.00  0.00    +0.000 A 
ATOM      3  C   UNL     1      44.746   6.261  12.233  0.00  0.00    +0.000 A 
ATOM      4  C   UNL     1      44.450   4.891  12.191  0.00  0.00    +0.000 A 
ATOM      5  C   UNL     1      45.320   3.983  12.814  0.00  0.00    +0.000 A 
ATOM      6  C   UNL     1      46.492   4.428  13.425  0.00  0.00    +0.000 A 
ENDROOT
BRANCH   1   8
ATOM      7  O   UNL     1      48.992   6.606  13.169  0.00  0.00    +0.000 OA
ATOM      8  C   UNL     1      48.085   6.314  13.944  0.00  0.00    +0.000 C 
ATOM      9  N   UNL     1      48.201   6.391  15.322  0.00  0.00    +0.000 N 
ATOM     10  H   UNL     1      47.404   6.221  15.919  0.00  0.00    +0.000 HD
BRANCH   9  11
ATOM     11  C   UNL     1      49.419   6.927  15.894  0.00  0.00    +0.000 C 
BRANCH  11  12
ATOM     12  C   UNL     1      49.648   6.580  17.380  0.00  0.00    +0.000 C 
BRANCH  12  13
ATOM     13  N   UNL     1      49.362   5.154  17.654  0.00  0.00    +0.000 NA
ATOM     14  C   UNL     1      48.702   4.940  18.962  0.00  0.00    +0.000 C 
ATOM     15  C   UNL     1      49.624   5.178  20.175  0.00  0.00    +0.000 C 
ATOM     16  N   UNL     1      50.798   4.290  20.153  0.00  0.00    +0.000 NA
ATOM     17  C   UNL     1      51.498   4.419  18.862  0.00  0.00    +0.000 C 
ATOM     18  C   UNL     1      50.583   4.322  17.615  0.00  0.00    +0.000 C 
ATOM     19  H   UNL     1      50.457   3.332  20.233  0.00  0.00    +0.000 HD
ENDBRANCH  12  13
ENDBRANCH  11  12
ENDBRANCH   9  11
ENDBRANCH   1   8
BRANCH   4  20
ATOM     20  C   UNL     1      43.228   4.403  11.453  0.00  0.00    +0.000 C 
BRANCH  20  21
ATOM     21  N   UNL     1      43.624   3.466  10.404  0.00  0.00    +0.000 NA
ATOM     22  H   UNL     1      42.818   2.901  10.139  0.00  0.00    +0.000 HD
BRANCH  21  23
ATOM     23  C   UNL     1      44.098   4.175   9.211  0.00  0.00    +0.000 C 
BRANCH  23  24
ATOM     24  C   UNL     1      45.196   3.406   8.503  0.00  0.00    +0.000 A 
ATOM     25  C   UNL     1      45.360   2.041   8.742  0.00  0.00    +0.000 A 
ATOM     26  C   UNL     1      46.367   1.356   8.070  0.00  0.00    +0.000 A 
ATOM     27  C   UNL     1      47.183   2.048   7.184  0.00  0.00    +0.000 A 
ATOM     28  C   UNL     1      46.953   3.401   7.002  0.00  0.00    +0.000 A 
ATOM     29  N   UNL     1      45.981   4.093   7.637  0.00  0.00    +0.000 NA
ENDBRANCH  23  24
ENDBRANCH  21  23
ENDBRANCH  20  21
ENDBRANCH   4  20
TORSDOF 8
ENDMDL
MODEL 3
REMARK VINA RESULT:    -6.925      1.951      3.173
REMARK INTER + INTRA:         -10.975
REMARK INTER:                 -10.016
REMARK INTRA:                  -0.958
REMARK UNBOUND:                -0.811
REMARK  Name = 
REMARK  8 active torsions:
REMARK  status: ('A' for Active; 'I' for Inactive)
REMARK    1  A    between atoms: C_2  and  C_12
REMARK    2  A    between atoms: N_3  and  C_4
REMARK    3  A    between atoms: C_4  and  C_5
REMARK    4  A    between atoms: C_5  and  N_6
REMARK    5  A    between atoms: C_15  and  C_16
REMARK    6  A    between atoms: C_16  and  N_17
REMARK    7  A    between atoms: N_17  and  C_18
REMARK    8  A    between atoms: C_18  and  C_19
REMARK                            x       y       z     vdW  Elec       q    Type
REMARK                         _______ _______ _______ _____ _____    ______ ____
ROOT
ATOM      1  C   UNL     1      47.100   6.072  13.091  0.00  0.00    +0.000 A 
ATOM      2  C   UNL     1      46.155   5.174  13.601  0.00  0.00    +0.000 A 
ATOM      3  C   UNL     1      45.008   4.878  12.869  0.00  0.00    +0.000 A 
ATOM      4  C   UNL     1      44.792   5.476  11.620  0.00  0.00    +0.000 A 
ATOM      5  C   UNL     1      45.773   6.327  11.088  0.00  0.00    +0.000 A 
ATOM      6  C   UNL     1      46.928   6.618  11.815  0.00  0.00    +0.000 A 
ENDROOT
BRANCH   1   8
ATOM      7  O   UNL     1      49.284   6.835  13.428  0.00  0.00    +0.000 OA
ATOM      8  C   UNL     1      48.256   6.415  13.950  0.00  0.00    +0.000 C 
ATOM      9  N   UNL     1      48.127   6.184  15.309  0.00  0.00    +0.000 N 
ATOM     10  H   UNL     1      47.237   5.919  15.708  0.00  0.00    +0.000 HD
BRANCH   9  11
ATOM     11  C   UNL     1      49.224   6.536  16.188  0.00  0.00    +0.000 C 
BRANCH  11  12
ATOM     12  C   UNL     1      48.859   7.511  17.326  0.00  0.00    +0.000 C 
BRANCH  12  13
ATOM     13  N   UNL     1      49.821   8.633  17.408  0.00  0.00    +0.000 NA
ATOM     14  C   UNL     1      49.338   9.744  18.261  0.00  0.00    +0.000 C 
ATOM     15  C   UNL     1      48.174  10.546  17.644  0.00  0.00    +0.000 C 
ATOM     16  N   UNL     1      48.547  11.146  16.353  0.00  0.00    +0.000 NA
ATOM     17  C   UNL     1      49.071  10.105  15.450  0.00  0.00    +0.000 C 
ATOM     18  C   UNL     1      50.151   9.186  16.078  0.00  0.00    +0.000 C 
ATOM     19  H   UNL     1      49.295  11.816  16.532  0.00  0.00    +0.000 HD
ENDBRANCH  12  13
ENDBRANCH  11  12
ENDBRANCH   9  11
ENDBRANCH   1   8
BRANCH   4  20
ATOM     20  C   UNL     1      43.502   5.231  10.876  0.00  0.00    +0.000 C 
BRANCH  20  21
ATOM     21  N   UNL     1      43.790   4.704   9.545  0.00  0.00    +0.000 NA
ATOM     22  H   UNL     1      44.566   5.226   9.139  0.00  0.00    +0.000 HD
BRANCH  21  23
ATOM     23  C   UNL     1      44.172   3.290   9.605  0.00  0.00    +0.000 C 
BRANCH  23  24
ATOM     24  C   UNL     1      45.287   2.969   8.630  0.00  0.00    +0.000 A 
ATOM     25  C   UNL     1      45.818   1.680   8.574  0.00  0.00    +0.000 A 
ATOM     26  C   UNL     1      46.832   1.408   7.663  0.00  0.00    +0.000 A 
ATOM     27  C   UNL     1      47.292   2.425   6.836  0.00  0.00    +0.000 A 
ATOM     28  C   UNL     1      46.711   3.677   6.953  0.00  0.00    +0.000 A 
ATOM     29  N   UNL     1      45.722   3.971   7.827  0.00  0.00    +0.000 NA
ENDBRANCH  23  24
ENDBRANCH  21  23
ENDBRANCH  20  21
ENDBRANCH   4  20
TORSDOF 8
ENDMDL
MODEL 4
REMARK VINA RESULT:    -6.884      1.461      2.018
REMARK INTER + INTRA:         -10.914
REMARK INTER:                 -10.230
REMARK INTRA:                  -0.685
REMARK UNBOUND:                -0.811
REMARK  Name = 
REMARK  8 active torsions:
REMARK  status: ('A' for Active; 'I' for Inactive)
REMARK    1  A    between atoms: C_2  and  C_12
REMARK    2  A    between atoms: N_3  and  C_4
REMARK    3  A    between atoms: C_4  and  C_5
REMARK    4  A    between atoms: C_5  and  N_6
REMARK    5  A    between atoms: C_15  and  C_16
REMARK    6  A    between atoms: C_16  and  N_17
REMARK    7  A    between atoms: N_17  and  C_18
REMARK    8  A    between atoms: C_18  and  C_19
REMARK                            x       y       z     vdW  Elec       q    Type
REMARK                         _______ _______ _______ _____ _____    ______ ____
ROOT
ATOM      1  C   UNL     1      47.353   5.861  13.684  0.00  0.00    +0.000 A 
ATOM      2  C   UNL     1      46.973   6.497  12.497  0.00  0.00    +0.000 A 
ATOM      3  C   UNL     1      46.003   5.924  11.677  0.00  0.00    +0.000 A 
ATOM      4  C   UNL     1      45.404   4.708  12.035  0.00  0.00    +0.000 A 
ATOM      5  C   UNL     1      45.746   4.108  13.256  0.00  0.00    +0.000 A 
ATOM      6  C   UNL     1      46.709   4.685  14.085  0.00  0.00    +0.000 A 
ENDROOT
BRANCH   1   8
ATOM      7  O   UNL     1      49.436   6.903  13.884  0.00  0.00    +0.000 OA
ATOM      8  C   UNL     1      48.449   6.470  14.471  0.00  0.00    +0.000 C 
ATOM      9  N   UNL     1      48.319   6.464  15.849  0.00  0.00    +0.000 N 
ATOM     10  H   UNL     1      47.456   6.176  16.288  0.00  0.00    +0.000 HD
BRANCH   9  11
ATOM     11  C   UNL     1      49.355   7.079  16.654  0.00  0.00    +0.000 C 
BRANCH  11  12
ATOM     12  C   UNL     1      49.130   7.000  18.178  0.00  0.00    +0.000 C 
BRANCH  12  13
ATOM     13  N   UNL     1      47.694   7.104  18.520  0.00  0.00    +0.000 NA
ATOM     14  C   UNL     1      47.348   8.391  19.166  0.00  0.00    +0.000 C 
ATOM     15  C   UNL     1      47.888   8.534  20.603  0.00  0.00    +0.000 C 
ATOM     16  N   UNL     1      47.378   7.475  21.489  0.00  0.00    +0.000 NA
ATOM     17  C   UNL     1      47.655   6.153  20.898  0.00  0.00    +0.000 C 
ATOM     18  C   UNL     1      47.249   6.010  19.409  0.00  0.00    +0.000 C 
ATOM     19  H   UNL     1      46.365   7.589  21.549  0.00  0.00    +0.000 HD
ENDBRANCH  12  13
ENDBRANCH  11  12
ENDBRANCH   9  11
ENDBRANCH   1   8
BRANCH   4  20
ATOM     20  C   UNL     1      44.429   4.041  11.096  0.00  0.00    +0.000 C 
BRANCH  20  21
ATOM     21  N   UNL     1      44.909   2.705  10.751  0.00  0.00    +0.000 NA
ATOM     22  H   UNL     1      44.560   2.036  11.437  0.00  0.00    +0.000 HD
BRANCH  21  23
ATOM     23  C   UNL     1      44.429   2.295   9.428  0.00  0.00    +0.000 C 
BRANCH  23  24
ATOM     24  C   UNL     1      45.551   2.270   8.408  0.00  0.00    +0.000 A 
ATOM     25  C   UNL     1      45.863   3.420   7.684  0.00  0.00    +0.000 A 
ATOM     26  C   UNL     1      46.904   3.376   6.763  0.00  0.00    +0.000 A 
ATOM     27  C   UNL     1      47.602   2.187   6.586  0.00  0.00    +0.000 A 
ATOM     28  C   UNL     1      47.231   1.090   7.345  0.00  0.00    +0.000 A 
ATOM     29  N   UNL     1      46.226   1.105   8.250  0.00  0.00    +0.000 NA
ENDBRANCH  23  24
ENDBRANCH  21  23
ENDBRANCH  20  21
ENDBRANCH   4  20
TORSDOF 8
ENDMDL
MODEL 5
REMARK VINA RESULT:    -6.399      2.159      2.689
REMARK INTER + INTRA:         -10.202
REMARK INTER:                  -9.468
REMARK INTRA:                  -0.734
REMARK UNBOUND:                -0.811
REMARK  Name = 
REMARK  8 active torsions:
REMARK  status: ('A' for Active; 'I' for Inactive)
REMARK    1  A    between atoms: C_2  and  C_12
REMARK    2  A    between atoms: N_3  and  C_4
REMARK    3  A    between atoms: C_4  and  C_5
REMARK    4  A    between atoms: C_5  and  N_6
REMARK    5  A    between atoms: C_15  and  C_16
REMARK    6  A    between atoms: C_16  and  N_17
REMARK    7  A    between atoms: N_17  and  C_18
REMARK    8  A    between atoms: C_18  and  C_19
REMARK                            x       y       z     vdW  Elec       q    Type
REMARK                         _______ _______ _______ _____ _____    ______ ____
ROOT
ATOM      1  C   UNL     1      47.653   5.700  14.558  0.00  0.00    +0.000 A 
ATOM      2  C   UNL     1      46.826   4.617  14.235  0.00  0.00    +0.000 A 
ATOM      3  C   UNL     1      46.122   4.611  13.033  0.00  0.00    +0.000 A 
ATOM      4  C   UNL     1      46.236   5.687  12.142  0.00  0.00    +0.000 A 
ATOM      5  C   UNL     1      47.114   6.738  12.444  0.00  0.00    +0.000 A 
ATOM      6  C   UNL     1      47.829   6.743  13.643  0.00  0.00    +0.000 A 
ENDROOT
BRANCH   1   8
ATOM      7  O   UNL     1      47.711   5.210  16.843  0.00  0.00    +0.000 OA
ATOM      8  C   UNL     1      48.308   5.693  15.885  0.00  0.00    +0.000 C 
ATOM      9  N   UNL     1      49.552   6.294  15.982  0.00  0.00    +0.000 N 
ATOM     10  H   UNL     1      50.043   6.603  15.156  0.00  0.00    +0.000 HD
BRANCH   9  11
ATOM     11  C   UNL     1      50.240   6.280  17.257  0.00  0.00    +0.000 C 
BRANCH  11  12
ATOM     12  C   UNL     1      51.372   5.239  17.375  0.00  0.00    +0.000 C 
BRANCH  12  13
ATOM     13  N   UNL     1      51.144   4.316  18.510  0.00  0.00    +0.000 NA
ATOM     14  C   UNL     1      52.357   3.551  18.881  0.00  0.00    +0.000 C 
ATOM     15  C   UNL     1      52.759   2.477  17.851  0.00  0.00    +0.000 C 
ATOM     16  N   UNL     1      51.690   1.486  17.646  0.00  0.00    +0.000 NA
ATOM     17  C   UNL     1      50.432   2.172  17.301  0.00  0.00    +0.000 C 
ATOM     18  C   UNL     1      50.059   3.351  18.237  0.00  0.00    +0.000 C 
ATOM     19  H   UNL     1      51.553   0.999  18.532  0.00  0.00    +0.000 HD
ENDBRANCH  12  13
ENDBRANCH  11  12
ENDBRANCH   9  11
ENDBRANCH   1   8
BRANCH   4  20
ATOM     20  C   UNL     1      45.395   5.723  10.889  0.00  0.00    +0.000 C 
BRANCH  20  21
ATOM     21  N   UNL     1      44.611   4.495  10.783  0.00  0.00    +0.000 NA
ATOM     22  H   UNL     1      43.783   4.574  11.374  0.00  0.00    +0.000 HD
BRANCH  21  23
ATOM     23  C   UNL     1      44.168   4.266   9.404  0.00  0.00    +0.000 C 
BRANCH  23  24
ATOM     24  C   UNL     1      45.207   3.509   8.600  0.00  0.00    +0.000 A 
ATOM     25  C   UNL     1      45.398   2.145   8.814  0.00  0.00    +0.000 A 
ATOM     26  C   UNL     1      46.349   1.470   8.056  0.00  0.00    +0.000 A 
ATOM     27  C   UNL     1      47.084   2.173   7.109  0.00  0.00    +0.000 A 
ATOM     28  C   UNL     1      46.832   3.527   6.958  0.00  0.00    +0.000 A 
ATOM     29  N   UNL     1      45.913   4.208   7.677  0.00  0.00    +0.000 NA
ENDBRANCH  23  24
ENDBRANCH  21  23
ENDBRANCH  20  21
ENDBRANCH   4  20
TORSDOF 8
ENDMDL
MODEL 6
REMARK VINA RESULT:    -6.276      1.925      2.858
REMARK INTER + INTRA:         -10.022
REMARK INTER:                  -9.384
REMARK INTRA:                  -0.638
REMARK UNBOUND:                -0.811
REMARK  Name = 
REMARK  8 active torsions:
REMARK  status: ('A' for Active; 'I' for Inactive)
REMARK    1  A    between atoms: C_2  and  C_12
REMARK    2  A    between atoms: N_3  and  C_4
REMARK    3  A    between atoms: C_4  and  C_5
REMARK    4  A    between atoms: C_5  and  N_6
REMARK    5  A    between atoms: C_15  and  C_16
REMARK    6  A    between atoms: C_16  and  N_17
REMARK    7  A    between atoms: N_17  and  C_18
REMARK    8  A    between atoms: C_18  and  C_19
REMARK                            x       y       z     vdW  Elec       q    Type
REMARK                         _______ _______ _______ _____ _____    ______ ____
ROOT
ATOM      1  C   UNL     1      47.635   5.419  14.889  0.00  0.00    +0.000 A 
ATOM      2  C   UNL     1      46.785   4.396  14.454  0.00  0.00    +0.000 A 
ATOM      3  C   UNL     1      46.170   4.484  13.207  0.00  0.00    +0.000 A 
ATOM      4  C   UNL     1      46.397   5.595  12.383  0.00  0.00    +0.000 A 
ATOM      5  C   UNL     1      47.298   6.586  12.801  0.00  0.00    +0.000 A 
ATOM      6  C   UNL     1      47.924   6.496  14.045  0.00  0.00    +0.000 A 
ENDROOT
BRANCH   1   8
ATOM      7  O   UNL     1      49.402   5.436  16.420  0.00  0.00    +0.000 OA
ATOM      8  C   UNL     1      48.191   5.315  16.257  0.00  0.00    +0.000 C 
ATOM      9  N   UNL     1      47.306   5.024  17.282  0.00  0.00    +0.000 N 
ATOM     10  H   UNL     1      46.310   5.015  17.119  0.00  0.00    +0.000 HD
BRANCH   9  11
ATOM     11  C   UNL     1      47.807   4.944  18.639  0.00  0.00    +0.000 C 
BRANCH  11  12
ATOM     12  C   UNL     1      47.298   6.050  19.587  0.00  0.00    +0.000 C 
BRANCH  12  13
ATOM     13  N   UNL     1      47.831   5.879  20.957  0.00  0.00    +0.000 NA
ATOM     14  C   UNL     1      47.461   6.992  21.861  0.00  0.00    +0.000 C 
ATOM     15  C   UNL     1      48.183   8.318  21.550  0.00  0.00    +0.000 C 
ATOM     16  N   UNL     1      49.646   8.179  21.639  0.00  0.00    +0.000 NA
ATOM     17  C   UNL     1      50.096   7.063  20.786  0.00  0.00    +0.000 C 
ATOM     18  C   UNL     1      49.302   5.744  20.972  0.00  0.00    +0.000 C 
ATOM     19  H   UNL     1      49.872   7.948  22.607  0.00  0.00    +0.000 HD
ENDBRANCH  12  13
ENDBRANCH  11  12
ENDBRANCH   9  11
ENDBRANCH   1   8
BRANCH   4  20
ATOM     20  C   UNL     1      45.651   5.734  11.079  0.00  0.00    +0.000 C 
BRANCH  20  21
ATOM     21  N   UNL     1      44.588   4.734  11.006  0.00  0.00    +0.000 NA
ATOM     22  H   UNL     1      43.798   5.045  11.570  0.00  0.00    +0.000 HD
BRANCH  21  23
ATOM     23  C   UNL     1      44.123   4.554   9.628  0.00  0.00    +0.000 C 
BRANCH  23  24
ATOM     24  C   UNL     1      45.085   3.707   8.818  0.00  0.00    +0.000 A 
ATOM     25  C   UNL     1      45.182   2.337   9.057  0.00  0.00    +0.000 A 
ATOM     26  C   UNL     1      46.064   1.580   8.293  0.00  0.00    +0.000 A 
ATOM     27  C   UNL     1      46.826   2.208   7.316  0.00  0.00    +0.000 A 
ATOM     28  C   UNL     1      46.669   3.573   7.140  0.00  0.00    +0.000 A 
ATOM     29  N   UNL     1      45.819   4.334   7.865  0.00  0.00    +0.000 NA
ENDBRANCH  23  24
ENDBRANCH  21  23
ENDBRANCH  20  21
ENDBRANCH   4  20
TORSDOF 8
ENDMDL
MODEL 7
REMARK VINA RESULT:    -6.140      2.912      9.739
REMARK INTER + INTRA:          -9.822
REMARK INTER:                  -8.728
REMARK INTRA:                  -1.094
REMARK UNBOUND:                -0.811
REMARK  Name = 
REMARK  8 active torsions:
REMARK  status: ('A' for Active; 'I' for Inactive)
REMARK    1  A    between atoms: C_2  and  C_12
REMARK    2  A    between atoms: N_3  and  C_4
REMARK    3  A    between atoms: C_4  and  C_5
REMARK    4  A    between atoms: C_5  and  N_6
REMARK    5  A    between atoms: C_15  and  C_16
REMARK    6  A    between atoms: C_16  and  N_17
REMARK    7  A    between atoms: N_17  and  C_18
REMARK    8  A    between atoms: C_18  and  C_19
REMARK                            x       y       z     vdW  Elec       q    Type
REMARK                         _______ _______ _______ _____ _____    ______ ____
ROOT
ATOM      1  C   UNL     1      48.102   4.707  17.208  0.00  0.00    +0.000 A 
ATOM      2  C   UNL     1      48.167   3.693  18.172  0.00  0.00    +0.000 A 
ATOM      3  C   UNL     1      48.657   3.972  19.445  0.00  0.00    +0.000 A 
ATOM      4  C   UNL     1      49.089   5.265  19.769  0.00  0.00    +0.000 A 
ATOM      5  C   UNL     1      48.963   6.289  18.818  0.00  0.00    +0.000 A 
ATOM      6  C   UNL     1      48.462   6.016  17.544  0.00  0.00    +0.000 A 
ENDROOT
BRANCH   1   8
ATOM      7  O   UNL     1      47.675   3.153  15.514  0.00  0.00    +0.000 OA
ATOM      8  C   UNL     1      47.654   4.334  15.848  0.00  0.00    +0.000 C 
ATOM      9  N   UNL     1      47.287   5.363  14.997  0.00  0.00    +0.000 N 
ATOM     10  H   UNL     1      47.203   6.311  15.335  0.00  0.00    +0.000 HD
BRANCH   9  11
ATOM     11  C   UNL     1      46.813   5.038  13.666  0.00  0.00    +0.000 C 
BRANCH  11  12
ATOM     12  C   UNL     1      45.418   5.597  13.317  0.00  0.00    +0.000 C 
BRANCH  12  13
ATOM     13  N   UNL     1      44.474   4.515  12.961  0.00  0.00    +0.000 NA
ATOM     14  C   UNL     1      44.831   3.834  11.695  0.00  0.00    +0.000 C 
ATOM     15  C   UNL     1      44.606   4.695  10.436  0.00  0.00    +0.000 C 
ATOM     16  N   UNL     1      43.201   5.111  10.301  0.00  0.00    +0.000 NA
ATOM     17  C   UNL     1      42.754   5.774  11.539  0.00  0.00    +0.000 C 
ATOM     18  C   UNL     1      43.084   5.003  12.843  0.00  0.00    +0.000 C 
ATOM     19  H   UNL     1      42.643   4.266  10.175  0.00  0.00    +0.000 HD
ENDBRANCH  12  13
ENDBRANCH  11  12
ENDBRANCH   9  11
ENDBRANCH   1   8
BRANCH   4  20
ATOM     20  C   UNL     1      49.713   5.539  21.116  0.00  0.00    +0.000 C 
BRANCH  20  21
ATOM     21  N   UNL     1      50.830   4.625  21.340  0.00  0.00    +0.000 NA
ATOM     22  H   UNL     1      50.595   3.709  20.957  0.00  0.00    +0.000 HD
BRANCH  21  23
ATOM     23  C   UNL     1      52.046   5.100  20.673  0.00  0.00    +0.000 C 
BRANCH  23  24
ATOM     24  C   UNL     1      52.678   4.016  19.821  0.00  0.00    +0.000 A 
ATOM     25  C   UNL     1      52.177   3.747  18.548  0.00  0.00    +0.000 A 
ATOM     26  C   UNL     1      52.781   2.756  17.781  0.00  0.00    +0.000 A 
ATOM     27  C   UNL     1      53.864   2.060  18.305  0.00  0.00    +0.000 A 
ATOM     28  C   UNL     1      54.301   2.389  19.577  0.00  0.00    +0.000 A 
ATOM     29  N   UNL     1      53.737   3.349  20.344  0.00  0.00    +0.000 NA
ENDBRANCH  23  24
ENDBRANCH  21  23
ENDBRANCH  20  21
ENDBRANCH   4  20
TORSDOF 8
ENDMDL
MODEL 8
REMARK VINA RESULT:    -6.125      3.104      4.958
REMARK INTER + INTRA:          -9.800
REMARK INTER:                  -9.138
REMARK INTRA:                  -0.662
REMARK UNBOUND:                -0.811
REMARK  Name = 
REMARK  8 active torsions:
REMARK  status: ('A' for Active; 'I' for Inactive)
REMARK    1  A    between atoms: C_2  and  C_12
REMARK    2  A    between atoms: N_3  and  C_4
REMARK    3  A    between atoms: C_4  and  C_5
REMARK    4  A    between atoms: C_5  and  N_6
REMARK    5  A    between atoms: C_15  and  C_16
REMARK    6  A    between atoms: C_16  and  N_17
REMARK    7  A    between atoms: N_17  and  C_18
REMARK    8  A    between atoms: C_18  and  C_19
REMARK                            x       y       z     vdW  Elec       q    Type
REMARK                         _______ _______ _______ _____ _____    ______ ____
ROOT
ATOM      1  C   UNL     1      46.821   6.959  12.947  0.00  0.00    +0.000 A 
ATOM      2  C   UNL     1      46.722   5.564  13.000  0.00  0.00    +0.000 A 
ATOM      3  C   UNL     1      45.741   4.906  12.262  0.00  0.00    +0.000 A 
ATOM      4  C   UNL     1      44.848   5.634  11.464  0.00  0.00    +0.000 A 
ATOM      5  C   UNL     1      44.994   7.026  11.367  0.00  0.00    +0.000 A 
ATOM      6  C   UNL     1      45.981   7.689  12.097  0.00  0.00    +0.000 A 
ENDROOT
BRANCH   1   8
ATOM      7  O   UNL     1      48.931   7.095  13.945  0.00  0.00    +0.000 OA
ATOM      8  C   UNL     1      47.824   7.611  13.818  0.00  0.00    +0.000 C 
ATOM      9  N   UNL     1      47.430   8.753  14.495  0.00  0.00    +0.000 N 
ATOM     10  H   UNL     1      46.542   9.192  14.299  0.00  0.00    +0.000 HD
BRANCH   9  11
ATOM     11  C   UNL     1      48.393   9.438  15.334  0.00  0.00    +0.000 C 
BRANCH  11  12
ATOM     12  C   UNL     1      49.191  10.555  14.629  0.00  0.00    +0.000 C 
BRANCH  12  13
ATOM     13  N   UNL     1      49.025  10.496  13.160  0.00  0.00    +0.000 NA
ATOM     14  C   UNL     1      50.280  10.147  12.453  0.00  0.00    +0.000 C 
ATOM     15  C   UNL     1      51.340  11.266  12.472  0.00  0.00    +0.000 C 
ATOM     16  N   UNL     1      50.842  12.503  11.848  0.00  0.00    +0.000 NA
ATOM     17  C   UNL     1      49.571  12.904  12.477  0.00  0.00    +0.000 C 
ATOM     18  C   UNL     1      48.523  11.768  12.602  0.00  0.00    +0.000 C 
ATOM     19  H   UNL     1      50.658  12.297  10.866  0.00  0.00    +0.000 HD
ENDBRANCH  12  13
ENDBRANCH  11  12
ENDBRANCH   9  11
ENDBRANCH   1   8
BRANCH   4  20
ATOM     20  C   UNL     1      43.725   4.926  10.746  0.00  0.00    +0.000 C 
BRANCH  20  21
ATOM     21  N   UNL     1      44.183   4.472   9.436  0.00  0.00    +0.000 NA
ATOM     22  H   UNL     1      45.090   4.892   9.234  0.00  0.00    +0.000 HD
BRANCH  21  23
ATOM     23  C   UNL     1      44.336   3.014   9.403  0.00  0.00    +0.000 C 
BRANCH  23  24
ATOM     24  C   UNL     1      45.471   2.591   8.492  0.00  0.00    +0.000 A 
ATOM     25  C   UNL     1      46.092   3.528   7.667  0.00  0.00    +0.000 A 
ATOM     26  C   UNL     1      47.140   3.117   6.849  0.00  0.00    +0.000 A 
ATOM     27  C   UNL     1      47.536   1.785   6.874  0.00  0.00    +0.000 A 
ATOM     28  C   UNL     1      46.869   0.919   7.723  0.00  0.00    +0.000 A 
ATOM     29  N   UNL     1      45.850   1.289   8.531  0.00  0.00    +0.000 NA
ENDBRANCH  23  24
ENDBRANCH  21  23
ENDBRANCH  20  21
ENDBRANCH   4  20
TORSDOF 8
ENDMDL
MODEL 9
REMARK VINA RESULT:    -6.114      3.436      4.384
REMARK INTER + INTRA:          -9.785
REMARK INTER:                  -9.039
REMARK INTRA:                  -0.745
REMARK UNBOUND:                -0.811
REMARK  Name = 
REMARK  8 active torsions:
REMARK  status: ('A' for Active; 'I' for Inactive)
REMARK    1  A    between atoms: C_2  and  C_12
REMARK    2  A    between atoms: N_3  and  C_4
REMARK    3  A    between atoms: C_4  and  C_5
REMARK    4  A    between atoms: C_5  and  N_6
REMARK    5  A    between atoms: C_15  and  C_16
REMARK    6  A    between atoms: C_16  and  N_17
REMARK    7  A    between atoms: N_17  and  C_18
REMARK    8  A    between atoms: C_18  and  C_19
REMARK                            x       y       z     vdW  Elec       q    Type
REMARK                         _______ _______ _______ _____ _____    ______ ____
ROOT
ATOM      1  C   UNL     1      45.626   6.896  12.478  0.00  0.00    +0.000 A 
ATOM      2  C   UNL     1      46.211   5.648  12.724  0.00  0.00    +0.000 A 
ATOM      3  C   UNL     1      45.570   4.484  12.309  0.00  0.00    +0.000 A 
ATOM      4  C   UNL     1      44.338   4.553  11.644  0.00  0.00    +0.000 A 
ATOM      5  C   UNL     1      43.789   5.810  11.347  0.00  0.00    +0.000 A 
ATOM      6  C   UNL     1      44.433   6.979  11.752  0.00  0.00    +0.000 A 
ENDROOT
BRANCH   1   8
ATOM      7  O   UNL     1      45.980   9.203  12.610  0.00  0.00    +0.000 OA
ATOM      8  C   UNL     1      46.309   8.094  13.018  0.00  0.00    +0.000 C 
ATOM      9  N   UNL     1      47.335   7.884  13.924  0.00  0.00    +0.000 N 
ATOM     10  H   UNL     1      47.517   6.964  14.297  0.00  0.00    +0.000 HD
BRANCH   9  11
ATOM     11  C   UNL     1      48.007   9.032  14.500  0.00  0.00    +0.000 C 
BRANCH  11  12
ATOM     12  C   UNL     1      49.321   9.435  13.799  0.00  0.00    +0.000 C 
BRANCH  12  13
ATOM     13  N   UNL     1      50.175   8.256  13.528  0.00  0.00    +0.000 NA
ATOM     14  C   UNL     1      51.401   8.231  14.359  0.00  0.00    +0.000 C 
ATOM     15  C   UNL     1      52.441   9.302  13.973  0.00  0.00    +0.000 C 
ATOM     16  N   UNL     1      52.882   9.158  12.576  0.00  0.00    +0.000 NA
ATOM     17  C   UNL     1      51.712   9.142  11.680  0.00  0.00    +0.000 C 
ATOM     18  C   UNL     1      50.580   8.174  12.110  0.00  0.00    +0.000 C 
ATOM     19  H   UNL     1      53.354   8.256  12.496  0.00  0.00    +0.000 HD
ENDBRANCH  12  13
ENDBRANCH  11  12
ENDBRANCH   9  11
ENDBRANCH   1   8
BRANCH   4  20
ATOM     20  C   UNL     1      43.599   3.287  11.286  0.00  0.00    +0.000 C 
BRANCH  20  21
ATOM     21  N   UNL     1      44.369   2.523  10.308  0.00  0.00    +0.000 NA
ATOM     22  H   UNL     1      43.933   1.611  10.177  0.00  0.00    +0.000 HD
BRANCH  21  23
ATOM     23  C   UNL     1      44.402   3.204   9.010  0.00  0.00    +0.000 C 
BRANCH  23  24
ATOM     24  C   UNL     1      45.621   2.807   8.200  0.00  0.00    +0.000 A 
ATOM     25  C   UNL     1      46.068   1.485   8.212  0.00  0.00    +0.000 A 
ATOM     26  C   UNL     1      47.180   1.143   7.451  0.00  0.00    +0.000 A 
ATOM     27  C   UNL     1      47.818   2.125   6.703  0.00  0.00    +0.000 A 
ATOM     28  C   UNL     1      47.310   3.413   6.744  0.00  0.00    +0.000 A 
ATOM     29  N   UNL     1      46.229   3.775   7.471  0.00  0.00    +0.000 NA
ENDBRANCH  23  24
ENDBRANCH  21  23
ENDBRANCH  20  21
ENDBRANCH   4  20
TORSDOF 8
ENDMDL
