MODEL 1
REMARK VINA RESULT:    -7.722      0.000      0.000
REMARK INTER + INTRA:         -11.435
REMARK INTER:                 -10.431
REMARK INTRA:                  -1.004
REMARK UNBOUND:                -1.004
REMARK  Name = 
REMARK  6 active torsions:
REMARK  status: ('A' for Active; 'I' for Inactive)
REMARK    1  A    between atoms: C_2  and  C_25
REMARK    2  A    between atoms: N_3  and  C_4
REMARK    3  A    between atoms: C_4  and  C_5
REMARK    4  A    between atoms: C_8  and  C_9
REMARK    5  A    between atoms: C_9  and  N_10
REMARK    6  A    between atoms: C_11  and  C_13
REMARK                            x       y       z     vdW  Elec       q    Type
REMARK                         _______ _______ _______ _____ _____    ______ ____
ROOT
ATOM      1  C   UNL     1      45.224   3.854  12.414  0.00  0.00    +0.000 A 
ATOM      2  C   UNL     1      45.105   5.224  12.517  0.00  0.00    +0.000 A 
ATOM      3  N   UNL     1      45.898   5.991  13.290  0.00  0.00    +0.000 NA
ATOM      4  C   UNL     1      46.864   5.357  13.986  0.00  0.00    +0.000 A 
ATOM      5  N   UNL     1      47.050   4.020  13.975  0.00  0.00    +0.000 NA
ATOM      6  C   UNL     1      46.226   3.301  13.182  0.00  0.00    +0.000 A 
ENDROOT
BRANCH   1   7
ATOM      7  C   UNL     1      44.342   3.042  11.529  0.00  0.00    +0.000 C 
BRANCH   7  10
ATOM      8  O   UNL     1      44.435   4.186   8.981  0.00  0.00    +0.000 OA
ATOM      9  C   UNL     1      45.045   3.142   9.181  0.00  0.00    +0.000 C 
ATOM     10  N   UNL     1      45.048   2.486  10.400  0.00  0.00    +0.000 N 
ATOM     11  H   UNL     1      45.602   1.641  10.475  0.00  0.00    +0.000 HD
BRANCH   9  12
ATOM     12  C   UNL     1      45.848   2.497   8.103  0.00  0.00    +0.000 A 
ATOM     13  C   UNL     1      46.168   3.221   6.963  0.00  0.00    +0.000 A 
ATOM     14  N   UNL     1      46.903   2.690   5.953  0.00  0.00    +0.000 NA
ATOM     15  C   UNL     1      47.296   1.409   6.138  0.00  0.00    +0.000 A 
ATOM     16  C   UNL     1      46.971   0.687   7.281  0.00  0.00    +0.000 A 
ATOM     17  N   UNL     1      46.241   1.207   8.295  0.00  0.00    +0.000 NA
ENDBRANCH   9  12
ENDBRANCH   7  10
ENDBRANCH   1   7
BRANCH   4  18
ATOM     18  C   UNL     1      47.809   6.212  14.800  0.00  0.00    +0.000 C 
BRANCH  18  19
ATOM     19  N   UNL     1      48.776   5.459  15.575  0.00  0.00    +0.000 N 
ATOM     20  C   UNL     1      49.033   5.799  16.877  0.00  0.00    +0.000 C 
ATOM     21  O   UNL     1      48.444   6.729  17.424  0.00  0.00    +0.000 OA
ATOM     22  H   UNL     1      49.070   4.558  15.207  0.00  0.00    +0.000 HD
BRANCH  20  23
ATOM     23  C   UNL     1      50.100   5.063  17.569  0.00  0.00    +0.000 A 
ATOM     24  C   UNL     1      51.023   5.749  18.350  0.00  0.00    +0.000 A 
ATOM     25  S   UNL     1      52.348   4.790  18.835  0.00  0.00    +0.000 S 
ATOM     26  C   UNL     1      51.705   3.420  18.058  0.00  0.00    +0.000 A 
ATOM     27  N   UNL     1      52.401   2.253  17.988  0.00  0.00    +0.000 NA
ATOM     28  C   UNL     1      51.767   1.291  17.403  0.00  0.00    +0.000 A 
ATOM     29  N   UNL     1      50.485   1.374  16.926  0.00  0.00    +0.000 N 
ATOM     30  C   UNL     1      49.734   2.521  17.011  0.00  0.00    +0.000 A 
ATOM     31  O   UNL     1      48.551   2.539  16.682  0.00  0.00    +0.000 OA
ATOM     32  C   UNL     1      50.443   3.664  17.546  0.00  0.00    +0.000 A 
ATOM     33  H   UNL     1      50.017   0.562  16.553  0.00  0.00    +0.000 HD
ENDBRANCH  20  23
ENDBRANCH  18  19
ENDBRANCH   4  18
TORSDOF 6
ENDMDL
MODEL 2
REMARK VINA RESULT:    -7.702      2.265      2.633
REMARK INTER + INTRA:         -11.409
REMARK INTER:                 -10.573
REMARK INTRA:                  -0.836
REMARK UNBOUND:                -1.004
REMARK  Name = 
REMARK  6 active torsions:
REMARK  status: ('A' for Active; 'I' for Inactive)
REMARK    1  A    between atoms: C_2  and  C_25
REMARK    2  A    between atoms: N_3  and  C_4
REMARK    3  A    between atoms: C_4  and  C_5
REMARK    4  A    between atoms: C_8  and  C_9
REMARK    5  A    between atoms: C_9  and  N_10
REMARK    6  A    between atoms: C_11  and  C_13
REMARK                            x       y       z     vdW  Elec       q    Type
REMARK                         _______ _______ _______ _____ _____    ______ ____
ROOT
ATOM      1  C   UNL     1      45.555   4.371  12.183  0.00  0.00    +0.000 A 
ATOM      2  C   UNL     1      45.766   5.681  11.810  0.00  0.00    +0.000 A 
ATOM      3  N   UNL     1      46.629   6.509  12.430  0.00  0.00    +0.000 NA
ATOM      4  C   UNL     1      47.322   5.998  13.467  0.00  0.00    +0.000 A 
ATOM      5  N   UNL     1      47.173   4.739  13.929  0.00  0.00    +0.000 NA
ATOM      6  C   UNL     1      46.295   3.953  13.269  0.00  0.00    +0.000 A 
ENDROOT
BRANCH   1   7
ATOM      7  C   UNL     1      44.609   3.478  11.457  0.00  0.00    +0.000 C 
BRANCH   7  10
ATOM      8  O   UNL     1      44.604   4.301   8.787  0.00  0.00    +0.000 OA
ATOM      9  C   UNL     1      45.192   3.267   9.085  0.00  0.00    +0.000 C 
ATOM     10  N   UNL     1      45.239   2.764  10.373  0.00  0.00    +0.000 N 
ATOM     11  H   UNL     1      45.770   1.915  10.525  0.00  0.00    +0.000 HD
BRANCH   9  12
ATOM     12  C   UNL     1      45.919   2.468   8.057  0.00  0.00    +0.000 A 
ATOM     13  C   UNL     1      46.250   3.055   6.843  0.00  0.00    +0.000 A 
ATOM     14  N   UNL     1      46.918   2.380   5.874  0.00  0.00    +0.000 NA
ATOM     15  C   UNL     1      47.234   1.099   6.176  0.00  0.00    +0.000 A 
ATOM     16  C   UNL     1      46.899   0.516   7.392  0.00  0.00    +0.000 A 
ATOM     17  N   UNL     1      46.235   1.180   8.366  0.00  0.00    +0.000 NA
ENDBRANCH   9  12
ENDBRANCH   7  10
ENDBRANCH   1   7
BRANCH   4  18
ATOM     18  C   UNL     1      48.349   6.893  14.126  0.00  0.00    +0.000 C 
BRANCH  18  19
ATOM     19  N   UNL     1      48.107   7.139  15.535  0.00  0.00    +0.000 N 
ATOM     20  C   UNL     1      48.970   6.649  16.480  0.00  0.00    +0.000 C 
ATOM     21  O   UNL     1      49.971   6.011  16.162  0.00  0.00    +0.000 OA
ATOM     22  H   UNL     1      47.432   7.861  15.774  0.00  0.00    +0.000 HD
BRANCH  20  23
ATOM     23  C   UNL     1      48.607   6.843  17.890  0.00  0.00    +0.000 A 
ATOM     24  C   UNL     1      48.392   8.125  18.381  0.00  0.00    +0.000 A 
ATOM     25  S   UNL     1      48.269   8.189  20.083  0.00  0.00    +0.000 S 
ATOM     26  C   UNL     1      48.452   6.502  20.209  0.00  0.00    +0.000 A 
ATOM     27  N   UNL     1      48.549   5.889  21.419  0.00  0.00    +0.000 NA
ATOM     28  C   UNL     1      48.643   4.602  21.356  0.00  0.00    +0.000 A 
ATOM     29  N   UNL     1      48.600   3.870  20.198  0.00  0.00    +0.000 N 
ATOM     30  C   UNL     1      48.465   4.446  18.959  0.00  0.00    +0.000 A 
ATOM     31  O   UNL     1      48.313   3.766  17.949  0.00  0.00    +0.000 OA
ATOM     32  C   UNL     1      48.481   5.894  18.967  0.00  0.00    +0.000 A 
ATOM     33  H   UNL     1      48.597   2.861  20.223  0.00  0.00    +0.000 HD
ENDBRANCH  20  23
ENDBRANCH  18  19
ENDBRANCH   4  18
TORSDOF 6
ENDMDL
MODEL 3
REMARK VINA RESULT:    -7.664      2.316      2.581
REMARK INTER + INTRA:         -11.356
REMARK INTER:                 -10.361
REMARK INTRA:                  -0.995
REMARK UNBOUND:                -1.004
REMARK  Name = 
REMARK  6 active torsions:
REMARK  status: ('A' for Active; 'I' for Inactive)
REMARK    1  A    between atoms: C_2  and  C_25
REMARK    2  A    between atoms: N_3  and  C_4
REMARK    3  A    between atoms: C_4  and  C_5
REMARK    4  A    between atoms: C_8  and  C_9
REMARK    5  A    between atoms: C_9  and  N_10
REMARK    6  A    between atoms: C_11  and  C_13
REMARK                            x       y       z     vdW  Elec       q    Type
REMARK                         _______ _______ _______ _____ _____    ______ ____
ROOT
ATOM      1  C   UNL     1      45.115   6.068  11.034  0.00  0.00    +0.000 A 
ATOM      2  C   UNL     1      46.487   6.144  10.918  0.00  0.00    +0.000 A 
ATOM      3  N   UNL     1      47.267   6.905  11.710  0.00  0.00    +0.000 NA
ATOM      4  C   UNL     1      46.646   7.618  12.671  0.00  0.00    +0.000 A 
ATOM      5  N   UNL     1      45.308   7.635  12.853  0.00  0.00    +0.000 NA
ATOM      6  C   UNL     1      44.576   6.853  12.031  0.00  0.00    +0.000 A 
ENDROOT
BRANCH   1   7
ATOM      7  C   UNL     1      44.288   5.196  10.155  0.00  0.00    +0.000 C 
BRANCH   7  10
ATOM      8  O   UNL     1      44.325   2.415   9.889  0.00  0.00    +0.000 OA
ATOM      9  C   UNL     1      45.012   3.089   9.130  0.00  0.00    +0.000 C 
ATOM     10  N   UNL     1      45.078   4.470   9.190  0.00  0.00    +0.000 N 
ATOM     11  H   UNL     1      45.655   4.941   8.503  0.00  0.00    +0.000 HD
BRANCH   9  12
ATOM     12  C   UNL     1      45.834   2.453   8.061  0.00  0.00    +0.000 A 
ATOM     13  C   UNL     1      46.138   3.172   6.913  0.00  0.00    +0.000 A 
ATOM     14  N   UNL     1      46.890   2.648   5.911  0.00  0.00    +0.000 NA
ATOM     15  C   UNL     1      47.316   1.380   6.112  0.00  0.00    +0.000 A 
ATOM     16  C   UNL     1      47.008   0.664   7.263  0.00  0.00    +0.000 A 
ATOM     17  N   UNL     1      46.261   1.177   8.269  0.00  0.00    +0.000 NA
ENDBRANCH   9  12
ENDBRANCH   7  10
ENDBRANCH   1   7
BRANCH   4  18
ATOM     18  C   UNL     1      47.514   8.419  13.615  0.00  0.00    +0.000 C 
BRANCH  18  19
ATOM     19  N   UNL     1      47.693   7.812  14.919  0.00  0.00    +0.000 N 
ATOM     20  C   UNL     1      48.801   7.048  15.181  0.00  0.00    +0.000 C 
ATOM     21  O   UNL     1      49.674   6.877  14.332  0.00  0.00    +0.000 OA
ATOM     22  H   UNL     1      47.109   8.153  15.678  0.00  0.00    +0.000 HD
BRANCH  20  23
ATOM     23  C   UNL     1      48.865   6.376  16.485  0.00  0.00    +0.000 A 
ATOM     24  C   UNL     1      49.610   6.932  17.518  0.00  0.00    +0.000 A 
ATOM     25  S   UNL     1      49.811   5.886  18.851  0.00  0.00    +0.000 S 
ATOM     26  C   UNL     1      48.869   4.679  18.109  0.00  0.00    +0.000 A 
ATOM     27  N   UNL     1      48.721   3.450  18.673  0.00  0.00    +0.000 NA
ATOM     28  C   UNL     1      47.945   2.654  18.015  0.00  0.00    +0.000 A 
ATOM     29  N   UNL     1      47.267   2.990  16.872  0.00  0.00    +0.000 N 
ATOM     30  C   UNL     1      47.358   4.231  16.292  0.00  0.00    +0.000 A 
ATOM     31  O   UNL     1      46.653   4.546  15.337  0.00  0.00    +0.000 OA
ATOM     32  C   UNL     1      48.312   5.119  16.922  0.00  0.00    +0.000 A 
ATOM     33  H   UNL     1      46.612   2.348  16.451  0.00  0.00    +0.000 HD
ENDBRANCH  20  23
ENDBRANCH  18  19
ENDBRANCH   4  18
TORSDOF 6
ENDMDL
MODEL 4
REMARK VINA RESULT:    -7.597      2.713      3.716
REMARK INTER + INTRA:         -11.267
REMARK INTER:                 -10.468
REMARK INTRA:                  -0.799
REMARK UNBOUND:                -1.004
REMARK  Name = 
REMARK  6 active torsions:
REMARK  status: ('A' for Active; 'I' for Inactive)
REMARK    1  A    between atoms: C_2  and  C_25
REMARK    2  A    between atoms: N_3  and  C_4
REMARK    3  A    between atoms: C_4  and  C_5
REMARK    4  A    between atoms: C_8  and  C_9
REMARK    5  A    between atoms: C_9  and  N_10
REMARK    6  A    between atoms: C_11  and  C_13
REMARK                            x       y       z     vdW  Elec       q    Type
REMARK                         _______ _______ _______ _____ _____    ______ ____
ROOT
ATOM      1  C   UNL     1      45.032   4.427  11.545  0.00  0.00    +0.000 A 
ATOM      2  C   UNL     1      45.492   5.559  12.184  0.00  0.00    +0.000 A 
ATOM      3  N   UNL     1      46.203   5.541  13.328  0.00  0.00    +0.000 NA
ATOM      4  C   UNL     1      46.476   4.330  13.853  0.00  0.00    +0.000 A 
ATOM      5  N   UNL     1      46.053   3.163  13.323  0.00  0.00    +0.000 NA
ATOM      6  C   UNL     1      45.344   3.241  12.176  0.00  0.00    +0.000 A 
ENDROOT
BRANCH   1   7
ATOM      7  C   UNL     1      44.268   4.487  10.268  0.00  0.00    +0.000 C 
BRANCH   7  10
ATOM      8  O   UNL     1      46.196   5.287   8.410  0.00  0.00    +0.000 OA
ATOM      9  C   UNL     1      45.794   4.130   8.381  0.00  0.00    +0.000 C 
ATOM     10  N   UNL     1      44.830   3.639   9.244  0.00  0.00    +0.000 N 
ATOM     11  H   UNL     1      44.579   2.661   9.159  0.00  0.00    +0.000 HD
BRANCH   9  12
ATOM     12  C   UNL     1      46.334   3.148   7.398  0.00  0.00    +0.000 A 
ATOM     13  C   UNL     1      46.578   1.842   7.799  0.00  0.00    +0.000 A 
ATOM     14  N   UNL     1      47.062   0.903   6.946  0.00  0.00    +0.000 NA
ATOM     15  C   UNL     1      47.288   1.333   5.684  0.00  0.00    +0.000 A 
ATOM     16  C   UNL     1      47.044   2.643   5.287  0.00  0.00    +0.000 A 
ATOM     17  N   UNL     1      46.560   3.586   6.128  0.00  0.00    +0.000 NA
ENDBRANCH   9  12
ENDBRANCH   7  10
ENDBRANCH   1   7
BRANCH   4  18
ATOM     18  C   UNL     1      47.337   4.289  15.096  0.00  0.00    +0.000 C 
BRANCH  18  19
ATOM     19  N   UNL     1      47.559   5.584  15.709  0.00  0.00    +0.000 N 
ATOM     20  C   UNL     1      48.687   5.814  16.452  0.00  0.00    +0.000 C 
ATOM     21  O   UNL     1      49.543   4.943  16.601  0.00  0.00    +0.000 OA
ATOM     22  H   UNL     1      46.986   6.360  15.385  0.00  0.00    +0.000 HD
BRANCH  20  23
ATOM     23  C   UNL     1      48.796   7.111  17.133  0.00  0.00    +0.000 A 
ATOM     24  C   UNL     1      49.445   8.169  16.511  0.00  0.00    +0.000 A 
ATOM     25  S   UNL     1      49.733   9.495  17.548  0.00  0.00    +0.000 S 
ATOM     26  C   UNL     1      48.955   8.713  18.843  0.00  0.00    +0.000 A 
ATOM     27  N   UNL     1      48.936   9.257  20.090  0.00  0.00    +0.000 NA
ATOM     28  C   UNL     1      48.274   8.568  20.960  0.00  0.00    +0.000 A 
ATOM     29  N   UNL     1      47.589   7.412  20.686  0.00  0.00    +0.000 N 
ATOM     30  C   UNL     1      47.551   6.850  19.434  0.00  0.00    +0.000 A 
ATOM     31  O   UNL     1      46.840   5.880  19.188  0.00  0.00    +0.000 OA
ATOM     32  C   UNL     1      48.381   7.516  18.452  0.00  0.00    +0.000 A 
ATOM     33  H   UNL     1      47.024   6.966  21.392  0.00  0.00    +0.000 HD
ENDBRANCH  20  23
ENDBRANCH  18  19
ENDBRANCH   4  18
TORSDOF 6
ENDMDL
MODEL 5
REMARK VINA RESULT:    -7.546      2.874      4.334
REMARK INTER + INTRA:         -11.197
REMARK INTER:                 -10.251
REMARK INTRA:                  -0.947
REMARK UNBOUND:                -1.004
REMARK  Name = 
REMARK  6 active torsions:
REMARK  status: ('A' for Active; 'I' for Inactive)
REMARK    1  A    between atoms: C_2  and  C_25
REMARK    2  A    between atoms: N_3  and  C_4
REMARK    3  A    between atoms: C_4  and  C_5
REMARK    4  A    between atoms: C_8  and  C_9
REMARK    5  A    between atoms: C_9  and  N_10
REMARK    6  A    between atoms: C_11  and  C_13
REMARK                            x       y       z     vdW  Elec       q    Type
REMARK                         _______ _______ _______ _____ _____    ______ ____
ROOT
ATOM      1  C   UNL     1      44.805   4.380  11.214  0.00  0.00    +0.000 A 
ATOM      2  C   UNL     1      45.333   5.571  11.666  0.00  0.00    +0.000 A 
ATOM      3  N   UNL     1      46.019   5.699  12.818  0.00  0.00    +0.000 NA
ATOM      4  C   UNL     1      46.193   4.580  13.549  0.00  0.00    +0.000 A 
ATOM      5  N   UNL     1      45.696   3.371  13.211  0.00  0.00    +0.000 NA
ATOM      6  C   UNL     1      45.017   3.301  12.046  0.00  0.00    +0.000 A 
ENDROOT
BRANCH   1   7
ATOM      7  C   UNL     1      44.072   4.273   9.921  0.00  0.00    +0.000 C 
BRANCH   7  10
ATOM      8  O   UNL     1      46.133   5.032   8.194  0.00  0.00    +0.000 OA
ATOM      9  C   UNL     1      45.751   3.867   8.181  0.00  0.00    +0.000 C 
ATOM     10  N   UNL     1      44.727   3.395   8.982  0.00  0.00    +0.000 N 
ATOM     11  H   UNL     1      44.498   2.410   8.917  0.00  0.00    +0.000 HD
BRANCH   9  12
ATOM     12  C   UNL     1      46.383   2.857   7.285  0.00  0.00    +0.000 A 
ATOM     13  C   UNL     1      46.661   3.190   5.966  0.00  0.00    +0.000 A 
ATOM     14  N   UNL     1      47.243   2.315   5.108  0.00  0.00    +0.000 NA
ATOM     15  C   UNL     1      47.530   1.100   5.629  0.00  0.00    +0.000 A 
ATOM     16  C   UNL     1      47.248   0.770   6.950  0.00  0.00    +0.000 A 
ATOM     17  N   UNL     1      46.670   1.636   7.815  0.00  0.00    +0.000 NA
ENDBRANCH   9  12
ENDBRANCH   7  10
ENDBRANCH   1   7
BRANCH   4  18
ATOM     18  C   UNL     1      47.024   4.693  14.808  0.00  0.00    +0.000 C 
BRANCH  18  19
ATOM     19  N   UNL     1      47.593   6.009  15.029  0.00  0.00    +0.000 N 
ATOM     20  C   UNL     1      48.653   6.170  15.883  0.00  0.00    +0.000 C 
ATOM     21  O   UNL     1      49.158   5.210  16.462  0.00  0.00    +0.000 OA
ATOM     22  H   UNL     1      47.340   6.744  14.374  0.00  0.00    +0.000 HD
BRANCH  20  23
ATOM     23  C   UNL     1      49.108   7.542  16.144  0.00  0.00    +0.000 A 
ATOM     24  C   UNL     1      49.494   7.913  17.426  0.00  0.00    +0.000 A 
ATOM     25  S   UNL     1      49.711   9.596  17.609  0.00  0.00    +0.000 S 
ATOM     26  C   UNL     1      49.344   9.872  15.971  0.00  0.00    +0.000 A 
ATOM     27  N   UNL     1      49.240  11.133  15.471  0.00  0.00    +0.000 NA
ATOM     28  C   UNL     1      48.996  11.183  14.203  0.00  0.00    +0.000 A 
ATOM     29  N   UNL     1      48.895  10.090  13.382  0.00  0.00    +0.000 N 
ATOM     30  C   UNL     1      49.031   8.802  13.838  0.00  0.00    +0.000 A 
ATOM     31  O   UNL     1      49.051   7.847  13.067  0.00  0.00    +0.000 OA
ATOM     32  C   UNL     1      49.181   8.688  15.274  0.00  0.00    +0.000 A 
ATOM     33  H   UNL     1      48.784  10.200  12.385  0.00  0.00    +0.000 HD
ENDBRANCH  20  23
ENDBRANCH  18  19
ENDBRANCH   4  18
TORSDOF 6
ENDMDL
MODEL 6
REMARK VINA RESULT:    -6.857      3.843      9.931
REMARK INTER + INTRA:         -10.267
REMARK INTER:                  -9.709
REMARK INTRA:                  -0.558
REMARK UNBOUND:                -1.004
REMARK  Name = 
REMARK  6 active torsions:
REMARK  status: ('A' for Active; 'I' for Inactive)
REMARK    1  A    between atoms: C_2  and  C_25
REMARK    2  A    between atoms: N_3  and  C_4
REMARK    3  A    between atoms: C_4  and  C_5
REMARK    4  A    between atoms: C_8  and  C_9
REMARK    5  A    between atoms: C_9  and  N_10
REMARK    6  A    between atoms: C_11  and  C_13
REMARK                            x       y       z     vdW  Elec       q    Type
REMARK                         _______ _______ _______ _____ _____    ______ ____
ROOT
ATOM      1  C   UNL     1      51.462   2.934  17.609  0.00  0.00    +0.000 A 
ATOM      2  C   UNL     1      50.820   4.102  17.964  0.00  0.00    +0.000 A 
ATOM      3  N   UNL     1      49.506   4.327  17.766  0.00  0.00    +0.000 NA
ATOM      4  C   UNL     1      48.799   3.332  17.194  0.00  0.00    +0.000 A 
ATOM      5  N   UNL     1      49.334   2.162  16.787  0.00  0.00    +0.000 NA
ATOM      6  C   UNL     1      50.655   1.990  17.011  0.00  0.00    +0.000 A 
ENDROOT
BRANCH   1   7
ATOM      7  C   UNL     1      52.912   2.712  17.866  0.00  0.00    +0.000 C 
BRANCH   7  10
ATOM      8  O   UNL     1      55.161   1.708  19.185  0.00  0.00    +0.000 OA
ATOM      9  C   UNL     1      54.383   0.919  18.662  0.00  0.00    +0.000 C 
ATOM     10  N   UNL     1      53.251   1.314  17.970  0.00  0.00    +0.000 N 
ATOM     11  H   UNL     1      52.656   0.586  17.593  0.00  0.00    +0.000 HD
BRANCH   9  12
ATOM     12  C   UNL     1      54.603  -0.553  18.743  0.00  0.00    +0.000 A 
ATOM     13  C   UNL     1      54.873  -1.270  17.585  0.00  0.00    +0.000 A 
ATOM     14  N   UNL     1      55.090  -2.609  17.599  0.00  0.00    +0.000 NA
ATOM     15  C   UNL     1      55.024  -3.192  18.818  0.00  0.00    +0.000 A 
ATOM     16  C   UNL     1      54.752  -2.470  19.976  0.00  0.00    +0.000 A 
ATOM     17  N   UNL     1      54.536  -1.134  19.973  0.00  0.00    +0.000 NA
ENDBRANCH   9  12
ENDBRANCH   7  10
ENDBRANCH   1   7
BRANCH   4  18
ATOM     18  C   UNL     1      47.309   3.541  17.034  0.00  0.00    +0.000 C 
BRANCH  18  19
ATOM     19  N   UNL     1      46.948   4.464  15.976  0.00  0.00    +0.000 N 
ATOM     20  C   UNL     1      47.020   4.074  14.664  0.00  0.00    +0.000 C 
ATOM     21  O   UNL     1      47.369   2.937  14.353  0.00  0.00    +0.000 OA
ATOM     22  H   UNL     1      46.434   5.300  16.240  0.00  0.00    +0.000 HD
BRANCH  20  23
ATOM     23  C   UNL     1      46.744   5.091  13.641  0.00  0.00    +0.000 A 
ATOM     24  C   UNL     1      47.645   6.128  13.432  0.00  0.00    +0.000 A 
ATOM     25  S   UNL     1      47.036   7.366  12.426  0.00  0.00    +0.000 S 
ATOM     26  C   UNL     1      45.571   6.530  12.201  0.00  0.00    +0.000 A 
ATOM     27  N   UNL     1      44.536   7.087  11.517  0.00  0.00    +0.000 NA
ATOM     28  C   UNL     1      43.506   6.318  11.394  0.00  0.00    +0.000 A 
ATOM     29  N   UNL     1      43.434   5.027  11.850  0.00  0.00    +0.000 N 
ATOM     30  C   UNL     1      44.469   4.413  12.511  0.00  0.00    +0.000 A 
ATOM     31  O   UNL     1      44.425   3.223  12.807  0.00  0.00    +0.000 OA
ATOM     32  C   UNL     1      45.600   5.275  12.784  0.00  0.00    +0.000 A 
ATOM     33  H   UNL     1      42.630   4.451  11.650  0.00  0.00    +0.000 HD
ENDBRANCH  20  23
ENDBRANCH  18  19
ENDBRANCH   4  18
TORSDOF 6
ENDMDL
MODEL 7
REMARK VINA RESULT:    -6.856      3.476      9.035
REMARK INTER + INTRA:         -10.266
REMARK INTER:                  -9.427
REMARK INTRA:                  -0.838
REMARK UNBOUND:                -1.004
REMARK  Name = 
REMARK  6 active torsions:
REMARK  status: ('A' for Active; 'I' for Inactive)
REMARK    1  A    between atoms: C_2  and  C_25
REMARK    2  A    between atoms: N_3  and  C_4
REMARK    3  A    between atoms: C_4  and  C_5
REMARK    4  A    between atoms: C_8  and  C_9
REMARK    5  A    between atoms: C_9  and  N_10
REMARK    6  A    between atoms: C_11  and  C_13
REMARK                            x       y       z     vdW  Elec       q    Type
REMARK                         _______ _______ _______ _____ _____    ______ ____
ROOT
ATOM      1  C   UNL     1      49.924   7.418  15.999  0.00  0.00    +0.000 A 
ATOM      2  C   UNL     1      48.998   6.535  15.486  0.00  0.00    +0.000 A 
ATOM      3  N   UNL     1      48.245   6.784  14.397  0.00  0.00    +0.000 NA
ATOM      4  C   UNL     1      48.436   7.970  13.785  0.00  0.00    +0.000 A 
ATOM      5  N   UNL     1      49.298   8.914  14.218  0.00  0.00    +0.000 NA
ATOM      6  C   UNL     1      50.026   8.611  15.314  0.00  0.00    +0.000 A 
ENDROOT
BRANCH   1   7
ATOM      7  C   UNL     1      50.756   7.097  17.192  0.00  0.00    +0.000 C 
BRANCH   7  10
ATOM      8  O   UNL     1      49.926   5.045  18.897  0.00  0.00    +0.000 OA
ATOM      9  C   UNL     1      50.775   4.799  18.047  0.00  0.00    +0.000 C 
ATOM     10  N   UNL     1      51.266   5.748  17.168  0.00  0.00    +0.000 N 
ATOM     11  H   UNL     1      51.950   5.443  16.485  0.00  0.00    +0.000 HD
BRANCH   9  12
ATOM     12  C   UNL     1      51.342   3.429  17.896  0.00  0.00    +0.000 A 
ATOM     13  C   UNL     1      50.595   2.445  17.263  0.00  0.00    +0.000 A 
ATOM     14  N   UNL     1      51.063   1.183  17.089  0.00  0.00    +0.000 NA
ATOM     15  C   UNL     1      52.304   0.955  17.578  0.00  0.00    +0.000 A 
ATOM     16  C   UNL     1      53.048   1.944  18.213  0.00  0.00    +0.000 A 
ATOM     17  N   UNL     1      52.592   3.206  18.389  0.00  0.00    +0.000 NA
ENDBRANCH   9  12
ENDBRANCH   7  10
ENDBRANCH   1   7
BRANCH   4  18
ATOM     18  C   UNL     1      47.653   8.233  12.518  0.00  0.00    +0.000 C 
BRANCH  18  19
ATOM     19  N   UNL     1      47.232   7.034  11.818  0.00  0.00    +0.000 N 
ATOM     20  C   UNL     1      45.940   6.907  11.380  0.00  0.00    +0.000 C 
ATOM     21  O   UNL     1      45.116   7.804  11.549  0.00  0.00    +0.000 OA
ATOM     22  H   UNL     1      47.961   6.417  11.469  0.00  0.00    +0.000 HD
BRANCH  20  23
ATOM     23  C   UNL     1      45.555   5.624  10.776  0.00  0.00    +0.000 A 
ATOM     24  C   UNL     1      45.726   5.420   9.413  0.00  0.00    +0.000 A 
ATOM     25  S   UNL     1      44.965   4.005   8.837  0.00  0.00    +0.000 S 
ATOM     26  C   UNL     1      44.429   3.598  10.399  0.00  0.00    +0.000 A 
ATOM     27  N   UNL     1      43.609   2.533  10.612  0.00  0.00    +0.000 NA
ATOM     28  C   UNL     1      43.319   2.326  11.853  0.00  0.00    +0.000 A 
ATOM     29  N   UNL     1      43.812   3.055  12.905  0.00  0.00    +0.000 N 
ATOM     30  C   UNL     1      44.671   4.113  12.737  0.00  0.00    +0.000 A 
ATOM     31  O   UNL     1      45.189   4.677  13.697  0.00  0.00    +0.000 OA
ATOM     32  C   UNL     1      44.928   4.464  11.356  0.00  0.00    +0.000 A 
ATOM     33  H   UNL     1      43.611   2.791  13.857  0.00  0.00    +0.000 HD
ENDBRANCH  20  23
ENDBRANCH  18  19
ENDBRANCH   4  18
TORSDOF 6
ENDMDL
MODEL 8
REMARK VINA RESULT:    -6.815      4.388      9.548
REMARK INTER + INTRA:         -10.210
REMARK INTER:                  -9.170
REMARK INTRA:                  -1.040
REMARK UNBOUND:                -1.004
REMARK  Name = 
REMARK  6 active torsions:
REMARK  status: ('A' for Active; 'I' for Inactive)
REMARK    1  A    between atoms: C_2  and  C_25
REMARK    2  A    between atoms: N_3  and  C_4
REMARK    3  A    between atoms: C_4  and  C_5
REMARK    4  A    between atoms: C_8  and  C_9
REMARK    5  A    between atoms: C_9  and  N_10
REMARK    6  A    between atoms: C_11  and  C_13
REMARK                            x       y       z     vdW  Elec       q    Type
REMARK                         _______ _______ _______ _____ _____    ______ ____
ROOT
ATOM      1  C   UNL     1      51.526   2.576  17.629  0.00  0.00    +0.000 A 
ATOM      2  C   UNL     1      50.953   3.767  18.024  0.00  0.00    +0.000 A 
ATOM      3  N   UNL     1      49.673   4.104  17.776  0.00  0.00    +0.000 NA
ATOM      4  C   UNL     1      48.925   3.201  17.110  0.00  0.00    +0.000 A 
ATOM      5  N   UNL     1      49.394   2.018  16.658  0.00  0.00    +0.000 NA
ATOM      6  C   UNL     1      50.684   1.733  16.935  0.00  0.00    +0.000 A 
ENDROOT
BRANCH   1   7
ATOM      7  C   UNL     1      52.940   2.229  17.943  0.00  0.00    +0.000 C 
BRANCH   7  10
ATOM      8  O   UNL     1      54.710   0.722  19.493  0.00  0.00    +0.000 OA
ATOM      9  C   UNL     1      54.110   0.170  18.578  0.00  0.00    +0.000 C 
ATOM     10  N   UNL     1      53.227   0.830  17.741  0.00  0.00    +0.000 N 
ATOM     11  H   UNL     1      52.761   0.282  17.027  0.00  0.00    +0.000 HD
BRANCH   9  12
ATOM     12  C   UNL     1      54.290  -1.284  18.302  0.00  0.00    +0.000 A 
ATOM     13  C   UNL     1      53.788  -2.218  19.198  0.00  0.00    +0.000 A 
ATOM     14  N   UNL     1      53.914  -3.553  18.996  0.00  0.00    +0.000 NA
ATOM     15  C   UNL     1      54.565  -3.906  17.864  0.00  0.00    +0.000 A 
ATOM     16  C   UNL     1      55.069  -2.968  16.970  0.00  0.00    +0.000 A 
ATOM     17  N   UNL     1      54.946  -1.634  17.161  0.00  0.00    +0.000 NA
ENDBRANCH   9  12
ENDBRANCH   7  10
ENDBRANCH   1   7
BRANCH   4  18
ATOM     18  C   UNL     1      47.466   3.532  16.890  0.00  0.00    +0.000 C 
BRANCH  18  19
ATOM     19  N   UNL     1      47.234   4.577  15.911  0.00  0.00    +0.000 N 
ATOM     20  C   UNL     1      47.142   4.268  14.579  0.00  0.00    +0.000 C 
ATOM     21  O   UNL     1      47.233   3.108  14.184  0.00  0.00    +0.000 OA
ATOM     22  H   UNL     1      46.918   5.479  16.257  0.00  0.00    +0.000 HD
BRANCH  20  23
ATOM     23  C   UNL     1      47.014   5.386  13.635  0.00  0.00    +0.000 A 
ATOM     24  C   UNL     1      45.875   5.504  12.849  0.00  0.00    +0.000 A 
ATOM     25  S   UNL     1      46.018   6.676  11.616  0.00  0.00    +0.000 S 
ATOM     26  C   UNL     1      47.586   7.093  12.126  0.00  0.00    +0.000 A 
ATOM     27  N   UNL     1      48.347   7.977  11.426  0.00  0.00    +0.000 NA
ATOM     28  C   UNL     1      49.498   8.224  11.958  0.00  0.00    +0.000 A 
ATOM     29  N   UNL     1      49.938   7.706  13.148  0.00  0.00    +0.000 N 
ATOM     30  C   UNL     1      49.187   6.841  13.905  0.00  0.00    +0.000 A 
ATOM     31  O   UNL     1      49.552   6.481  15.020  0.00  0.00    +0.000 OA
ATOM     32  C   UNL     1      47.940   6.435  13.291  0.00  0.00    +0.000 A 
ATOM     33  H   UNL     1      50.815   8.003  13.550  0.00  0.00    +0.000 HD
ENDBRANCH  20  23
ENDBRANCH  18  19
ENDBRANCH   4  18
TORSDOF 6
ENDMDL
MODEL 9
REMARK VINA RESULT:    -6.492      2.825      4.246
REMARK INTER + INTRA:          -9.773
REMARK INTER:                  -8.842
REMARK INTRA:                  -0.931
REMARK UNBOUND:                -1.004
REMARK  Name = 
REMARK  6 active torsions:
REMARK  status: ('A' for Active; 'I' for Inactive)
REMARK    1  A    between atoms: C_2  and  C_25
REMARK    2  A    between atoms: N_3  and  C_4
REMARK    3  A    between atoms: C_4  and  C_5
REMARK    4  A    between atoms: C_8  and  C_9
REMARK    5  A    between atoms: C_9  and  N_10
REMARK    6  A    between atoms: C_11  and  C_13
REMARK                            x       y       z     vdW  Elec       q    Type
REMARK                         _______ _______ _______ _____ _____    ______ ____
ROOT
ATOM      1  C   UNL     1      48.783   7.496  12.955  0.00  0.00    +0.000 A 
ATOM      2  C   UNL     1      49.855   8.363  12.936  0.00  0.00    +0.000 A 
ATOM      3  N   UNL     1      50.777   8.440  13.915  0.00  0.00    +0.000 NA
ATOM      4  C   UNL     1      50.625   7.601  14.959  0.00  0.00    +0.000 A 
ATOM      5  N   UNL     1      49.600   6.732  15.088  0.00  0.00    +0.000 NA
ATOM      6  C   UNL     1      48.705   6.698  14.077  0.00  0.00    +0.000 A 
ENDROOT
BRANCH   1   7
ATOM      7  C   UNL     1      47.796   7.424  11.841  0.00  0.00    +0.000 C 
BRANCH   7  10
ATOM      8  O   UNL     1      45.024   7.439  11.490  0.00  0.00    +0.000 OA
ATOM      9  C   UNL     1      45.584   6.372  11.717  0.00  0.00    +0.000 C 
ATOM     10  N   UNL     1      46.948   6.259  11.924  0.00  0.00    +0.000 N 
ATOM     11  H   UNL     1      47.322   5.331  12.081  0.00  0.00    +0.000 HD
BRANCH   9  12
ATOM     12  C   UNL     1      44.818   5.095  11.780  0.00  0.00    +0.000 A 
ATOM     13  C   UNL     1      44.384   4.617  13.009  0.00  0.00    +0.000 A 
ATOM     14  N   UNL     1      43.676   3.466  13.127  0.00  0.00    +0.000 NA
ATOM     15  C   UNL     1      43.428   2.819  11.964  0.00  0.00    +0.000 A 
ATOM     16  C   UNL     1      43.866   3.301  10.735  0.00  0.00    +0.000 A 
ATOM     17  N   UNL     1      44.571   4.449  10.607  0.00  0.00    +0.000 NA
ENDBRANCH   9  12
ENDBRANCH   7  10
ENDBRANCH   1   7
BRANCH   4  18
ATOM     18  C   UNL     1      51.693   7.623  16.029  0.00  0.00    +0.000 C 
BRANCH  18  19
ATOM     19  N   UNL     1      51.994   6.322  16.597  0.00  0.00    +0.000 N 
ATOM     20  C   UNL     1      52.086   6.165  17.955  0.00  0.00    +0.000 C 
ATOM     21  O   UNL     1      51.898   7.107  18.722  0.00  0.00    +0.000 OA
ATOM     22  H   UNL     1      51.905   5.514  15.986  0.00  0.00    +0.000 HD
BRANCH  20  23
ATOM     23  C   UNL     1      52.500   4.847  18.456  0.00  0.00    +0.000 A 
ATOM     24  C   UNL     1      53.568   4.744  19.338  0.00  0.00    +0.000 A 
ATOM     25  S   UNL     1      54.093   3.139  19.586  0.00  0.00    +0.000 S 
ATOM     26  C   UNL     1      52.879   2.532  18.560  0.00  0.00    +0.000 A 
ATOM     27  N   UNL     1      52.820   1.212  18.236  0.00  0.00    +0.000 NA
ATOM     28  C   UNL     1      51.821   0.894  17.482  0.00  0.00    +0.000 A 
ATOM     29  N   UNL     1      50.849   1.765  17.062  0.00  0.00    +0.000 N 
ATOM     30  C   UNL     1      50.849   3.097  17.398  0.00  0.00    +0.000 A 
ATOM     31  O   UNL     1      49.909   3.831  17.108  0.00  0.00    +0.000 OA
ATOM     32  C   UNL     1      52.016   3.528  18.138  0.00  0.00    +0.000 A 
ATOM     33  H   UNL     1      50.049   1.437  16.542  0.00  0.00    +0.000 HD
ENDBRANCH  20  23
ENDBRANCH  18  19
ENDBRANCH   4  18
TORSDOF 6
ENDMDL
