MODEL 1
REMARK VINA RESULT:    -8.375      0.000      0.000
REMARK INTER + INTRA:         -11.488
REMARK INTER:                 -10.823
REMARK INTRA:                  -0.665
REMARK UNBOUND:                -0.665
REMARK  Name = 
REMARK  5 active torsions:
REMARK  status: ('A' for Active; 'I' for Inactive)
REMARK    1  A    between atoms: C_2  and  C_18
REMARK    2  A    between atoms: N_3  and  C_4
REMARK    3  A    between atoms: C_4  and  C_5
REMARK    4  A    between atoms: C_8  and  C_9
REMARK    5  A    between atoms: C_9  and  C_10
REMARK                            x       y       z     vdW  Elec       q    Type
REMARK                         _______ _______ _______ _____ _____    ______ ____
ROOT
ATOM      1  O   UNL     1      46.259   3.358  13.645  0.00  0.00    +0.000 OA
ATOM      2  C   UNL     1      46.188   4.574  13.760  0.00  0.00    +0.000 C 
ATOM      3  N   UNL     1      45.074   5.286  13.390  0.00  0.00    +0.000 N 
ATOM      4  H   UNL     1      45.134   6.296  13.312  0.00  0.00    +0.000 HD
ENDROOT
BRANCH   2   5
ATOM      5  C   UNL     1      47.295   5.353  14.335  0.00  0.00    +0.000 A 
ATOM      6  C   UNL     1      47.928   6.327  13.565  0.00  0.00    +0.000 A 
ATOM      7  S   UNL     1      49.179   7.142  14.390  0.00  0.00    +0.000 S 
ATOM      8  C   UNL     1      48.892   6.261  15.818  0.00  0.00    +0.000 A 
ATOM      9  N   UNL     1      49.603   6.507  16.949  0.00  0.00    +0.000 NA
ATOM     10  C   UNL     1      49.255   5.793  17.964  0.00  0.00    +0.000 A 
ATOM     11  N   UNL     1      48.268   4.841  17.950  0.00  0.00    +0.000 N 
ATOM     12  C   UNL     1      47.551   4.523  16.820  0.00  0.00    +0.000 A 
ATOM     13  O   UNL     1      46.730   3.611  16.829  0.00  0.00    +0.000 OA
ATOM     14  C   UNL     1      47.881   5.327  15.655  0.00  0.00    +0.000 A 
ATOM     15  H   UNL     1      48.060   4.299  18.778  0.00  0.00    +0.000 HD
ENDBRANCH   2   5
BRANCH   3  16
ATOM     16  C   UNL     1      43.998   4.646  12.673  0.00  0.00    +0.000 C 
BRANCH  16  17
ATOM     17  C   UNL     1      44.387   4.317  11.261  0.00  0.00    +0.000 A 
ATOM     18  C   UNL     1      45.114   5.227  10.494  0.00  0.00    +0.000 A 
ATOM     19  C   UNL     1      45.444   4.919   9.179  0.00  0.00    +0.000 A 
ATOM     20  C   UNL     1      45.026   3.706   8.638  0.00  0.00    +0.000 A 
ATOM     21  N   UNL     1      44.340   2.792   9.365  0.00  0.00    +0.000 NA
ATOM     22  C   UNL     1      44.059   3.108  10.658  0.00  0.00    +0.000 A 
BRANCH  20  23
ATOM     23  C   UNL     1      45.402   3.349   7.219  0.00  0.00    +0.000 C 
BRANCH  23  24
ATOM     24  C   UNL     1      46.875   3.035   6.861  0.00  0.00    +0.000 C 
ATOM     25  C   UNL     1      47.241   3.107   5.373  0.00  0.00    +0.000 C 
ATOM     26  C   UNL     1      46.928   1.827   4.602  0.00  0.00    +0.000 C 
ATOM     27  C   UNL     1      47.344   0.556   5.342  0.00  0.00    +0.000 C 
ATOM     28  N   UNL     1      46.967   0.527   6.754  0.00  0.00    +0.000 NA
ATOM     29  C   UNL     1      47.404   1.725   7.464  0.00  0.00    +0.000 C 
ATOM     30  H   UNL     1      45.951   0.442   6.843  0.00  0.00    +0.000 HD
ENDBRANCH  23  24
ENDBRANCH  20  23
ENDBRANCH  16  17
ENDBRANCH   3  16
TORSDOF 5
ENDMDL
MODEL 2
REMARK VINA RESULT:    -7.972      1.753      2.623
REMARK INTER + INTRA:         -10.966
REMARK INTER:                 -10.250
REMARK INTRA:                  -0.716
REMARK UNBOUND:                -0.665
REMARK  Name = 
REMARK  5 active torsions:
REMARK  status: ('A' for Active; 'I' for Inactive)
REMARK    1  A    between atoms: C_2  and  C_18
REMARK    2  A    between atoms: N_3  and  C_4
REMARK    3  A    between atoms: C_4  and  C_5
REMARK    4  A    between atoms: C_8  and  C_9
REMARK    5  A    between atoms: C_9  and  C_10
REMARK                            x       y       z     vdW  Elec       q    Type
REMARK                         _______ _______ _______ _____ _____    ______ ____
ROOT
ATOM      1  O   UNL     1      46.480   3.793  14.126  0.00  0.00    +0.000 OA
ATOM      2  C   UNL     1      46.501   5.007  13.980  0.00  0.00    +0.000 C 
ATOM      3  N   UNL     1      45.441   5.706  13.458  0.00  0.00    +0.000 N 
ATOM      4  H   UNL     1      45.576   6.669  13.168  0.00  0.00    +0.000 HD
ENDROOT
BRANCH   2   5
ATOM      5  C   UNL     1      47.668   5.806  14.387  0.00  0.00    +0.000 A 
ATOM      6  C   UNL     1      48.185   5.669  15.673  0.00  0.00    +0.000 A 
ATOM      7  S   UNL     1      49.542   6.660  15.971  0.00  0.00    +0.000 S 
ATOM      8  C   UNL     1      49.519   7.272  14.383  0.00  0.00    +0.000 A 
ATOM      9  N   UNL     1      50.463   8.150  13.956  0.00  0.00    +0.000 NA
ATOM     10  C   UNL     1      50.346   8.500  12.722  0.00  0.00    +0.000 A 
ATOM     11  N   UNL     1      49.360   8.064  11.874  0.00  0.00    +0.000 N 
ATOM     12  C   UNL     1      48.356   7.212  12.270  0.00  0.00    +0.000 A 
ATOM     13  O   UNL     1      47.447   6.907  11.503  0.00  0.00    +0.000 OA
ATOM     14  C   UNL     1      48.464   6.757  13.647  0.00  0.00    +0.000 A 
ATOM     15  H   UNL     1      49.313   8.397  10.920  0.00  0.00    +0.000 HD
ENDBRANCH   2   5
BRANCH   3  16
ATOM     16  C   UNL     1      44.314   5.010  12.883  0.00  0.00    +0.000 C 
BRANCH  16  17
ATOM     17  C   UNL     1      44.596   4.557  11.481  0.00  0.00    +0.000 A 
ATOM     18  C   UNL     1      45.188   5.420  10.560  0.00  0.00    +0.000 A 
ATOM     19  C   UNL     1      45.419   4.994   9.257  0.00  0.00    +0.000 A 
ATOM     20  C   UNL     1      45.035   3.708   8.883  0.00  0.00    +0.000 A 
ATOM     21  N   UNL     1      44.480   2.839   9.761  0.00  0.00    +0.000 NA
ATOM     22  C   UNL     1      44.297   3.274  11.037  0.00  0.00    +0.000 A 
BRANCH  20  23
ATOM     23  C   UNL     1      45.305   3.225   7.478  0.00  0.00    +0.000 C 
BRANCH  23  24
ATOM     24  C   UNL     1      46.762   3.074   6.974  0.00  0.00    +0.000 C 
ATOM     25  C   UNL     1      46.980   3.263   5.467  0.00  0.00    +0.000 C 
ATOM     26  C   UNL     1      46.715   2.003   4.646  0.00  0.00    +0.000 C 
ATOM     27  C   UNL     1      47.311   0.740   5.265  0.00  0.00    +0.000 C 
ATOM     28  N   UNL     1      47.071   0.597   6.700  0.00  0.00    +0.000 NA
ATOM     29  C   UNL     1      47.461   1.790   7.444  0.00  0.00    +0.000 C 
ATOM     30  H   UNL     1      46.080   0.409   6.871  0.00  0.00    +0.000 HD
ENDBRANCH  23  24
ENDBRANCH  20  23
ENDBRANCH  16  17
ENDBRANCH   3  16
TORSDOF 5
ENDMDL
MODEL 3
REMARK VINA RESULT:    -7.215      3.586      5.268
REMARK INTER + INTRA:          -9.988
REMARK INTER:                  -8.402
REMARK INTRA:                  -1.586
REMARK UNBOUND:                -0.665
REMARK  Name = 
REMARK  5 active torsions:
REMARK  status: ('A' for Active; 'I' for Inactive)
REMARK    1  A    between atoms: C_2  and  C_18
REMARK    2  A    between atoms: N_3  and  C_4
REMARK    3  A    between atoms: C_4  and  C_5
REMARK    4  A    between atoms: C_8  and  C_9
REMARK    5  A    between atoms: C_9  and  C_10
REMARK                            x       y       z     vdW  Elec       q    Type
REMARK                         _______ _______ _______ _____ _____    ______ ____
ROOT
ATOM      1  O   UNL     1      48.886   8.678  16.257  0.00  0.00    +0.000 OA
ATOM      2  C   UNL     1      49.130   7.517  15.960  0.00  0.00    +0.000 C 
ATOM      3  N   UNL     1      49.356   7.120  14.666  0.00  0.00    +0.000 N 
ATOM      4  H   UNL     1      49.351   6.129  14.443  0.00  0.00    +0.000 HD
ENDROOT
BRANCH   2   5
ATOM      5  C   UNL     1      49.226   6.469  16.987  0.00  0.00    +0.000 A 
ATOM      6  C   UNL     1      49.981   6.695  18.137  0.00  0.00    +0.000 A 
ATOM      7  S   UNL     1      49.974   5.381  19.225  0.00  0.00    +0.000 S 
ATOM      8  C   UNL     1      48.927   4.482  18.228  0.00  0.00    +0.000 A 
ATOM      9  N   UNL     1      48.479   3.256  18.605  0.00  0.00    +0.000 NA
ATOM     10  C   UNL     1      47.664   2.707  17.772  0.00  0.00    +0.000 A 
ATOM     11  N   UNL     1      47.265   3.265  16.584  0.00  0.00    +0.000 N 
ATOM     12  C   UNL     1      47.724   4.482  16.137  0.00  0.00    +0.000 A 
ATOM     13  O   UNL     1      47.403   4.911  15.032  0.00  0.00    +0.000 OA
ATOM     14  C   UNL     1      48.619   5.160  17.059  0.00  0.00    +0.000 A 
ATOM     15  H   UNL     1      46.638   2.769  15.964  0.00  0.00    +0.000 HD
ENDBRANCH   2   5
BRANCH   3  16
ATOM     16  C   UNL     1      49.132   8.029  13.568  0.00  0.00    +0.000 C 
BRANCH  16  17
ATOM     17  C   UNL     1      47.788   7.817  12.934  0.00  0.00    +0.000 A 
ATOM     18  C   UNL     1      46.682   8.557  13.350  0.00  0.00    +0.000 A 
ATOM     19  C   UNL     1      45.438   8.331  12.771  0.00  0.00    +0.000 A 
ATOM     20  C   UNL     1      45.311   7.348  11.792  0.00  0.00    +0.000 A 
ATOM     21  N   UNL     1      46.372   6.630  11.352  0.00  0.00    +0.000 NA
ATOM     22  C   UNL     1      47.582   6.896  11.913  0.00  0.00    +0.000 A 
BRANCH  20  23
ATOM     23  C   UNL     1      43.970   7.112  11.138  0.00  0.00    +0.000 C 
BRANCH  23  24
ATOM     24  C   UNL     1      43.207   5.787  11.385  0.00  0.00    +0.000 C 
ATOM     25  C   UNL     1      43.195   5.271  12.830  0.00  0.00    +0.000 C 
ATOM     26  C   UNL     1      44.435   4.462  13.202  0.00  0.00    +0.000 C 
ATOM     27  C   UNL     1      44.849   3.459  12.126  0.00  0.00    +0.000 C 
ATOM     28  N   UNL     1      44.854   3.996  10.766  0.00  0.00    +0.000 NA
ATOM     29  C   UNL     1      43.594   4.649  10.429  0.00  0.00    +0.000 C 
ATOM     30  H   UNL     1      45.616   4.671  10.661  0.00  0.00    +0.000 HD
ENDBRANCH  23  24
ENDBRANCH  20  23
ENDBRANCH  16  17
ENDBRANCH   3  16
TORSDOF 5
ENDMDL
MODEL 4
REMARK VINA RESULT:    -7.212      3.988      9.854
REMARK INTER + INTRA:          -9.985
REMARK INTER:                  -8.760
REMARK INTRA:                  -1.225
REMARK UNBOUND:                -0.665
REMARK  Name = 
REMARK  5 active torsions:
REMARK  status: ('A' for Active; 'I' for Inactive)
REMARK    1  A    between atoms: C_2  and  C_18
REMARK    2  A    between atoms: N_3  and  C_4
REMARK    3  A    between atoms: C_4  and  C_5
REMARK    4  A    between atoms: C_8  and  C_9
REMARK    5  A    between atoms: C_9  and  C_10
REMARK                            x       y       z     vdW  Elec       q    Type
REMARK                         _______ _______ _______ _____ _____    ______ ____
ROOT
ATOM      1  O   UNL     1      47.860   6.864  11.964  0.00  0.00    +0.000 OA
ATOM      2  C   UNL     1      46.985   6.452  12.712  0.00  0.00    +0.000 C 
ATOM      3  N   UNL     1      47.164   6.349  14.070  0.00  0.00    +0.000 N 
ATOM      4  H   UNL     1      46.497   5.818  14.620  0.00  0.00    +0.000 HD
ENDROOT
BRANCH   2   5
ATOM      5  C   UNL     1      45.662   6.063  12.201  0.00  0.00    +0.000 A 
ATOM      6  C   UNL     1      44.858   7.011  11.573  0.00  0.00    +0.000 A 
ATOM      7  S   UNL     1      43.364   6.388  11.032  0.00  0.00    +0.000 S 
ATOM      8  C   UNL     1      43.754   4.821  11.573  0.00  0.00    +0.000 A 
ATOM      9  N   UNL     1      42.907   3.778  11.373  0.00  0.00    +0.000 NA
ATOM     10  C   UNL     1      43.346   2.645  11.799  0.00  0.00    +0.000 A 
ATOM     11  N   UNL     1      44.553   2.458  12.424  0.00  0.00    +0.000 N 
ATOM     12  C   UNL     1      45.425   3.487  12.690  0.00  0.00    +0.000 A 
ATOM     13  O   UNL     1      46.460   3.291  13.321  0.00  0.00    +0.000 OA
ATOM     14  C   UNL     1      44.992   4.783  12.195  0.00  0.00    +0.000 A 
ATOM     15  H   UNL     1      44.828   1.542  12.755  0.00  0.00    +0.000 HD
ENDBRANCH   2   5
BRANCH   3  16
ATOM     16  C   UNL     1      48.467   6.553  14.657  0.00  0.00    +0.000 C 
BRANCH  16  17
ATOM     17  C   UNL     1      48.570   5.923  16.015  0.00  0.00    +0.000 A 
ATOM     18  C   UNL     1      47.670   4.935  16.410  0.00  0.00    +0.000 A 
ATOM     19  C   UNL     1      47.762   4.380  17.682  0.00  0.00    +0.000 A 
ATOM     20  C   UNL     1      48.747   4.837  18.555  0.00  0.00    +0.000 A 
ATOM     21  N   UNL     1      49.650   5.779  18.191  0.00  0.00    +0.000 NA
ATOM     22  C   UNL     1      49.555   6.279  16.930  0.00  0.00    +0.000 A 
BRANCH  20  23
ATOM     23  C   UNL     1      48.874   4.223  19.929  0.00  0.00    +0.000 C 
BRANCH  23  24
ATOM     24  C   UNL     1      48.498   5.045  21.186  0.00  0.00    +0.000 C 
ATOM     25  C   UNL     1      47.283   5.973  21.050  0.00  0.00    +0.000 C 
ATOM     26  C   UNL     1      47.615   7.330  20.435  0.00  0.00    +0.000 C 
ATOM     27  C   UNL     1      48.889   7.957  21.000  0.00  0.00    +0.000 C 
ATOM     28  N   UNL     1      50.022   7.039  21.103  0.00  0.00    +0.000 NA
ATOM     29  C   UNL     1      49.672   5.812  21.811  0.00  0.00    +0.000 C 
ATOM     30  H   UNL     1      50.361   6.797  20.168  0.00  0.00    +0.000 HD
ENDBRANCH  23  24
ENDBRANCH  20  23
ENDBRANCH  16  17
ENDBRANCH   3  16
TORSDOF 5
ENDMDL
MODEL 5
REMARK VINA RESULT:    -7.199      4.334      9.763
REMARK INTER + INTRA:          -9.968
REMARK INTER:                  -8.940
REMARK INTRA:                  -1.028
REMARK UNBOUND:                -0.665
REMARK  Name = 
REMARK  5 active torsions:
REMARK  status: ('A' for Active; 'I' for Inactive)
REMARK    1  A    between atoms: C_2  and  C_18
REMARK    2  A    between atoms: N_3  and  C_4
REMARK    3  A    between atoms: C_4  and  C_5
REMARK    4  A    between atoms: C_8  and  C_9
REMARK    5  A    between atoms: C_9  and  C_10
REMARK                            x       y       z     vdW  Elec       q    Type
REMARK                         _______ _______ _______ _____ _____    ______ ____
ROOT
ATOM      1  O   UNL     1      47.227   3.182  13.931  0.00  0.00    +0.000 OA
ATOM      2  C   UNL     1      46.796   4.219  14.416  0.00  0.00    +0.000 C 
ATOM      3  N   UNL     1      46.906   4.508  15.754  0.00  0.00    +0.000 N 
ATOM      4  H   UNL     1      46.362   5.272  16.143  0.00  0.00    +0.000 HD
ENDROOT
BRANCH   2   5
ATOM      5  C   UNL     1      46.152   5.245  13.581  0.00  0.00    +0.000 A 
ATOM      6  C   UNL     1      46.804   6.454  13.348  0.00  0.00    +0.000 A 
ATOM      7  S   UNL     1      45.921   7.522  12.351  0.00  0.00    +0.000 S 
ATOM      8  C   UNL     1      44.662   6.394  12.156  0.00  0.00    +0.000 A 
ATOM      9  N   UNL     1      43.592   6.666  11.363  0.00  0.00    +0.000 NA
ATOM     10  C   UNL     1      42.734   5.709  11.277  0.00  0.00    +0.000 A 
ATOM     11  N   UNL     1      42.838   4.504  11.925  0.00  0.00    +0.000 N 
ATOM     12  C   UNL     1      43.877   4.197  12.773  0.00  0.00    +0.000 A 
ATOM     13  O   UNL     1      43.893   3.138  13.394  0.00  0.00    +0.000 OA
ATOM     14  C   UNL     1      44.892   5.232  12.876  0.00  0.00    +0.000 A 
ATOM     15  H   UNL     1      42.116   3.802  11.831  0.00  0.00    +0.000 HD
ENDBRANCH   2   5
BRANCH   3  16
ATOM     16  C   UNL     1      47.375   3.510  16.685  0.00  0.00    +0.000 C 
BRANCH  16  17
ATOM     17  C   UNL     1      48.829   3.691  17.009  0.00  0.00    +0.000 A 
ATOM     18  C   UNL     1      49.649   2.587  17.239  0.00  0.00    +0.000 A 
ATOM     19  C   UNL     1      50.988   2.772  17.564  0.00  0.00    +0.000 A 
ATOM     20  C   UNL     1      51.489   4.067  17.676  0.00  0.00    +0.000 A 
ATOM     21  N   UNL     1      50.723   5.158  17.436  0.00  0.00    +0.000 NA
ATOM     22  C   UNL     1      49.425   4.945  17.088  0.00  0.00    +0.000 A 
BRANCH  20  23
ATOM     23  C   UNL     1      52.949   4.280  18.002  0.00  0.00    +0.000 C 
BRANCH  23  24
ATOM     24  C   UNL     1      53.363   4.832  19.388  0.00  0.00    +0.000 C 
ATOM     25  C   UNL     1      52.603   4.269  20.597  0.00  0.00    +0.000 C 
ATOM     26  C   UNL     1      51.277   4.975  20.869  0.00  0.00    +0.000 C 
ATOM     27  C   UNL     1      51.369   6.498  20.774  0.00  0.00    +0.000 C 
ATOM     28  N   UNL     1      52.094   6.989  19.603  0.00  0.00    +0.000 NA
ATOM     29  C   UNL     1      53.406   6.365  19.468  0.00  0.00    +0.000 C 
ATOM     30  H   UNL     1      51.552   6.806  18.755  0.00  0.00    +0.000 HD
ENDBRANCH  23  24
ENDBRANCH  20  23
ENDBRANCH  16  17
ENDBRANCH   3  16
TORSDOF 5
ENDMDL
MODEL 6
REMARK VINA RESULT:    -7.013      4.127      6.367
REMARK INTER + INTRA:          -9.727
REMARK INTER:                  -8.963
REMARK INTRA:                  -0.764
REMARK UNBOUND:                -0.665
REMARK  Name = 
REMARK  5 active torsions:
REMARK  status: ('A' for Active; 'I' for Inactive)
REMARK    1  A    between atoms: C_2  and  C_18
REMARK    2  A    between atoms: N_3  and  C_4
REMARK    3  A    between atoms: C_4  and  C_5
REMARK    4  A    between atoms: C_8  and  C_9
REMARK    5  A    between atoms: C_9  and  C_10
REMARK                            x       y       z     vdW  Elec       q    Type
REMARK                         _______ _______ _______ _____ _____    ______ ____
ROOT
ATOM      1  O   UNL     1      50.112   6.227  19.097  0.00  0.00    +0.000 OA
ATOM      2  C   UNL     1      50.535   5.468  18.236  0.00  0.00    +0.000 C 
ATOM      3  N   UNL     1      50.013   5.429  16.967  0.00  0.00    +0.000 N 
ATOM      4  H   UNL     1      50.251   4.655  16.355  0.00  0.00    +0.000 HD
ENDROOT
BRANCH   2   5
ATOM      5  C   UNL     1      51.661   4.560  18.503  0.00  0.00    +0.000 A 
ATOM      6  C   UNL     1      52.738   5.002  19.268  0.00  0.00    +0.000 A 
ATOM      7  S   UNL     1      53.948   3.819  19.488  0.00  0.00    +0.000 S 
ATOM      8  C   UNL     1      53.059   2.661  18.613  0.00  0.00    +0.000 A 
ATOM      9  N   UNL     1      53.517   1.391  18.463  0.00  0.00    +0.000 NA
ATOM     10  C   UNL     1      52.725   0.611  17.811  0.00  0.00    +0.000 A 
ATOM     11  N   UNL     1      51.518   0.988  17.279  0.00  0.00    +0.000 N 
ATOM     12  C   UNL     1      51.031   2.271  17.365  0.00  0.00    +0.000 A 
ATOM     13  O   UNL     1      49.983   2.588  16.808  0.00  0.00    +0.000 OA
ATOM     14  C   UNL     1      51.872   3.183  18.124  0.00  0.00    +0.000 A 
ATOM     15  H   UNL     1      50.954   0.330  16.758  0.00  0.00    +0.000 HD
ENDBRANCH   2   5
BRANCH   3  16
ATOM     16  C   UNL     1      48.810   6.159  16.644  0.00  0.00    +0.000 C 
BRANCH  16  17
ATOM     17  C   UNL     1      48.040   5.502  15.536  0.00  0.00    +0.000 A 
ATOM     18  C   UNL     1      47.900   6.130  14.299  0.00  0.00    +0.000 A 
ATOM     19  C   UNL     1      47.161   5.520  13.291  0.00  0.00    +0.000 A 
ATOM     20  C   UNL     1      46.552   4.292  13.540  0.00  0.00    +0.000 A 
ATOM     21  N   UNL     1      46.691   3.648  14.723  0.00  0.00    +0.000 NA
ATOM     22  C   UNL     1      47.446   4.253  15.679  0.00  0.00    +0.000 A 
BRANCH  20  23
ATOM     23  C   UNL     1      45.770   3.607  12.444  0.00  0.00    +0.000 C 
BRANCH  23  24
ATOM     24  C   UNL     1      44.222   3.605  12.479  0.00  0.00    +0.000 C 
ATOM     25  C   UNL     1      43.514   3.547  11.118  0.00  0.00    +0.000 C 
ATOM     26  C   UNL     1      43.356   4.911  10.451  0.00  0.00    +0.000 C 
ATOM     27  C   UNL     1      42.894   6.006  11.412  0.00  0.00    +0.000 C 
ATOM     28  N   UNL     1      43.601   6.029  12.691  0.00  0.00    +0.000 NA
ATOM     29  C   UNL     1      43.610   4.721  13.337  0.00  0.00    +0.000 C 
ATOM     30  H   UNL     1      44.568   6.335  12.549  0.00  0.00    +0.000 HD
ENDBRANCH  23  24
ENDBRANCH  20  23
ENDBRANCH  16  17
ENDBRANCH   3  16
TORSDOF 5
ENDMDL
MODEL 7
REMARK VINA RESULT:    -7.006      3.469      9.804
REMARK INTER + INTRA:          -9.718
REMARK INTER:                  -8.402
REMARK INTRA:                  -1.315
REMARK UNBOUND:                -0.665
REMARK  Name = 
REMARK  5 active torsions:
REMARK  status: ('A' for Active; 'I' for Inactive)
REMARK    1  A    between atoms: C_2  and  C_18
REMARK    2  A    between atoms: N_3  and  C_4
REMARK    3  A    between atoms: C_4  and  C_5
REMARK    4  A    between atoms: C_8  and  C_9
REMARK    5  A    between atoms: C_9  and  C_10
REMARK                            x       y       z     vdW  Elec       q    Type
REMARK                         _______ _______ _______ _____ _____    ______ ____
ROOT
ATOM      1  O   UNL     1      48.415   5.770  14.082  0.00  0.00    +0.000 OA
ATOM      2  C   UNL     1      47.265   5.365  14.178  0.00  0.00    +0.000 C 
ATOM      3  N   UNL     1      46.841   4.593  15.232  0.00  0.00    +0.000 N 
ATOM      4  H   UNL     1      45.948   4.115  15.169  0.00  0.00    +0.000 HD
ENDROOT
BRANCH   2   5
ATOM      5  C   UNL     1      46.246   5.708  13.174  0.00  0.00    +0.000 A 
ATOM      6  C   UNL     1      46.004   7.045  12.865  0.00  0.00    +0.000 A 
ATOM      7  S   UNL     1      44.801   7.262  11.674  0.00  0.00    +0.000 S 
ATOM      8  C   UNL     1      44.593   5.582  11.493  0.00  0.00    +0.000 A 
ATOM      9  N   UNL     1      43.726   5.076  10.578  0.00  0.00    +0.000 NA
ATOM     10  C   UNL     1      43.698   3.790  10.523  0.00  0.00    +0.000 A 
ATOM     11  N   UNL     1      44.448   2.956  11.312  0.00  0.00    +0.000 N 
ATOM     12  C   UNL     1      45.307   3.417  12.283  0.00  0.00    +0.000 A 
ATOM     13  O   UNL     1      45.902   2.637  13.021  0.00  0.00    +0.000 OA
ATOM     14  C   UNL     1      45.402   4.865  12.360  0.00  0.00    +0.000 A 
ATOM     15  H   UNL     1      44.362   1.951  11.233  0.00  0.00    +0.000 HD
ENDBRANCH   2   5
BRANCH   3  16
ATOM     16  C   UNL     1      47.789   4.068  16.186  0.00  0.00    +0.000 C 
BRANCH  16  17
ATOM     17  C   UNL     1      47.993   5.005  17.341  0.00  0.00    +0.000 A 
ATOM     18  C   UNL     1      46.994   5.182  18.297  0.00  0.00    +0.000 A 
ATOM     19  C   UNL     1      47.188   6.074  19.347  0.00  0.00    +0.000 A 
ATOM     20  C   UNL     1      48.377   6.796  19.416  0.00  0.00    +0.000 A 
ATOM     21  N   UNL     1      49.374   6.627  18.515  0.00  0.00    +0.000 NA
ATOM     22  C   UNL     1      49.169   5.725  17.519  0.00  0.00    +0.000 A 
BRANCH  20  23
ATOM     23  C   UNL     1      48.609   7.747  20.567  0.00  0.00    +0.000 C 
BRANCH  23  24
ATOM     24  C   UNL     1      48.519   9.276  20.341  0.00  0.00    +0.000 C 
ATOM     25  C   UNL     1      47.394   9.760  19.417  0.00  0.00    +0.000 C 
ATOM     26  C   UNL     1      47.753   9.705  17.934  0.00  0.00    +0.000 C 
ATOM     27  C   UNL     1      49.155  10.231  17.630  0.00  0.00    +0.000 C 
ATOM     28  N   UNL     1      50.196   9.737  18.530  0.00  0.00    +0.000 NA
ATOM     29  C   UNL     1      49.847   9.931  19.933  0.00  0.00    +0.000 C 
ATOM     30  H   UNL     1      50.357   8.740  18.364  0.00  0.00    +0.000 HD
ENDBRANCH  23  24
ENDBRANCH  20  23
ENDBRANCH  16  17
ENDBRANCH   3  16
TORSDOF 5
ENDMDL
MODEL 8
REMARK VINA RESULT:    -6.949      3.353      8.669
REMARK INTER + INTRA:          -9.644
REMARK INTER:                  -8.617
REMARK INTRA:                  -1.028
REMARK UNBOUND:                -0.665
REMARK  Name = 
REMARK  5 active torsions:
REMARK  status: ('A' for Active; 'I' for Inactive)
REMARK    1  A    between atoms: C_2  and  C_18
REMARK    2  A    between atoms: N_3  and  C_4
REMARK    3  A    between atoms: C_4  and  C_5
REMARK    4  A    between atoms: C_8  and  C_9
REMARK    5  A    between atoms: C_9  and  C_10
REMARK                            x       y       z     vdW  Elec       q    Type
REMARK                         _______ _______ _______ _____ _____    ______ ____
ROOT
ATOM      1  O   UNL     1      45.543   7.985  11.769  0.00  0.00    +0.000 OA
ATOM      2  C   UNL     1      46.166   6.942  11.628  0.00  0.00    +0.000 C 
ATOM      3  N   UNL     1      47.426   6.762  12.143  0.00  0.00    +0.000 N 
ATOM      4  H   UNL     1      47.981   5.970  11.832  0.00  0.00    +0.000 HD
ENDROOT
BRANCH   2   5
ATOM      5  C   UNL     1      45.587   5.795  10.913  0.00  0.00    +0.000 A 
ATOM      6  C   UNL     1      45.837   5.631   9.552  0.00  0.00    +0.000 A 
ATOM      7  S   UNL     1      45.099   4.245   8.885  0.00  0.00    +0.000 S 
ATOM      8  C   UNL     1      44.460   3.786  10.395  0.00  0.00    +0.000 A 
ATOM      9  N   UNL     1      43.747   2.638  10.536  0.00  0.00    +0.000 NA
ATOM     10  C   UNL     1      43.357   2.397  11.740  0.00  0.00    +0.000 A 
ATOM     11  N   UNL     1      43.601   3.207  12.819  0.00  0.00    +0.000 N 
ATOM     12  C   UNL     1      44.277   4.401  12.721  0.00  0.00    +0.000 A 
ATOM     13  O   UNL     1      44.407   5.136  13.696  0.00  0.00    +0.000 OA
ATOM     14  C   UNL     1      44.771   4.702  11.387  0.00  0.00    +0.000 A 
ATOM     15  H   UNL     1      43.246   2.969  13.736  0.00  0.00    +0.000 HD
ENDBRANCH   2   5
BRANCH   3  16
ATOM     16  C   UNL     1      48.149   7.868  12.722  0.00  0.00    +0.000 C 
BRANCH  16  17
ATOM     17  C   UNL     1      48.476   7.625  14.166  0.00  0.00    +0.000 A 
ATOM     18  C   UNL     1      48.184   8.586  15.133  0.00  0.00    +0.000 A 
ATOM     19  C   UNL     1      48.517   8.357  16.463  0.00  0.00    +0.000 A 
ATOM     20  C   UNL     1      49.159   7.171  16.810  0.00  0.00    +0.000 A 
ATOM     21  N   UNL     1      49.434   6.209  15.898  0.00  0.00    +0.000 NA
ATOM     22  C   UNL     1      49.067   6.447  14.609  0.00  0.00    +0.000 A 
BRANCH  20  23
ATOM     23  C   UNL     1      49.500   6.899  18.256  0.00  0.00    +0.000 C 
BRANCH  23  24
ATOM     24  C   UNL     1      48.677   5.872  19.070  0.00  0.00    +0.000 C 
ATOM     25  C   UNL     1      49.290   4.472  19.213  0.00  0.00    +0.000 C 
ATOM     26  C   UNL     1      49.001   3.553  18.029  0.00  0.00    +0.000 C 
ATOM     27  C   UNL     1      47.550   3.614  17.554  0.00  0.00    +0.000 C 
ATOM     28  N   UNL     1      47.010   4.966  17.425  0.00  0.00    +0.000 NA
ATOM     29  C   UNL     1      47.209   5.755  18.636  0.00  0.00    +0.000 C 
ATOM     30  H   UNL     1      47.458   5.447  16.640  0.00  0.00    +0.000 HD
ENDBRANCH  23  24
ENDBRANCH  20  23
ENDBRANCH  16  17
ENDBRANCH   3  16
TORSDOF 5
ENDMDL
MODEL 9
REMARK VINA RESULT:    -6.923      4.492     10.128
REMARK INTER + INTRA:          -9.611
REMARK INTER:                  -8.681
REMARK INTRA:                  -0.930
REMARK UNBOUND:                -0.665
REMARK  Name = 
REMARK  5 active torsions:
REMARK  status: ('A' for Active; 'I' for Inactive)
REMARK    1  A    between atoms: C_2  and  C_18
REMARK    2  A    between atoms: N_3  and  C_4
REMARK    3  A    between atoms: C_4  and  C_5
REMARK    4  A    between atoms: C_8  and  C_9
REMARK    5  A    between atoms: C_9  and  C_10
REMARK                            x       y       z     vdW  Elec       q    Type
REMARK                         _______ _______ _______ _____ _____    ______ ____
ROOT
ATOM      1  O   UNL     1      47.020   3.155  13.702  0.00  0.00    +0.000 OA
ATOM      2  C   UNL     1      46.725   4.229  14.207  0.00  0.00    +0.000 C 
ATOM      3  N   UNL     1      47.040   4.545  15.505  0.00  0.00    +0.000 N 
ATOM      4  H   UNL     1      46.604   5.352  15.940  0.00  0.00    +0.000 HD
ENDROOT
BRANCH   2   5
ATOM      5  C   UNL     1      46.032   5.272  13.435  0.00  0.00    +0.000 A 
ATOM      6  C   UNL     1      46.667   6.488  13.191  0.00  0.00    +0.000 A 
ATOM      7  S   UNL     1      45.726   7.576  12.273  0.00  0.00    +0.000 S 
ATOM      8  C   UNL     1      44.458   6.450  12.127  0.00  0.00    +0.000 A 
ATOM      9  N   UNL     1      43.343   6.738  11.406  0.00  0.00    +0.000 NA
ATOM     10  C   UNL     1      42.483   5.781  11.350  0.00  0.00    +0.000 A 
ATOM     11  N   UNL     1      42.626   4.562  11.963  0.00  0.00    +0.000 N 
ATOM     12  C   UNL     1      43.713   4.238  12.740  0.00  0.00    +0.000 A 
ATOM     13  O   UNL     1      43.767   3.166  13.335  0.00  0.00    +0.000 OA
ATOM     14  C   UNL     1      44.732   5.273  12.806  0.00  0.00    +0.000 A 
ATOM     15  H   UNL     1      41.900   3.861  11.896  0.00  0.00    +0.000 HD
ENDBRANCH   2   5
BRANCH   3  16
ATOM     16  C   UNL     1      47.576   3.544  16.396  0.00  0.00    +0.000 C 
BRANCH  16  17
ATOM     17  C   UNL     1      47.821   4.095  17.770  0.00  0.00    +0.000 A 
ATOM     18  C   UNL     1      47.311   5.340  18.138  0.00  0.00    +0.000 A 
ATOM     19  C   UNL     1      47.569   5.849  19.406  0.00  0.00    +0.000 A 
ATOM     20  C   UNL     1      48.355   5.111  20.289  0.00  0.00    +0.000 A 
ATOM     21  N   UNL     1      48.844   3.890  19.968  0.00  0.00    +0.000 NA
ATOM     22  C   UNL     1      48.548   3.404  18.733  0.00  0.00    +0.000 A 
BRANCH  20  23
ATOM     23  C   UNL     1      48.619   5.642  21.678  0.00  0.00    +0.000 C 
BRANCH  23  24
ATOM     24  C   UNL     1      50.022   6.179  22.052  0.00  0.00    +0.000 C 
ATOM     25  C   UNL     1      50.596   7.269  21.137  0.00  0.00    +0.000 C 
ATOM     26  C   UNL     1      51.292   6.721  19.893  0.00  0.00    +0.000 C 
ATOM     27  C   UNL     1      52.203   5.529  20.183  0.00  0.00    +0.000 C 
ATOM     28  N   UNL     1      51.612   4.512  21.052  0.00  0.00    +0.000 NA
ATOM     29  C   UNL     1      51.075   5.085  22.281  0.00  0.00    +0.000 C 
ATOM     30  H   UNL     1      50.860   4.025  20.557  0.00  0.00    +0.000 HD
ENDBRANCH  23  24
ENDBRANCH  20  23
ENDBRANCH  16  17
ENDBRANCH   3  16
TORSDOF 5
ENDMDL
