MODEL 1
REMARK VINA RESULT:    -7.380      0.000      0.000
REMARK INTER + INTRA:          -9.729
REMARK INTER:                  -9.106
REMARK INTRA:                  -0.623
REMARK UNBOUND:                -0.623
REMARK  Name = 
REMARK  4 active torsions:
REMARK  status: ('A' for Active; 'I' for Inactive)
REMARK    1  A    between atoms: C_5  and  O_6
REMARK    2  A    between atoms: O_6  and  C_7
REMARK    3  A    between atoms: C_7  and  C_8
REMARK    4  A    between atoms: C_12  and  C_13
REMARK                            x       y       z     vdW  Elec       q    Type
REMARK                         _______ _______ _______ _____ _____    ______ ____
ROOT
ATOM      1  C   UNL     1      45.142   4.913  12.116  0.00  0.00    +0.000 A 
ATOM      2  C   UNL     1      45.447   3.796  12.896  0.00  0.00    +0.000 A 
ATOM      3  C   UNL     1      46.652   3.755  13.575  0.00  0.00    +0.000 A 
ATOM      4  N   UNL     1      47.572   4.742  13.533  0.00  0.00    +0.000 NA
ATOM      5  C   UNL     1      47.280   5.848  12.809  0.00  0.00    +0.000 A 
ATOM      6  C   UNL     1      46.077   5.960  12.115  0.00  0.00    +0.000 A 
ENDROOT
BRANCH   5   7
ATOM      7  C   UNL     1      48.314   6.889  12.756  0.00  0.00    +0.000 A 
ATOM      8  C   UNL     1      48.579   7.648  11.606  0.00  0.00    +0.000 A 
ATOM      9  C   UNL     1      49.605   8.589  11.598  0.00  0.00    +0.000 A 
ATOM     10  C   UNL     1      50.350   8.760  12.750  0.00  0.00    +0.000 A 
ATOM     11  N   UNL     1      50.132   8.068  13.886  0.00  0.00    +0.000 NA
ATOM     12  C   UNL     1      49.122   7.161  13.862  0.00  0.00    +0.000 A 
ENDBRANCH   5   7
BRANCH   1  13
ATOM     13  C   UNL     1      43.865   5.000  11.308  0.00  0.00    +0.000 C 
ATOM     14  C   UNL     1      42.586   5.401  12.048  0.00  0.00    +0.000 C 
ATOM     15  C   UNL     1      43.201   6.346  11.074  0.00  0.00    +0.000 C 
BRANCH  13  16
ATOM     16  O   UNL     1      43.641   3.920  10.370  0.00  0.00    +0.000 OA
BRANCH  16  21
ATOM     17 CL   UNL     1      47.357   2.210   6.334  0.00  0.00    +0.000 Cl
ATOM     18  C   UNL     1      46.375   2.779   7.615  0.00  0.00    +0.000 A 
ATOM     19  C   UNL     1      46.036   4.116   7.735  0.00  0.00    +0.000 A 
ATOM     20  N   UNL     1      45.188   4.570   8.691  0.00  0.00    +0.000 NA
ATOM     21  C   UNL     1      44.676   3.619   9.506  0.00  0.00    +0.000 A 
ATOM     22  C   UNL     1      45.052   2.284   9.405  0.00  0.00    +0.000 A 
ATOM     23  N   UNL     1      45.915   1.831   8.459  0.00  0.00    +0.000 NA
ENDBRANCH  16  21
ENDBRANCH  13  16
ENDBRANCH   1  13
TORSDOF 4
ENDMDL
MODEL 2
REMARK VINA RESULT:    -6.955      2.072      3.416
REMARK INTER + INTRA:          -9.205
REMARK INTER:                  -9.453
REMARK INTRA:                   0.248
REMARK UNBOUND:                -0.623
REMARK  Name = 
REMARK  4 active torsions:
REMARK  status: ('A' for Active; 'I' for Inactive)
REMARK    1  A    between atoms: C_5  and  O_6
REMARK    2  A    between atoms: O_6  and  C_7
REMARK    3  A    between atoms: C_7  and  C_8
REMARK    4  A    between atoms: C_12  and  C_13
REMARK                            x       y       z     vdW  Elec       q    Type
REMARK                         _______ _______ _______ _____ _____    ______ ____
ROOT
ATOM      1  C   UNL     1      45.553   5.179  12.464  0.00  0.00    +0.000 A 
ATOM      2  C   UNL     1      46.396   6.096  11.833  0.00  0.00    +0.000 A 
ATOM      3  C   UNL     1      47.567   6.479  12.462  0.00  0.00    +0.000 A 
ATOM      4  N   UNL     1      47.959   6.018  13.670  0.00  0.00    +0.000 NA
ATOM      5  C   UNL     1      47.170   5.103  14.282  0.00  0.00    +0.000 A 
ATOM      6  C   UNL     1      45.985   4.662  13.696  0.00  0.00    +0.000 A 
ENDROOT
BRANCH   5   7
ATOM      7  C   UNL     1      47.605   4.646  15.607  0.00  0.00    +0.000 A 
ATOM      8  C   UNL     1      47.239   3.403  16.149  0.00  0.00    +0.000 A 
ATOM      9  C   UNL     1      47.640   3.042  17.432  0.00  0.00    +0.000 A 
ATOM     10  C   UNL     1      48.410   3.933  18.155  0.00  0.00    +0.000 A 
ATOM     11  N   UNL     1      48.801   5.134  17.682  0.00  0.00    +0.000 NA
ATOM     12  C   UNL     1      48.397   5.454  16.426  0.00  0.00    +0.000 A 
ENDBRANCH   5   7
BRANCH   1  13
ATOM     13  C   UNL     1      44.233   4.756  11.856  0.00  0.00    +0.000 C 
ATOM     14  C   UNL     1      42.956   5.100  12.628  0.00  0.00    +0.000 C 
ATOM     15  C   UNL     1      43.257   5.803  11.349  0.00  0.00    +0.000 C 
BRANCH  13  16
ATOM     16  O   UNL     1      44.197   3.418  11.302  0.00  0.00    +0.000 OA
BRANCH  16  21
ATOM     17 CL   UNL     1      46.844   3.251   6.205  0.00  0.00    +0.000 Cl
ATOM     18  C   UNL     1      45.931   3.232   7.652  0.00  0.00    +0.000 A 
ATOM     19  C   UNL     1      45.774   2.076   8.399  0.00  0.00    +0.000 A 
ATOM     20  N   UNL     1      45.130   2.061   9.592  0.00  0.00    +0.000 NA
ATOM     21  C   UNL     1      44.671   3.263  10.014  0.00  0.00    +0.000 A 
ATOM     22  C   UNL     1      44.797   4.410   9.240  0.00  0.00    +0.000 A 
ATOM     23  N   UNL     1      45.427   4.424   8.037  0.00  0.00    +0.000 NA
ENDBRANCH  16  21
ENDBRANCH  13  16
ENDBRANCH   1  13
TORSDOF 4
ENDMDL
MODEL 3
REMARK VINA RESULT:    -6.817      3.128      6.594
REMARK INTER + INTRA:          -9.034
REMARK INTER:                  -8.661
REMARK INTRA:                  -0.373
REMARK UNBOUND:                -0.623
REMARK  Name = 
REMARK  4 active torsions:
REMARK  status: ('A' for Active; 'I' for Inactive)
REMARK    1  A    between atoms: C_5  and  O_6
REMARK    2  A    between atoms: O_6  and  C_7
REMARK    3  A    between atoms: C_7  and  C_8
REMARK    4  A    between atoms: C_12  and  C_13
REMARK                            x       y       z     vdW  Elec       q    Type
REMARK                         _______ _______ _______ _____ _____    ______ ____
ROOT
ATOM      1  C   UNL     1      45.473   6.314  11.689  0.00  0.00    +0.000 A 
ATOM      2  C   UNL     1      44.086   6.411  11.815  0.00  0.00    +0.000 A 
ATOM      3  C   UNL     1      43.279   5.618  11.019  0.00  0.00    +0.000 A 
ATOM      4  N   UNL     1      43.751   4.740  10.107  0.00  0.00    +0.000 NA
ATOM      5  C   UNL     1      45.094   4.609   9.994  0.00  0.00    +0.000 A 
ATOM      6  C   UNL     1      45.963   5.365  10.778  0.00  0.00    +0.000 A 
ENDROOT
BRANCH   5   7
ATOM      7  C   UNL     1      45.577   3.672   8.972  0.00  0.00    +0.000 A 
ATOM      8  C   UNL     1      46.133   4.087   7.752  0.00  0.00    +0.000 A 
ATOM      9  C   UNL     1      46.530   3.153   6.799  0.00  0.00    +0.000 A 
ATOM     10  C   UNL     1      46.368   1.811   7.086  0.00  0.00    +0.000 A 
ATOM     11  N   UNL     1      45.852   1.355   8.245  0.00  0.00    +0.000 NA
ATOM     12  C   UNL     1      45.479   2.291   9.155  0.00  0.00    +0.000 A 
ENDBRANCH   5   7
BRANCH   1  13
ATOM     13  C   UNL     1      46.412   7.188  12.493  0.00  0.00    +0.000 C 
ATOM     14  C   UNL     1      46.660   8.612  11.986  0.00  0.00    +0.000 C 
ATOM     15  C   UNL     1      45.877   8.399  13.236  0.00  0.00    +0.000 C 
BRANCH  13  16
ATOM     16  O   UNL     1      47.628   6.549  12.950  0.00  0.00    +0.000 OA
BRANCH  16  21
ATOM     17 CL   UNL     1      47.747   3.141  17.576  0.00  0.00    +0.000 Cl
ATOM     18  C   UNL     1      47.625   4.258  16.285  0.00  0.00    +0.000 A 
ATOM     19  C   UNL     1      48.394   5.408  16.242  0.00  0.00    +0.000 A 
ATOM     20  N   UNL     1      48.376   6.259  15.185  0.00  0.00    +0.000 NA
ATOM     21  C   UNL     1      47.568   5.889  14.163  0.00  0.00    +0.000 A 
ATOM     22  C   UNL     1      46.769   4.754  14.231  0.00  0.00    +0.000 A 
ATOM     23  N   UNL     1      46.774   3.911  15.296  0.00  0.00    +0.000 NA
ENDBRANCH  16  21
ENDBRANCH  13  16
ENDBRANCH   1  13
TORSDOF 4
ENDMDL
MODEL 4
REMARK VINA RESULT:    -6.670      1.687      2.472
REMARK INTER + INTRA:          -8.853
REMARK INTER:                  -8.605
REMARK INTRA:                  -0.248
REMARK UNBOUND:                -0.623
REMARK  Name = 
REMARK  4 active torsions:
REMARK  status: ('A' for Active; 'I' for Inactive)
REMARK    1  A    between atoms: C_5  and  O_6
REMARK    2  A    between atoms: O_6  and  C_7
REMARK    3  A    between atoms: C_7  and  C_8
REMARK    4  A    between atoms: C_12  and  C_13
REMARK                            x       y       z     vdW  Elec       q    Type
REMARK                         _______ _______ _______ _____ _____    ______ ____
ROOT
ATOM      1  C   UNL     1      45.035   6.528  12.169  0.00  0.00    +0.000 A 
ATOM      2  C   UNL     1      44.698   7.802  11.707  0.00  0.00    +0.000 A 
ATOM      3  C   UNL     1      45.535   8.866  11.993  0.00  0.00    +0.000 A 
ATOM      4  N   UNL     1      46.678   8.755  12.704  0.00  0.00    +0.000 NA
ATOM      5  C   UNL     1      47.037   7.521  13.132  0.00  0.00    +0.000 A 
ATOM      6  C   UNL     1      46.248   6.404  12.864  0.00  0.00    +0.000 A 
ENDROOT
BRANCH   5   7
ATOM      7  C   UNL     1      48.267   7.437  13.930  0.00  0.00    +0.000 A 
ATOM      8  C   UNL     1      49.371   8.279  13.729  0.00  0.00    +0.000 A 
ATOM      9  C   UNL     1      50.531   8.123  14.483  0.00  0.00    +0.000 A 
ATOM     10  C   UNL     1      50.564   7.123  15.437  0.00  0.00    +0.000 A 
ATOM     11  N   UNL     1      49.530   6.293  15.682  0.00  0.00    +0.000 NA
ATOM     12  C   UNL     1      48.413   6.475  14.933  0.00  0.00    +0.000 A 
ENDBRANCH   5   7
BRANCH   1  13
ATOM     13  C   UNL     1      44.139   5.330  11.935  0.00  0.00    +0.000 C 
ATOM     14  C   UNL     1      42.976   5.117  12.908  0.00  0.00    +0.000 C 
ATOM     15  C   UNL     1      42.697   5.530  11.503  0.00  0.00    +0.000 C 
BRANCH  13  16
ATOM     16  O   UNL     1      44.817   4.093  11.611  0.00  0.00    +0.000 OA
BRANCH  16  21
ATOM     17 CL   UNL     1      46.482   3.140   6.194  0.00  0.00    +0.000 Cl
ATOM     18  C   UNL     1      45.837   3.411   7.755  0.00  0.00    +0.000 A 
ATOM     19  C   UNL     1      45.344   2.374   8.530  0.00  0.00    +0.000 A 
ATOM     20  N   UNL     1      44.911   2.557   9.802  0.00  0.00    +0.000 NA
ATOM     21  C   UNL     1      45.016   3.823  10.270  0.00  0.00    +0.000 A 
ATOM     22  C   UNL     1      45.475   4.865   9.473  0.00  0.00    +0.000 A 
ATOM     23  N   UNL     1      45.892   4.687   8.193  0.00  0.00    +0.000 NA
ENDBRANCH  16  21
ENDBRANCH  13  16
ENDBRANCH   1  13
TORSDOF 4
ENDMDL
MODEL 5
REMARK VINA RESULT:    -6.224      3.630      7.025
REMARK INTER + INTRA:          -8.302
REMARK INTER:                  -7.948
REMARK INTRA:                  -0.354
REMARK UNBOUND:                -0.623
REMARK  Name = 
REMARK  4 active torsions:
REMARK  status: ('A' for Active; 'I' for Inactive)
REMARK    1  A    between atoms: C_5  and  O_6
REMARK    2  A    between atoms: O_6  and  C_7
REMARK    3  A    between atoms: C_7  and  C_8
REMARK    4  A    between atoms: C_12  and  C_13
REMARK                            x       y       z     vdW  Elec       q    Type
REMARK                         _______ _______ _______ _____ _____    ______ ____
ROOT
ATOM      1  C   UNL     1      46.670   7.353  12.770  0.00  0.00    +0.000 A 
ATOM      2  C   UNL     1      45.730   8.378  12.648  0.00  0.00    +0.000 A 
ATOM      3  C   UNL     1      44.655   8.209  11.795  0.00  0.00    +0.000 A 
ATOM      4  N   UNL     1      44.448   7.098  11.055  0.00  0.00    +0.000 NA
ATOM      5  C   UNL     1      45.333   6.080  11.185  0.00  0.00    +0.000 A 
ATOM      6  C   UNL     1      46.429   6.179  12.040  0.00  0.00    +0.000 A 
ENDROOT
BRANCH   5   7
ATOM      7  C   UNL     1      45.101   4.900  10.344  0.00  0.00    +0.000 A 
ATOM      8  C   UNL     1      45.561   4.797   9.021  0.00  0.00    +0.000 A 
ATOM      9  C   UNL     1      45.270   3.673   8.253  0.00  0.00    +0.000 A 
ATOM     10  C   UNL     1      44.522   2.661   8.826  0.00  0.00    +0.000 A 
ATOM     11  N   UNL     1      44.065   2.700  10.093  0.00  0.00    +0.000 NA
ATOM     12  C   UNL     1      44.370   3.808  10.817  0.00  0.00    +0.000 A 
ENDBRANCH   5   7
BRANCH   1  13
ATOM     13  C   UNL     1      47.897   7.493  13.647  0.00  0.00    +0.000 C 
ATOM     14  C   UNL     1      48.831   8.676  13.372  0.00  0.00    +0.000 C 
ATOM     15  C   UNL     1      48.011   8.656  14.617  0.00  0.00    +0.000 C 
BRANCH  13  16
ATOM     16  O   UNL     1      48.624   6.269  13.910  0.00  0.00    +0.000 OA
BRANCH  16  21
ATOM     17 CL   UNL     1      47.824   2.942  18.526  0.00  0.00    +0.000 Cl
ATOM     18  C   UNL     1      47.999   4.052  17.236  0.00  0.00    +0.000 A 
ATOM     19  C   UNL     1      49.012   4.995  17.219  0.00  0.00    +0.000 A 
ATOM     20  N   UNL     1      49.220   5.823  16.164  0.00  0.00    +0.000 NA
ATOM     21  C   UNL     1      48.379   5.645  15.118  0.00  0.00    +0.000 A 
ATOM     22  C   UNL     1      47.340   4.723  15.160  0.00  0.00    +0.000 A 
ATOM     23  N   UNL     1      47.120   3.906  16.221  0.00  0.00    +0.000 NA
ENDBRANCH  16  21
ENDBRANCH  13  16
ENDBRANCH   1  13
TORSDOF 4
ENDMDL
MODEL 6
REMARK VINA RESULT:    -6.153      3.876      6.658
REMARK INTER + INTRA:          -8.216
REMARK INTER:                  -7.699
REMARK INTRA:                  -0.517
REMARK UNBOUND:                -0.623
REMARK  Name = 
REMARK  4 active torsions:
REMARK  status: ('A' for Active; 'I' for Inactive)
REMARK    1  A    between atoms: C_5  and  O_6
REMARK    2  A    between atoms: O_6  and  C_7
REMARK    3  A    between atoms: C_7  and  C_8
REMARK    4  A    between atoms: C_12  and  C_13
REMARK                            x       y       z     vdW  Elec       q    Type
REMARK                         _______ _______ _______ _____ _____    ______ ____
ROOT
ATOM      1  C   UNL     1      45.235   6.661  12.169  0.00  0.00    +0.000 A 
ATOM      2  C   UNL     1      44.086   6.234  12.838  0.00  0.00    +0.000 A 
ATOM      3  C   UNL     1      43.419   5.110  12.384  0.00  0.00    +0.000 A 
ATOM      4  N   UNL     1      43.811   4.383  11.315  0.00  0.00    +0.000 NA
ATOM      5  C   UNL     1      44.941   4.763  10.674  0.00  0.00    +0.000 A 
ATOM      6  C   UNL     1      45.670   5.876  11.090  0.00  0.00    +0.000 A 
ENDROOT
BRANCH   5   7
ATOM      7  C   UNL     1      45.323   3.974   9.496  0.00  0.00    +0.000 A 
ATOM      8  C   UNL     1      45.232   2.574   9.449  0.00  0.00    +0.000 A 
ATOM      9  C   UNL     1      45.654   1.873   8.323  0.00  0.00    +0.000 A 
ATOM     10  C   UNL     1      46.159   2.589   7.254  0.00  0.00    +0.000 A 
ATOM     11  N   UNL     1      46.258   3.933   7.238  0.00  0.00    +0.000 NA
ATOM     12  C   UNL     1      45.833   4.587   8.350  0.00  0.00    +0.000 A 
ENDBRANCH   5   7
BRANCH   1  13
ATOM     13  C   UNL     1      45.983   7.910  12.582  0.00  0.00    +0.000 C 
ATOM     14  C   UNL     1      47.166   7.742  13.539  0.00  0.00    +0.000 C 
ATOM     15  C   UNL     1      47.413   8.130  12.122  0.00  0.00    +0.000 C 
BRANCH  13  16
ATOM     16  O   UNL     1      45.159   9.052  12.923  0.00  0.00    +0.000 OA
BRANCH  16  21
ATOM     17 CL   UNL     1      44.466  12.378   8.289  0.00  0.00    +0.000 Cl
ATOM     18  C   UNL     1      44.538  11.450   9.725  0.00  0.00    +0.000 A 
ATOM     19  C   UNL     1      43.747  10.328   9.907  0.00  0.00    +0.000 A 
ATOM     20  N   UNL     1      43.853   9.531  11.000  0.00  0.00    +0.000 NA
ATOM     21  C   UNL     1      44.805   9.897  11.889  0.00  0.00    +0.000 A 
ATOM     22  C   UNL     1      45.567  11.047  11.718  0.00  0.00    +0.000 A 
ATOM     23  N   UNL     1      45.450  11.855  10.634  0.00  0.00    +0.000 NA
ENDBRANCH  16  21
ENDBRANCH  13  16
ENDBRANCH   1  13
TORSDOF 4
ENDMDL
MODEL 7
REMARK VINA RESULT:    -5.833      4.083      7.663
REMARK INTER + INTRA:          -7.821
REMARK INTER:                  -7.187
REMARK INTRA:                  -0.634
REMARK UNBOUND:                -0.623
REMARK  Name = 
REMARK  4 active torsions:
REMARK  status: ('A' for Active; 'I' for Inactive)
REMARK    1  A    between atoms: C_5  and  O_6
REMARK    2  A    between atoms: O_6  and  C_7
REMARK    3  A    between atoms: C_7  and  C_8
REMARK    4  A    between atoms: C_12  and  C_13
REMARK                            x       y       z     vdW  Elec       q    Type
REMARK                         _______ _______ _______ _____ _____    ______ ____
ROOT
ATOM      1  C   UNL     1      47.630   7.638  12.649  0.00  0.00    +0.000 A 
ATOM      2  C   UNL     1      46.825   8.779  12.667  0.00  0.00    +0.000 A 
ATOM      3  C   UNL     1      45.464   8.647  12.458  0.00  0.00    +0.000 A 
ATOM      4  N   UNL     1      44.848   7.467  12.230  0.00  0.00    +0.000 NA
ATOM      5  C   UNL     1      45.608   6.346  12.241  0.00  0.00    +0.000 A 
ATOM      6  C   UNL     1      46.983   6.407  12.463  0.00  0.00    +0.000 A 
ENDROOT
BRANCH   5   7
ATOM      7  C   UNL     1      44.917   5.083  11.957  0.00  0.00    +0.000 A 
ATOM      8  C   UNL     1      44.785   4.553  10.664  0.00  0.00    +0.000 A 
ATOM      9  C   UNL     1      44.076   3.375  10.448  0.00  0.00    +0.000 A 
ATOM     10  C   UNL     1      43.510   2.739  11.537  0.00  0.00    +0.000 A 
ATOM     11  N   UNL     1      43.614   3.194  12.801  0.00  0.00    +0.000 NA
ATOM     12  C   UNL     1      44.316   4.343  12.979  0.00  0.00    +0.000 A 
ENDBRANCH   5   7
BRANCH   1  13
ATOM     13  C   UNL     1      49.132   7.717  12.820  0.00  0.00    +0.000 C 
ATOM     14  C   UNL     1      49.994   7.613  11.559  0.00  0.00    +0.000 C 
ATOM     15  C   UNL     1      49.900   8.912  12.283  0.00  0.00    +0.000 C 
BRANCH  13  16
ATOM     16  O   UNL     1      49.679   6.954  13.923  0.00  0.00    +0.000 OA
BRANCH  16  21
ATOM     17 CL   UNL     1      48.312   7.676  19.457  0.00  0.00    +0.000 Cl
ATOM     18  C   UNL     1      48.580   7.529  17.774  0.00  0.00    +0.000 A 
ATOM     19  C   UNL     1      48.972   8.610  17.002  0.00  0.00    +0.000 A 
ATOM     20  N   UNL     1      49.274   8.493  15.684  0.00  0.00    +0.000 NA
ATOM     21  C   UNL     1      49.188   7.239  15.183  0.00  0.00    +0.000 A 
ATOM     22  C   UNL     1      48.756   6.167  15.955  0.00  0.00    +0.000 A 
ATOM     23  N   UNL     1      48.436   6.285  17.269  0.00  0.00    +0.000 NA
ENDBRANCH  16  21
ENDBRANCH  13  16
ENDBRANCH   1  13
TORSDOF 4
ENDMDL
MODEL 8
REMARK VINA RESULT:    -5.558      5.397      7.622
REMARK INTER + INTRA:          -7.481
REMARK INTER:                  -7.243
REMARK INTRA:                  -0.238
REMARK UNBOUND:                -0.623
REMARK  Name = 
REMARK  4 active torsions:
REMARK  status: ('A' for Active; 'I' for Inactive)
REMARK    1  A    between atoms: C_5  and  O_6
REMARK    2  A    between atoms: O_6  and  C_7
REMARK    3  A    between atoms: C_7  and  C_8
REMARK    4  A    between atoms: C_12  and  C_13
REMARK                            x       y       z     vdW  Elec       q    Type
REMARK                         _______ _______ _______ _____ _____    ______ ____
ROOT
ATOM      1  C   UNL     1      44.788   9.320  11.646  0.00  0.00    +0.000 A 
ATOM      2  C   UNL     1      45.868   9.486  12.516  0.00  0.00    +0.000 A 
ATOM      3  C   UNL     1      46.425   8.373  13.119  0.00  0.00    +0.000 A 
ATOM      4  N   UNL     1      45.986   7.111  12.922  0.00  0.00    +0.000 NA
ATOM      5  C   UNL     1      44.961   6.927  12.057  0.00  0.00    +0.000 A 
ATOM      6  C   UNL     1      44.366   8.004  11.402  0.00  0.00    +0.000 A 
ENDROOT
BRANCH   5   7
ATOM      7  C   UNL     1      44.485   5.549  11.889  0.00  0.00    +0.000 A 
ATOM      8  C   UNL     1      44.393   4.916  10.639  0.00  0.00    +0.000 A 
ATOM      9  C   UNL     1      43.888   3.623  10.534  0.00  0.00    +0.000 A 
ATOM     10  C   UNL     1      43.485   2.978  11.688  0.00  0.00    +0.000 A 
ATOM     11  N   UNL     1      43.562   3.532  12.915  0.00  0.00    +0.000 NA
ATOM     12  C   UNL     1      44.063   4.792  12.984  0.00  0.00    +0.000 A 
ENDBRANCH   5   7
BRANCH   1  13
ATOM     13  C   UNL     1      44.100  10.499  10.992  0.00  0.00    +0.000 C 
ATOM     14  C   UNL     1      44.953  11.418  10.115  0.00  0.00    +0.000 C 
ATOM     15  C   UNL     1      43.928  10.541   9.484  0.00  0.00    +0.000 C 
BRANCH  13  16
ATOM     16  O   UNL     1      43.185  11.239  11.836  0.00  0.00    +0.000 OA
BRANCH  16  21
ATOM     17 CL   UNL     1      38.061  11.798   9.296  0.00  0.00    +0.000 Cl
ATOM     18  C   UNL     1      39.508  11.616  10.190  0.00  0.00    +0.000 A 
ATOM     19  C   UNL     1      39.939  10.377  10.635  0.00  0.00    +0.000 A 
ATOM     20  N   UNL     1      41.126  10.202  11.267  0.00  0.00    +0.000 NA
ATOM     21  C   UNL     1      41.872  11.322  11.411  0.00  0.00    +0.000 A 
ATOM     22  C   UNL     1      41.415  12.568  10.998  0.00  0.00    +0.000 A 
ATOM     23  N   UNL     1      40.219  12.748  10.381  0.00  0.00    +0.000 NA
ENDBRANCH  16  21
ENDBRANCH  13  16
ENDBRANCH   1  13
TORSDOF 4
ENDMDL
MODEL 9
REMARK VINA RESULT:    -5.438      5.094      7.092
REMARK INTER + INTRA:          -7.333
REMARK INTER:                  -6.802
REMARK INTRA:                  -0.531
REMARK UNBOUND:                -0.623
REMARK  Name = 
REMARK  4 active torsions:
REMARK  status: ('A' for Active; 'I' for Inactive)
REMARK    1  A    between atoms: C_5  and  O_6
REMARK    2  A    between atoms: O_6  and  C_7
REMARK    3  A    between atoms: C_7  and  C_8
REMARK    4  A    between atoms: C_12  and  C_13
REMARK                            x       y       z     vdW  Elec       q    Type
REMARK                         _______ _______ _______ _____ _____    ______ ____
ROOT
ATOM      1  C   UNL     1      48.624   5.413  17.172  0.00  0.00    +0.000 A 
ATOM      2  C   UNL     1      49.855   5.918  16.750  0.00  0.00    +0.000 A 
ATOM      3  C   UNL     1      50.327   7.095  17.304  0.00  0.00    +0.000 A 
ATOM      4  N   UNL     1      49.664   7.804  18.242  0.00  0.00    +0.000 NA
ATOM      5  C   UNL     1      48.483   7.313  18.687  0.00  0.00    +0.000 A 
ATOM      6  C   UNL     1      47.959   6.124  18.183  0.00  0.00    +0.000 A 
ENDROOT
BRANCH   5   7
ATOM      7  C   UNL     1      47.770   8.123  19.682  0.00  0.00    +0.000 A 
ATOM      8  C   UNL     1      47.203   9.373  19.389  0.00  0.00    +0.000 A 
ATOM      9  C   UNL     1      46.580  10.121  20.385  0.00  0.00    +0.000 A 
ATOM     10  C   UNL     1      46.529   9.599  21.664  0.00  0.00    +0.000 A 
ATOM     11  N   UNL     1      47.045   8.400  22.000  0.00  0.00    +0.000 NA
ATOM     12  C   UNL     1      47.642   7.694  21.005  0.00  0.00    +0.000 A 
ENDBRANCH   5   7
BRANCH   1  13
ATOM     13  C   UNL     1      48.026   4.158  16.572  0.00  0.00    +0.000 C 
ATOM     14  C   UNL     1      48.391   2.821  17.222  0.00  0.00    +0.000 C 
ATOM     15  C   UNL     1      47.005   3.351  17.354  0.00  0.00    +0.000 C 
BRANCH  13  16
ATOM     16  O   UNL     1      48.037   4.088  15.125  0.00  0.00    +0.000 OA
BRANCH  16  21
ATOM     17 CL   UNL     1      44.520   7.021  11.654  0.00  0.00    +0.000 Cl
ATOM     18  C   UNL     1      45.472   6.190  12.808  0.00  0.00    +0.000 A 
ATOM     19  C   UNL     1      45.085   4.966  13.325  0.00  0.00    +0.000 A 
ATOM     20  N   UNL     1      45.868   4.252  14.173  0.00  0.00    +0.000 NA
ATOM     21  C   UNL     1      47.067   4.812  14.458  0.00  0.00    +0.000 A 
ATOM     22  C   UNL     1      47.432   6.059  13.965  0.00  0.00    +0.000 A 
ATOM     23  N   UNL     1      46.641   6.783  13.131  0.00  0.00    +0.000 NA
ENDBRANCH  16  21
ENDBRANCH  13  16
ENDBRANCH   1  13
TORSDOF 4
ENDMDL
