MODEL 1
REMARK VINA RESULT:    -8.505      0.000      0.000
REMARK INTER + INTRA:         -11.959
REMARK INTER:                 -10.991
REMARK INTRA:                  -0.969
REMARK UNBOUND:                -0.969
REMARK  Name = 
REMARK  6 active torsions:
REMARK  status: ('A' for Active; 'I' for Inactive)
REMARK    1  A    between atoms: C_1  and  C_2
REMARK    2  A    between atoms: C_6  and  C_7
REMARK    3  A    between atoms: C_7  and  N_8
REMARK    4  A    between atoms: C_12  and  C_13
REMARK    5  A    between atoms: C_13  and  N_14
REMARK    6  A    between atoms: C_15  and  C_17
REMARK                            x       y       z     vdW  Elec       q    Type
REMARK                         _______ _______ _______ _____ _____    ______ ____
ROOT
ATOM      1  N   UNL     1      44.525   2.760  11.507  0.00  0.00    +0.000 N 
ATOM      2  C   UNL     1      45.243   3.626  12.320  0.00  0.00    +0.000 A 
ATOM      3  N   UNL     1      44.937   4.930  12.331  0.00  0.00    +0.000 NA
ATOM      4  C   UNL     1      45.696   5.735  13.086  0.00  0.00    +0.000 A 
ATOM      5  C   UNL     1      46.760   5.289  13.838  0.00  0.00    +0.000 A 
ATOM      6  C   UNL     1      46.968   3.931  13.790  0.00  0.00    +0.000 A 
ATOM      7  N   UNL     1      46.240   3.086  13.033  0.00  0.00    +0.000 NA
ATOM      8  H   UNL     1      45.119   1.951  11.359  0.00  0.00    +0.000 HD
ENDROOT
BRANCH   1   9
ATOM      9  C   UNL     1      44.092   3.414  10.278  0.00  0.00    +0.000 C 
BRANCH   9  15
ATOM     10  C   UNL     1      46.750   0.231   7.726  0.00  0.00    +0.000 C 
ATOM     11  C   UNL     1      46.353   1.661   7.944  0.00  0.00    +0.000 A 
ATOM     12  C   UNL     1      46.930   2.687   7.203  0.00  0.00    +0.000 A 
ATOM     13  C   UNL     1      46.543   3.999   7.459  0.00  0.00    +0.000 A 
ATOM     14  C   UNL     1      45.602   4.249   8.449  0.00  0.00    +0.000 A 
ATOM     15  C   UNL     1      45.071   3.171   9.156  0.00  0.00    +0.000 A 
ATOM     16  N   UNL     1      45.432   1.887   8.908  0.00  0.00    +0.000 NA
ENDBRANCH   9  15
ENDBRANCH   1   9
BRANCH   5  17
ATOM     17  C   UNL     1      47.576   6.219  14.663  0.00  0.00    +0.000 C 
BRANCH  17  18
ATOM     18  N   UNL     1      48.526   5.508  15.476  0.00  0.00    +0.000 N 
ATOM     19  C   UNL     1      48.895   5.943  16.724  0.00  0.00    +0.000 C 
ATOM     20  O   UNL     1      48.395   6.943  17.233  0.00  0.00    +0.000 OA
ATOM     21  H   UNL     1      48.766   4.565  15.186  0.00  0.00    +0.000 HD
BRANCH  19  22
ATOM     22  C   UNL     1      49.985   5.211  17.379  0.00  0.00    +0.000 A 
ATOM     23  C   UNL     1      50.985   5.911  18.042  0.00  0.00    +0.000 A 
ATOM     24  S   UNL     1      52.316   4.936  18.481  0.00  0.00    +0.000 S 
ATOM     25  C   UNL     1      51.568   3.543  17.852  0.00  0.00    +0.000 A 
ATOM     26  N   UNL     1      52.219   2.349  17.812  0.00  0.00    +0.000 NA
ATOM     27  C   UNL     1      51.509   1.370  17.359  0.00  0.00    +0.000 A 
ATOM     28  N   UNL     1      50.196   1.467  16.978  0.00  0.00    +0.000 N 
ATOM     29  C   UNL     1      49.499   2.649  17.008  0.00  0.00    +0.000 A 
ATOM     30  O   UNL     1      48.308   2.698  16.712  0.00  0.00    +0.000 OA
ATOM     31  C   UNL     1      50.281   3.800  17.418  0.00  0.00    +0.000 A 
ATOM     32  H   UNL     1      49.678   0.648  16.694  0.00  0.00    +0.000 HD
ENDBRANCH  19  22
ENDBRANCH  17  18
ENDBRANCH   5  17
TORSDOF 5
ENDMDL
MODEL 2
REMARK VINA RESULT:    -8.216      4.008      6.266
REMARK INTER + INTRA:         -11.586
REMARK INTER:                 -10.597
REMARK INTRA:                  -0.989
REMARK UNBOUND:                -0.969
REMARK  Name = 
REMARK  6 active torsions:
REMARK  status: ('A' for Active; 'I' for Inactive)
REMARK    1  A    between atoms: C_1  and  C_2
REMARK    2  A    between atoms: C_6  and  C_7
REMARK    3  A    between atoms: C_7  and  N_8
REMARK    4  A    between atoms: C_12  and  C_13
REMARK    5  A    between atoms: C_13  and  N_14
REMARK    6  A    between atoms: C_15  and  C_17
REMARK                            x       y       z     vdW  Elec       q    Type
REMARK                         _______ _______ _______ _____ _____    ______ ____
ROOT
ATOM      1  N   UNL     1      44.428   2.713  11.552  0.00  0.00    +0.000 N 
ATOM      2  C   UNL     1      45.156   3.647  12.278  0.00  0.00    +0.000 A 
ATOM      3  N   UNL     1      44.821   4.941  12.213  0.00  0.00    +0.000 NA
ATOM      4  C   UNL     1      45.590   5.811  12.884  0.00  0.00    +0.000 A 
ATOM      5  C   UNL     1      46.689   5.437  13.623  0.00  0.00    +0.000 A 
ATOM      6  C   UNL     1      46.926   4.083  13.658  0.00  0.00    +0.000 A 
ATOM      7  N   UNL     1      46.190   3.176  12.988  0.00  0.00    +0.000 NA
ATOM      8  H   UNL     1      45.035   1.908  11.436  0.00  0.00    +0.000 HD
ENDROOT
BRANCH   1   9
ATOM      9  C   UNL     1      43.937   3.274  10.300  0.00  0.00    +0.000 C 
BRANCH   9  15
ATOM     10  C   UNL     1      46.729   0.232   7.720  0.00  0.00    +0.000 C 
ATOM     11  C   UNL     1      46.283   1.643   7.962  0.00  0.00    +0.000 A 
ATOM     12  C   UNL     1      46.837   2.702   7.251  0.00  0.00    +0.000 A 
ATOM     13  C   UNL     1      46.405   3.996   7.527  0.00  0.00    +0.000 A 
ATOM     14  C   UNL     1      45.444   4.195   8.510  0.00  0.00    +0.000 A 
ATOM     15  C   UNL     1      44.938   3.086   9.187  0.00  0.00    +0.000 A 
ATOM     16  N   UNL     1      45.343   1.820   8.917  0.00  0.00    +0.000 NA
ENDBRANCH   9  15
ENDBRANCH   1   9
BRANCH   5  17
ATOM     17  C   UNL     1      47.514   6.437  14.353  0.00  0.00    +0.000 C 
BRANCH  17  18
ATOM     18  N   UNL     1      47.500   7.716  13.694  0.00  0.00    +0.000 N 
ATOM     19  C   UNL     1      48.295   7.992  12.611  0.00  0.00    +0.000 C 
ATOM     20  O   UNL     1      49.031   7.141  12.116  0.00  0.00    +0.000 OA
ATOM     21  H   UNL     1      46.737   8.345  13.925  0.00  0.00    +0.000 HD
BRANCH  19  22
ATOM     22  C   UNL     1      48.296   9.380  12.133  0.00  0.00    +0.000 A 
ATOM     23  C   UNL     1      49.499  10.008  11.840  0.00  0.00    +0.000 A 
ATOM     24  S   UNL     1      49.342  11.689  11.591  0.00  0.00    +0.000 S 
ATOM     25  C   UNL     1      47.655  11.615  11.808  0.00  0.00    +0.000 A 
ATOM     26  N   UNL     1      46.895  12.743  11.823  0.00  0.00    +0.000 NA
ATOM     27  C   UNL     1      45.627  12.529  11.942  0.00  0.00    +0.000 A 
ATOM     28  N   UNL     1      45.046  11.289  12.008  0.00  0.00    +0.000 N 
ATOM     29  C   UNL     1      45.774  10.126  11.990  0.00  0.00    +0.000 A 
ATOM     30  O   UNL     1      45.225   9.027  11.996  0.00  0.00    +0.000 OA
ATOM     31  C   UNL     1      47.211  10.314  11.955  0.00  0.00    +0.000 A 
ATOM     32  H   UNL     1      44.042  11.190  12.034  0.00  0.00    +0.000 HD
ENDBRANCH  19  22
ENDBRANCH  17  18
ENDBRANCH   5  17
TORSDOF 5
ENDMDL
MODEL 3
REMARK VINA RESULT:    -8.073      2.130      2.589
REMARK INTER + INTRA:         -11.401
REMARK INTER:                 -10.610
REMARK INTRA:                  -0.791
REMARK UNBOUND:                -0.969
REMARK  Name = 
REMARK  6 active torsions:
REMARK  status: ('A' for Active; 'I' for Inactive)
REMARK    1  A    between atoms: C_1  and  C_2
REMARK    2  A    between atoms: C_6  and  C_7
REMARK    3  A    between atoms: C_7  and  N_8
REMARK    4  A    between atoms: C_12  and  C_13
REMARK    5  A    between atoms: C_13  and  N_14
REMARK    6  A    between atoms: C_15  and  C_17
REMARK                            x       y       z     vdW  Elec       q    Type
REMARK                         _______ _______ _______ _____ _____    ______ ____
ROOT
ATOM      1  N   UNL     1      44.113   4.782  10.014  0.00  0.00    +0.000 N 
ATOM      2  C   UNL     1      44.840   5.700  10.761  0.00  0.00    +0.000 A 
ATOM      3  N   UNL     1      46.154   5.516  10.939  0.00  0.00    +0.000 NA
ATOM      4  C   UNL     1      46.800   6.397  11.716  0.00  0.00    +0.000 A 
ATOM      5  C   UNL     1      46.182   7.462  12.329  0.00  0.00    +0.000 A 
ATOM      6  C   UNL     1      44.840   7.586  12.053  0.00  0.00    +0.000 A 
ATOM      7  N   UNL     1      44.148   6.718  11.291  0.00  0.00    +0.000 NA
ATOM      8  H   UNL     1      43.146   4.882  10.304  0.00  0.00    +0.000 HD
ENDROOT
BRANCH   1   9
ATOM      9  C   UNL     1      44.644   3.433  10.163  0.00  0.00    +0.000 C 
BRANCH   9  15
ATOM     10  C   UNL     1      46.794  -0.159   7.675  0.00  0.00    +0.000 C 
ATOM     11  C   UNL     1      46.429   1.294   7.738  0.00  0.00    +0.000 A 
ATOM     12  C   UNL     1      46.836   2.181   6.747  0.00  0.00    +0.000 A 
ATOM     13  C   UNL     1      46.489   3.523   6.863  0.00  0.00    +0.000 A 
ATOM     14  C   UNL     1      45.757   3.943   7.966  0.00  0.00    +0.000 A 
ATOM     15  C   UNL     1      45.388   2.999   8.924  0.00  0.00    +0.000 A 
ATOM     16  N   UNL     1      45.711   1.685   8.815  0.00  0.00    +0.000 NA
ENDBRANCH   9  15
ENDBRANCH   1   9
BRANCH   5  17
ATOM     17  C   UNL     1      46.939   8.416  13.184  0.00  0.00    +0.000 C 
BRANCH  17  18
ATOM     18  N   UNL     1      47.336   7.811  14.427  0.00  0.00    +0.000 N 
ATOM     19  C   UNL     1      48.598   7.313  14.631  0.00  0.00    +0.000 C 
ATOM     20  O   UNL     1      49.474   7.402  13.773  0.00  0.00    +0.000 OA
ATOM     21  H   UNL     1      46.718   7.944  15.222  0.00  0.00    +0.000 HD
BRANCH  19  22
ATOM     22  C   UNL     1      48.822   6.585  15.886  0.00  0.00    +0.000 A 
ATOM     23  C   UNL     1      49.658   7.124  16.855  0.00  0.00    +0.000 A 
ATOM     24  S   UNL     1      50.042   6.024  18.104  0.00  0.00    +0.000 S 
ATOM     25  C   UNL     1      49.055   4.820  17.416  0.00  0.00    +0.000 A 
ATOM     26  N   UNL     1      49.005   3.565  17.938  0.00  0.00    +0.000 NA
ATOM     27  C   UNL     1      48.173   2.774  17.346  0.00  0.00    +0.000 A 
ATOM     28  N   UNL     1      47.359   3.134  16.303  0.00  0.00    +0.000 N 
ATOM     29  C   UNL     1      47.372   4.390  15.750  0.00  0.00    +0.000 A 
ATOM     30  O   UNL     1      46.595   4.703  14.852  0.00  0.00    +0.000 OA
ATOM     31  C   UNL     1      48.360   5.289  16.317  0.00  0.00    +0.000 A 
ATOM     32  H   UNL     1      46.683   2.486  15.928  0.00  0.00    +0.000 HD
ENDBRANCH  19  22
ENDBRANCH  17  18
ENDBRANCH   5  17
TORSDOF 5
ENDMDL
MODEL 4
REMARK VINA RESULT:    -8.029      2.036      2.077
REMARK INTER + INTRA:         -11.344
REMARK INTER:                 -10.493
REMARK INTRA:                  -0.852
REMARK UNBOUND:                -0.969
REMARK  Name = 
REMARK  6 active torsions:
REMARK  status: ('A' for Active; 'I' for Inactive)
REMARK    1  A    between atoms: C_1  and  C_2
REMARK    2  A    between atoms: C_6  and  C_7
REMARK    3  A    between atoms: C_7  and  N_8
REMARK    4  A    between atoms: C_12  and  C_13
REMARK    5  A    between atoms: C_13  and  N_14
REMARK    6  A    between atoms: C_15  and  C_17
REMARK                            x       y       z     vdW  Elec       q    Type
REMARK                         _______ _______ _______ _____ _____    ______ ____
ROOT
ATOM      1  N   UNL     1      44.540   2.778  11.699  0.00  0.00    +0.000 N 
ATOM      2  C   UNL     1      45.237   3.882  12.172  0.00  0.00    +0.000 A 
ATOM      3  N   UNL     1      44.781   5.113  11.910  0.00  0.00    +0.000 NA
ATOM      4  C   UNL     1      45.520   6.147  12.337  0.00  0.00    +0.000 A 
ATOM      5  C   UNL     1      46.707   6.001  13.018  0.00  0.00    +0.000 A 
ATOM      6  C   UNL     1      47.068   4.699  13.270  0.00  0.00    +0.000 A 
ATOM      7  N   UNL     1      46.365   3.630  12.849  0.00  0.00    +0.000 NA
ATOM      8  H   UNL     1      45.206   2.013  11.669  0.00  0.00    +0.000 HD
ENDROOT
BRANCH   1   9
ATOM      9  C   UNL     1      43.896   3.058  10.421  0.00  0.00    +0.000 C 
BRANCH   9  15
ATOM     10  C   UNL     1      46.796   0.249   7.700  0.00  0.00    +0.000 C 
ATOM     11  C   UNL     1      46.276   1.626   7.988  0.00  0.00    +0.000 A 
ATOM     12  C   UNL     1      46.750   2.732   7.293  0.00  0.00    +0.000 A 
ATOM     13  C   UNL     1      46.251   3.991   7.613  0.00  0.00    +0.000 A 
ATOM     14  C   UNL     1      45.304   4.110   8.622  0.00  0.00    +0.000 A 
ATOM     15  C   UNL     1      44.880   2.957   9.281  0.00  0.00    +0.000 A 
ATOM     16  N   UNL     1      45.351   1.723   8.969  0.00  0.00    +0.000 NA
ENDBRANCH   9  15
ENDBRANCH   1   9
BRANCH   5  17
ATOM     17  C   UNL     1      47.494   7.178  13.473  0.00  0.00    +0.000 C 
BRANCH  17  18
ATOM     18  N   UNL     1      47.729   7.139  14.892  0.00  0.00    +0.000 N 
ATOM     19  C   UNL     1      48.982   6.969  15.424  0.00  0.00    +0.000 C 
ATOM     20  O   UNL     1      49.981   6.888  14.713  0.00  0.00    +0.000 OA
ATOM     21  H   UNL     1      46.970   7.445  15.493  0.00  0.00    +0.000 HD
BRANCH  19  22
ATOM     22  C   UNL     1      49.060   6.794  16.879  0.00  0.00    +0.000 A 
ATOM     23  C   UNL     1      49.712   7.743  17.655  0.00  0.00    +0.000 A 
ATOM     24  S   UNL     1      49.969   7.240  19.266  0.00  0.00    +0.000 S 
ATOM     25  C   UNL     1      49.163   5.767  18.988  0.00  0.00    +0.000 A 
ATOM     26  N   UNL     1      49.106   4.802  19.945  0.00  0.00    +0.000 NA
ATOM     27  C   UNL     1      48.417   3.761  19.613  0.00  0.00    +0.000 A 
ATOM     28  N   UNL     1      47.746   3.614  18.426  0.00  0.00    +0.000 N 
ATOM     29  C   UNL     1      47.771   4.565  17.436  0.00  0.00    +0.000 A 
ATOM     30  O   UNL     1      47.118   4.432  16.405  0.00  0.00    +0.000 OA
ATOM     31  C   UNL     1      48.612   5.711  17.722  0.00  0.00    +0.000 A 
ATOM     32  H   UNL     1      47.171   2.804  18.255  0.00  0.00    +0.000 HD
ENDBRANCH  19  22
ENDBRANCH  17  18
ENDBRANCH   5  17
TORSDOF 5
ENDMDL
MODEL 5
REMARK VINA RESULT:    -7.361      2.493      3.460
REMARK INTER + INTRA:         -10.481
REMARK INTER:                  -9.763
REMARK INTRA:                  -0.718
REMARK UNBOUND:                -0.969
REMARK  Name = 
REMARK  6 active torsions:
REMARK  status: ('A' for Active; 'I' for Inactive)
REMARK    1  A    between atoms: C_1  and  C_2
REMARK    2  A    between atoms: C_6  and  C_7
REMARK    3  A    between atoms: C_7  and  N_8
REMARK    4  A    between atoms: C_12  and  C_13
REMARK    5  A    between atoms: C_13  and  N_14
REMARK    6  A    between atoms: C_15  and  C_17
REMARK                            x       y       z     vdW  Elec       q    Type
REMARK                         _______ _______ _______ _____ _____    ______ ____
ROOT
ATOM      1  N   UNL     1      44.150   3.722  10.495  0.00  0.00    +0.000 N 
ATOM      2  C   UNL     1      45.019   4.477  11.273  0.00  0.00    +0.000 A 
ATOM      3  N   UNL     1      45.322   5.728  10.902  0.00  0.00    +0.000 NA
ATOM      4  C   UNL     1      46.211   6.394  11.652  0.00  0.00    +0.000 A 
ATOM      5  C   UNL     1      46.816   5.859  12.766  0.00  0.00    +0.000 A 
ATOM      6  C   UNL     1      46.410   4.584  13.084  0.00  0.00    +0.000 A 
ATOM      7  N   UNL     1      45.532   3.872  12.352  0.00  0.00    +0.000 NA
ATOM      8  H   UNL     1      44.344   2.751  10.715  0.00  0.00    +0.000 HD
ENDROOT
BRANCH   1   9
ATOM      9  C   UNL     1      44.277   4.051   9.081  0.00  0.00    +0.000 C 
BRANCH   9  15
ATOM     10  C   UNL     1      47.279   3.225   5.337  0.00  0.00    +0.000 C 
ATOM     11  C   UNL     1      46.649   2.701   6.593  0.00  0.00    +0.000 A 
ATOM     12  C   UNL     1      46.874   1.397   7.020  0.00  0.00    +0.000 A 
ATOM     13  C   UNL     1      46.249   0.953   8.180  0.00  0.00    +0.000 A 
ATOM     14  C   UNL     1      45.411   1.816   8.874  0.00  0.00    +0.000 A 
ATOM     15  C   UNL     1      45.227   3.108   8.384  0.00  0.00    +0.000 A 
ATOM     16  N   UNL     1      45.840   3.556   7.260  0.00  0.00    +0.000 NA
ENDBRANCH   9  15
ENDBRANCH   1   9
BRANCH   5  17
ATOM     17  C   UNL     1      47.797   6.636  13.569  0.00  0.00    +0.000 C 
BRANCH  17  18
ATOM     18  N   UNL     1      47.808   6.213  14.944  0.00  0.00    +0.000 N 
ATOM     19  C   UNL     1      48.823   6.541  15.806  0.00  0.00    +0.000 C 
ATOM     20  O   UNL     1      49.759   7.257  15.458  0.00  0.00    +0.000 OA
ATOM     21  H   UNL     1      46.942   5.834  15.316  0.00  0.00    +0.000 HD
BRANCH  19  22
ATOM     22  C   UNL     1      48.786   5.916  17.134  0.00  0.00    +0.000 A 
ATOM     23  C   UNL     1      49.020   4.553  17.261  0.00  0.00    +0.000 A 
ATOM     24  S   UNL     1      48.646   3.945  18.812  0.00  0.00    +0.000 S 
ATOM     25  C   UNL     1      48.219   5.494  19.372  0.00  0.00    +0.000 A 
ATOM     26  N   UNL     1      47.701   5.676  20.617  0.00  0.00    +0.000 NA
ATOM     27  C   UNL     1      47.475   6.910  20.925  0.00  0.00    +0.000 A 
ATOM     28  N   UNL     1      47.756   7.981  20.116  0.00  0.00    +0.000 N 
ATOM     29  C   UNL     1      48.284   7.843  18.857  0.00  0.00    +0.000 A 
ATOM     30  O   UNL     1      48.576   8.822  18.174  0.00  0.00    +0.000 OA
ATOM     31  C   UNL     1      48.466   6.471  18.426  0.00  0.00    +0.000 A 
ATOM     32  H   UNL     1      47.616   8.925  20.443  0.00  0.00    +0.000 HD
ENDBRANCH  19  22
ENDBRANCH  17  18
ENDBRANCH   5  17
TORSDOF 5
ENDMDL
MODEL 6
REMARK VINA RESULT:    -7.216      2.300      2.945
REMARK INTER + INTRA:         -10.295
REMARK INTER:                  -9.515
REMARK INTRA:                  -0.779
REMARK UNBOUND:                -0.969
REMARK  Name = 
REMARK  6 active torsions:
REMARK  status: ('A' for Active; 'I' for Inactive)
REMARK    1  A    between atoms: C_1  and  C_2
REMARK    2  A    between atoms: C_6  and  C_7
REMARK    3  A    between atoms: C_7  and  N_8
REMARK    4  A    between atoms: C_12  and  C_13
REMARK    5  A    between atoms: C_13  and  N_14
REMARK    6  A    between atoms: C_15  and  C_17
REMARK                            x       y       z     vdW  Elec       q    Type
REMARK                         _______ _______ _______ _____ _____    ______ ____
ROOT
ATOM      1  N   UNL     1      44.396   6.320  10.598  0.00  0.00    +0.000 N 
ATOM      2  C   UNL     1      45.365   6.860  11.434  0.00  0.00    +0.000 A 
ATOM      3  N   UNL     1      46.292   6.060  11.975  0.00  0.00    +0.000 NA
ATOM      4  C   UNL     1      47.170   6.618  12.821  0.00  0.00    +0.000 A 
ATOM      5  C   UNL     1      47.158   7.953  13.153  0.00  0.00    +0.000 A 
ATOM      6  C   UNL     1      46.192   8.696  12.516  0.00  0.00    +0.000 A 
ATOM      7  N   UNL     1      45.281   8.175  11.671  0.00  0.00    +0.000 NA
ATOM      8  H   UNL     1      43.618   6.971  10.607  0.00  0.00    +0.000 HD
ENDROOT
BRANCH   1   9
ATOM      9  C   UNL     1      44.042   4.963  10.997  0.00  0.00    +0.000 C 
BRANCH   9  15
ATOM     10  C   UNL     1      46.699   4.063   7.016  0.00  0.00    +0.000 C 
ATOM     11  C   UNL     1      45.838   3.512   8.114  0.00  0.00    +0.000 A 
ATOM     12  C   UNL     1      45.505   2.164   8.158  0.00  0.00    +0.000 A 
ATOM     13  C   UNL     1      44.685   1.706   9.185  0.00  0.00    +0.000 A 
ATOM     14  C   UNL     1      44.215   2.608  10.131  0.00  0.00    +0.000 A 
ATOM     15  C   UNL     1      44.585   3.948  10.021  0.00  0.00    +0.000 A 
ATOM     16  N   UNL     1      45.393   4.403   9.030  0.00  0.00    +0.000 NA
ENDBRANCH   9  15
ENDBRANCH   1   9
BRANCH   5  17
ATOM     17  C   UNL     1      48.152   8.530  14.098  0.00  0.00    +0.000 C 
BRANCH  17  18
ATOM     18  N   UNL     1      48.184   7.804  15.339  0.00  0.00    +0.000 N 
ATOM     19  C   UNL     1      49.306   7.144  15.775  0.00  0.00    +0.000 C 
ATOM     20  O   UNL     1      50.361   7.179  15.145  0.00  0.00    +0.000 OA
ATOM     21  H   UNL     1      47.417   7.961  15.985  0.00  0.00    +0.000 HD
BRANCH  19  22
ATOM     22  C   UNL     1      49.155   6.317  16.978  0.00  0.00    +0.000 A 
ATOM     23  C   UNL     1      49.834   6.661  18.140  0.00  0.00    +0.000 A 
ATOM     24  S   UNL     1      49.787   5.443  19.335  0.00  0.00    +0.000 S 
ATOM     25  C   UNL     1      48.811   4.450  18.358  0.00  0.00    +0.000 A 
ATOM     26  N   UNL     1      48.477   3.189  18.744  0.00  0.00    +0.000 NA
ATOM     27  C   UNL     1      47.688   2.572  17.928  0.00  0.00    +0.000 A 
ATOM     28  N   UNL     1      47.172   3.116  16.780  0.00  0.00    +0.000 N 
ATOM     29  C   UNL     1      47.476   4.385  16.356  0.00  0.00    +0.000 A 
ATOM     30  O   UNL     1      46.958   4.867  15.352  0.00  0.00    +0.000 OA
ATOM     31  C   UNL     1      48.437   5.085  17.188  0.00  0.00    +0.000 A 
ATOM     32  H   UNL     1      46.507   2.603  16.220  0.00  0.00    +0.000 HD
ENDBRANCH  19  22
ENDBRANCH  17  18
ENDBRANCH   5  17
TORSDOF 5
ENDMDL
MODEL 7
REMARK VINA RESULT:    -7.043      2.472      3.376
REMARK INTER + INTRA:         -10.070
REMARK INTER:                  -9.250
REMARK INTRA:                  -0.820
REMARK UNBOUND:                -0.969
REMARK  Name = 
REMARK  6 active torsions:
REMARK  status: ('A' for Active; 'I' for Inactive)
REMARK    1  A    between atoms: C_1  and  C_2
REMARK    2  A    between atoms: C_6  and  C_7
REMARK    3  A    between atoms: C_7  and  N_8
REMARK    4  A    between atoms: C_12  and  C_13
REMARK    5  A    between atoms: C_13  and  N_14
REMARK    6  A    between atoms: C_15  and  C_17
REMARK                            x       y       z     vdW  Elec       q    Type
REMARK                         _______ _______ _______ _____ _____    ______ ____
ROOT
ATOM      1  N   UNL     1      44.775   4.046  10.959  0.00  0.00    +0.000 N 
ATOM      2  C   UNL     1      45.202   5.256  11.490  0.00  0.00    +0.000 A 
ATOM      3  N   UNL     1      44.663   6.399  11.048  0.00  0.00    +0.000 NA
ATOM      4  C   UNL     1      45.150   7.544  11.548  0.00  0.00    +0.000 A 
ATOM      5  C   UNL     1      46.162   7.594  12.479  0.00  0.00    +0.000 A 
ATOM      6  C   UNL     1      46.621   6.367  12.897  0.00  0.00    +0.000 A 
ATOM      7  N   UNL     1      46.172   5.193  12.412  0.00  0.00    +0.000 NA
ATOM      8  H   UNL     1      45.522   3.381  11.129  0.00  0.00    +0.000 HD
ENDROOT
BRANCH   1   9
ATOM      9  C   UNL     1      44.405   4.180   9.555  0.00  0.00    +0.000 C 
BRANCH   9  15
ATOM     10  C   UNL     1      47.028   3.663   5.485  0.00  0.00    +0.000 C 
ATOM     11  C   UNL     1      46.490   3.029   6.733  0.00  0.00    +0.000 A 
ATOM     12  C   UNL     1      46.699   1.680   7.000  0.00  0.00    +0.000 A 
ATOM     13  C   UNL     1      46.161   1.134   8.161  0.00  0.00    +0.000 A 
ATOM     14  C   UNL     1      45.423   1.945   9.015  0.00  0.00    +0.000 A 
ATOM     15  C   UNL     1      45.250   3.287   8.680  0.00  0.00    +0.000 A 
ATOM     16  N   UNL     1      45.780   3.833   7.556  0.00  0.00    +0.000 NA
ENDBRANCH   9  15
ENDBRANCH   1   9
BRANCH   5  17
ATOM     17  C   UNL     1      46.671   8.888  13.008  0.00  0.00    +0.000 C 
BRANCH  17  18
ATOM     18  N   UNL     1      46.951   8.809  14.417  0.00  0.00    +0.000 N 
ATOM     19  C   UNL     1      48.226   8.889  14.918  0.00  0.00    +0.000 C 
ATOM     20  O   UNL     1      49.196   9.080  14.188  0.00  0.00    +0.000 OA
ATOM     21  H   UNL     1      46.161   8.897  15.049  0.00  0.00    +0.000 HD
BRANCH  19  22
ATOM     22  C   UNL     1      48.383   8.639  16.356  0.00  0.00    +0.000 A 
ATOM     23  C   UNL     1      48.114   9.653  17.266  0.00  0.00    +0.000 A 
ATOM     24  S   UNL     1      48.631   9.293  18.852  0.00  0.00    +0.000 S 
ATOM     25  C   UNL     1      49.173   7.751  18.380  0.00  0.00    +0.000 A 
ATOM     26  N   UNL     1      49.829   6.936  19.250  0.00  0.00    +0.000 NA
ATOM     27  C   UNL     1      50.133   5.777  18.769  0.00  0.00    +0.000 A 
ATOM     28  N   UNL     1      49.806   5.342  17.511  0.00  0.00    +0.000 N 
ATOM     29  C   UNL     1      49.140   6.128  16.603  0.00  0.00    +0.000 A 
ATOM     30  O   UNL     1      48.812   5.696  15.501  0.00  0.00    +0.000 OA
ATOM     31  C   UNL     1      48.862   7.476  17.062  0.00  0.00    +0.000 A 
ATOM     32  H   UNL     1      50.015   4.399  17.219  0.00  0.00    +0.000 HD
ENDBRANCH  19  22
ENDBRANCH  17  18
ENDBRANCH   5  17
TORSDOF 5
ENDMDL
MODEL 8
REMARK VINA RESULT:    -6.932      3.382      8.774
REMARK INTER + INTRA:          -9.927
REMARK INTER:                  -9.051
REMARK INTRA:                  -0.875
REMARK UNBOUND:                -0.969
REMARK  Name = 
REMARK  6 active torsions:
REMARK  status: ('A' for Active; 'I' for Inactive)
REMARK    1  A    between atoms: C_1  and  C_2
REMARK    2  A    between atoms: C_6  and  C_7
REMARK    3  A    between atoms: C_7  and  N_8
REMARK    4  A    between atoms: C_12  and  C_13
REMARK    5  A    between atoms: C_13  and  N_14
REMARK    6  A    between atoms: C_15  and  C_17
REMARK                            x       y       z     vdW  Elec       q    Type
REMARK                         _______ _______ _______ _____ _____    ______ ____
ROOT
ATOM      1  N   UNL     1      50.306   6.814  17.189  0.00  0.00    +0.000 N 
ATOM      2  C   UNL     1      49.762   7.038  15.932  0.00  0.00    +0.000 A 
ATOM      3  N   UNL     1      48.439   6.928  15.754  0.00  0.00    +0.000 NA
ATOM      4  C   UNL     1      47.968   7.095  14.510  0.00  0.00    +0.000 A 
ATOM      5  C   UNL     1      48.771   7.368  13.426  0.00  0.00    +0.000 A 
ATOM      6  C   UNL     1      50.108   7.499  13.719  0.00  0.00    +0.000 A 
ATOM      7  N   UNL     1      50.627   7.326  14.950  0.00  0.00    +0.000 NA
ATOM      8  H   UNL     1      51.282   6.579  17.039  0.00  0.00    +0.000 HD
ENDROOT
BRANCH   1   9
ATOM      9  C   UNL     1      49.556   5.803  17.924  0.00  0.00    +0.000 C 
BRANCH   9  15
ATOM     10  C   UNL     1      53.567   3.047  18.086  0.00  0.00    +0.000 C 
ATOM     11  C   UNL     1      52.091   3.120  17.827  0.00  0.00    +0.000 A 
ATOM     12  C   UNL     1      51.384   2.007  17.389  0.00  0.00    +0.000 A 
ATOM     13  C   UNL     1      50.020   2.132  17.143  0.00  0.00    +0.000 A 
ATOM     14  C   UNL     1      49.406   3.363  17.331  0.00  0.00    +0.000 A 
ATOM     15  C   UNL     1      50.180   4.438  17.767  0.00  0.00    +0.000 A 
ATOM     16  N   UNL     1      51.508   4.324  18.021  0.00  0.00    +0.000 NA
ENDBRANCH   9  15
ENDBRANCH   1   9
BRANCH   5  17
ATOM     17  C   UNL     1      48.205   7.547  12.062  0.00  0.00    +0.000 C 
BRANCH  17  18
ATOM     18  N   UNL     1      47.214   6.546  11.767  0.00  0.00    +0.000 N 
ATOM     19  C   UNL     1      45.893   6.858  11.566  0.00  0.00    +0.000 C 
ATOM     20  O   UNL     1      45.494   8.019  11.582  0.00  0.00    +0.000 OA
ATOM     21  H   UNL     1      47.554   5.625  11.509  0.00  0.00    +0.000 HD
BRANCH  19  22
ATOM     22  C   UNL     1      44.966   5.728  11.427  0.00  0.00    +0.000 A 
ATOM     23  C   UNL     1      44.022   5.485  12.416  0.00  0.00    +0.000 A 
ATOM     24  S   UNL     1      43.237   3.979  12.246  0.00  0.00    +0.000 S 
ATOM     25  C   UNL     1      44.092   3.637  10.815  0.00  0.00    +0.000 A 
ATOM     26  N   UNL     1      43.970   2.435  10.189  0.00  0.00    +0.000 NA
ATOM     27  C   UNL     1      44.635   2.338   9.086  0.00  0.00    +0.000 A 
ATOM     28  N   UNL     1      45.382   3.346   8.532  0.00  0.00    +0.000 N 
ATOM     29  C   UNL     1      45.527   4.575   9.126  0.00  0.00    +0.000 A 
ATOM     30  O   UNL     1      46.158   5.478   8.582  0.00  0.00    +0.000 OA
ATOM     31  C   UNL     1      44.878   4.703  10.416  0.00  0.00    +0.000 A 
ATOM     32  H   UNL     1      45.824   3.227   7.633  0.00  0.00    +0.000 HD
ENDBRANCH  19  22
ENDBRANCH  17  18
ENDBRANCH   5  17
TORSDOF 5
ENDMDL
MODEL 9
REMARK VINA RESULT:    -6.861      4.280     10.050
REMARK INTER + INTRA:          -9.836
REMARK INTER:                  -9.071
REMARK INTRA:                  -0.765
REMARK UNBOUND:                -0.969
REMARK  Name = 
REMARK  6 active torsions:
REMARK  status: ('A' for Active; 'I' for Inactive)
REMARK    1  A    between atoms: C_1  and  C_2
REMARK    2  A    between atoms: C_6  and  C_7
REMARK    3  A    between atoms: C_7  and  N_8
REMARK    4  A    between atoms: C_12  and  C_13
REMARK    5  A    between atoms: C_13  and  N_14
REMARK    6  A    between atoms: C_15  and  C_17
REMARK                            x       y       z     vdW  Elec       q    Type
REMARK                         _______ _______ _______ _____ _____    ______ ____
ROOT
ATOM      1  N   UNL     1      49.710   6.847  20.496  0.00  0.00    +0.000 N 
ATOM      2  C   UNL     1      49.193   6.024  19.503  0.00  0.00    +0.000 A 
ATOM      3  N   UNL     1      49.325   6.375  18.218  0.00  0.00    +0.000 NA
ATOM      4  C   UNL     1      48.758   5.579  17.300  0.00  0.00    +0.000 A 
ATOM      5  C   UNL     1      48.056   4.438  17.617  0.00  0.00    +0.000 A 
ATOM      6  C   UNL     1      48.010   4.145  18.959  0.00  0.00    +0.000 A 
ATOM      7  N   UNL     1      48.552   4.922  19.916  0.00  0.00    +0.000 NA
ATOM      8  H   UNL     1      49.202   6.621  21.345  0.00  0.00    +0.000 HD
ENDROOT
BRANCH   1   9
ATOM      9  C   UNL     1      49.640   8.252  20.115  0.00  0.00    +0.000 C 
BRANCH   9  15
ATOM     10  C   UNL     1      46.333  11.801  19.694  0.00  0.00    +0.000 C 
ATOM     11  C   UNL     1      46.807  10.596  20.451  0.00  0.00    +0.000 A 
ATOM     12  C   UNL     1      46.159  10.173  21.606  0.00  0.00    +0.000 A 
ATOM     13  C   UNL     1      46.651   9.062  22.284  0.00  0.00    +0.000 A 
ATOM     14  C   UNL     1      47.778   8.414  21.798  0.00  0.00    +0.000 A 
ATOM     15  C   UNL     1      48.380   8.898  20.637  0.00  0.00    +0.000 A 
ATOM     16  N   UNL     1      47.902   9.973  19.961  0.00  0.00    +0.000 NA
ENDBRANCH   9  15
ENDBRANCH   1   9
BRANCH   5  17
ATOM     17  C   UNL     1      47.443   3.584  16.565  0.00  0.00    +0.000 C 
BRANCH  17  18
ATOM     18  N   UNL     1      46.740   4.372  15.588  0.00  0.00    +0.000 N 
ATOM     19  C   UNL     1      46.785   4.088  14.246  0.00  0.00    +0.000 C 
ATOM     20  O   UNL     1      47.393   3.113  13.812  0.00  0.00    +0.000 OA
ATOM     21  H   UNL     1      46.044   5.024  15.936  0.00  0.00    +0.000 HD
BRANCH  19  22
ATOM     22  C   UNL     1      46.151   5.061  13.348  0.00  0.00    +0.000 A 
ATOM     23  C   UNL     1      46.732   6.309  13.162  0.00  0.00    +0.000 A 
ATOM     24  S   UNL     1      45.721   7.409  12.336  0.00  0.00    +0.000 S 
ATOM     25  C   UNL     1      44.506   6.232  12.151  0.00  0.00    +0.000 A 
ATOM     26  N   UNL     1      43.299   6.543  11.605  0.00  0.00    +0.000 NA
ATOM     27  C   UNL     1      42.497   5.540  11.478  0.00  0.00    +0.000 A 
ATOM     28  N   UNL     1      42.804   4.246  11.812  0.00  0.00    +0.000 N 
ATOM     29  C   UNL     1      44.010   3.886  12.359  0.00  0.00    +0.000 A 
ATOM     30  O   UNL     1      44.280   2.713  12.600  0.00  0.00    +0.000 OA
ATOM     31  C   UNL     1      44.912   4.994  12.612  0.00  0.00    +0.000 A 
ATOM     32  H   UNL     1      42.155   3.496  11.626  0.00  0.00    +0.000 HD
ENDBRANCH  19  22
ENDBRANCH  17  18
ENDBRANCH   5  17
TORSDOF 5
ENDMDL
