MODEL 1
REMARK VINA RESULT:    -7.235      0.000      0.000
REMARK INTER + INTRA:         -12.406
REMARK INTER:                 -11.041
REMARK INTRA:                  -1.365
REMARK UNBOUND:                -1.365
REMARK  Name = 
REMARK  9 active torsions:
REMARK  status: ('A' for Active; 'I' for Inactive)
REMARK    1  A    between atoms: C_2  and  C_3
REMARK    2  A    between atoms: C_3  and  N_4
REMARK    3  A    between atoms: C_3  and  C_21
REMARK    4  A    between atoms: N_4  and  C_5
REMARK    5  A    between atoms: C_5  and  C_6
REMARK    6  A    between atoms: C_9  and  C_10
REMARK    7  A    between atoms: C_10  and  N_11
REMARK    8  A    between atoms: N_11  and  C_12
REMARK    9  A    between atoms: C_12  and  C_13
REMARK                            x       y       z     vdW  Elec       q    Type
REMARK                         _______ _______ _______ _____ _____    ______ ____
ROOT
ATOM      1  C   UNL     1      46.691   8.238  12.953  0.00  0.00    +0.000 C 
ENDROOT
BRANCH   1   2
ATOM      2  C   UNL     1      45.962   7.043  12.379  0.00  0.00    +0.000 A 
ATOM      3  C   UNL     1      44.841   6.547  13.043  0.00  0.00    +0.000 A 
ATOM      4  C   UNL     1      44.076   5.526  12.489  0.00  0.00    +0.000 A 
ATOM      5  C   UNL     1      44.417   4.986  11.242  0.00  0.00    +0.000 A 
ATOM      6  C   UNL     1      45.541   5.476  10.570  0.00  0.00    +0.000 A 
ATOM      7  C   UNL     1      46.314   6.492  11.135  0.00  0.00    +0.000 A 
BRANCH   5   8
ATOM      8  C   UNL     1      43.590   3.902  10.595  0.00  0.00    +0.000 C 
BRANCH   8   9
ATOM      9  N   UNL     1      44.109   3.450   9.306  0.00  0.00    +0.000 NA
ATOM     10  H   UNL     1      44.725   4.166   8.921  0.00  0.00    +0.000 HD
BRANCH   9  11
ATOM     11  C   UNL     1      44.899   2.219   9.411  0.00  0.00    +0.000 C 
BRANCH  11  12
ATOM     12  C   UNL     1      45.865   2.100   8.253  0.00  0.00    +0.000 A 
ATOM     13  C   UNL     1      46.126   3.203   7.448  0.00  0.00    +0.000 A 
ATOM     14  N   UNL     1      46.984   3.163   6.399  0.00  0.00    +0.000 NA
ATOM     15  C   UNL     1      47.596   1.974   6.205  0.00  0.00    +0.000 A 
ATOM     16  C   UNL     1      47.358   0.872   7.008  0.00  0.00    +0.000 A 
ATOM     17  N   UNL     1      46.489   0.908   8.045  0.00  0.00    +0.000 NA
ENDBRANCH  11  12
ENDBRANCH   9  11
ENDBRANCH   8   9
ENDBRANCH   5   8
ENDBRANCH   1   2
BRANCH   1  18
ATOM     18  N   UNL     1      47.304   7.972  14.253  0.00  0.00    +0.000 NA
ATOM     19  H   UNL     1      46.611   7.546  14.864  0.00  0.00    +0.000 HD
BRANCH  18  20
ATOM     20  C   UNL     1      48.450   7.050  14.174  0.00  0.00    +0.000 C 
BRANCH  20  21
ATOM     21  C   UNL     1      48.702   6.589  15.594  0.00  0.00    +0.000 A 
ATOM     22  C   UNL     1      49.366   7.335  16.560  0.00  0.00    +0.000 A 
ATOM     23  S   UNL     1      49.468   6.546  18.071  0.00  0.00    +0.000 S 
ATOM     24  C   UNL     1      48.607   5.198  17.489  0.00  0.00    +0.000 A 
ATOM     25  N   UNL     1      48.330   4.138  18.295  0.00  0.00    +0.000 NA
ATOM     26  C   UNL     1      47.654   3.198  17.719  0.00  0.00    +0.000 A 
ATOM     27  N   UNL     1      47.230   3.220  16.414  0.00  0.00    +0.000 N 
ATOM     28  C   UNL     1      47.488   4.267  15.556  0.00  0.00    +0.000 A 
ATOM     29  O   UNL     1      47.091   4.258  14.403  0.00  0.00    +0.000 OA
ATOM     30  C   UNL     1      48.249   5.345  16.164  0.00  0.00    +0.000 A 
ATOM     31  H   UNL     1      46.704   2.452  16.028  0.00  0.00    +0.000 HD
ENDBRANCH  20  21
BRANCH  20  33
ATOM     32  C   UNL     1      50.673   8.216  13.223  0.00  0.00    +0.000 C 
ATOM     33  C   UNL     1      49.673   7.667  13.626  0.00  0.00    +0.000 C 
ENDBRANCH  20  33
ENDBRANCH  18  20
ENDBRANCH   1  18
TORSDOF 9
ENDMDL
MODEL 2
REMARK VINA RESULT:    -6.978      1.640      1.922
REMARK INTER + INTRA:         -12.014
REMARK INTER:                 -10.906
REMARK INTRA:                  -1.108
REMARK UNBOUND:                -1.365
REMARK  Name = 
REMARK  9 active torsions:
REMARK  status: ('A' for Active; 'I' for Inactive)
REMARK    1  A    between atoms: C_2  and  C_3
REMARK    2  A    between atoms: C_3  and  N_4
REMARK    3  A    between atoms: C_3  and  C_21
REMARK    4  A    between atoms: N_4  and  C_5
REMARK    5  A    between atoms: C_5  and  C_6
REMARK    6  A    between atoms: C_9  and  C_10
REMARK    7  A    between atoms: C_10  and  N_11
REMARK    8  A    between atoms: N_11  and  C_12
REMARK    9  A    between atoms: C_12  and  C_13
REMARK                            x       y       z     vdW  Elec       q    Type
REMARK                         _______ _______ _______ _____ _____    ______ ____
ROOT
ATOM      1  C   UNL     1      48.127   6.524  13.663  0.00  0.00    +0.000 C 
ENDROOT
BRANCH   1   2
ATOM      2  C   UNL     1      46.952   5.883  12.958  0.00  0.00    +0.000 A 
ATOM      3  C   UNL     1      46.197   4.923  13.630  0.00  0.00    +0.000 A 
ATOM      4  C   UNL     1      45.042   4.396  13.062  0.00  0.00    +0.000 A 
ATOM      5  C   UNL     1      44.612   4.832  11.802  0.00  0.00    +0.000 A 
ATOM      6  C   UNL     1      45.365   5.792  11.120  0.00  0.00    +0.000 A 
ATOM      7  C   UNL     1      46.531   6.311  11.687  0.00  0.00    +0.000 A 
BRANCH   5   8
ATOM      8  C   UNL     1      43.347   4.307  11.171  0.00  0.00    +0.000 C 
BRANCH   8   9
ATOM      9  N   UNL     1      43.528   3.796   9.813  0.00  0.00    +0.000 NA
ATOM     10  H   UNL     1      44.046   4.482   9.263  0.00  0.00    +0.000 HD
BRANCH   9  11
ATOM     11  C   UNL     1      44.297   2.548   9.774  0.00  0.00    +0.000 C 
BRANCH  11  12
ATOM     12  C   UNL     1      45.341   2.595   8.680  0.00  0.00    +0.000 A 
ATOM     13  C   UNL     1      45.569   3.778   7.985  0.00  0.00    +0.000 A 
ATOM     14  N   UNL     1      46.492   3.885   6.999  0.00  0.00    +0.000 NA
ATOM     15  C   UNL     1      47.202   2.762   6.753  0.00  0.00    +0.000 A 
ATOM     16  C   UNL     1      46.996   1.582   7.446  0.00  0.00    +0.000 A 
ATOM     17  N   UNL     1      46.063   1.470   8.420  0.00  0.00    +0.000 NA
ENDBRANCH  11  12
ENDBRANCH   9  11
ENDBRANCH   8   9
ENDBRANCH   5   8
ENDBRANCH   1   2
BRANCH   1  18
ATOM     18  N   UNL     1      48.207   6.182  15.081  0.00  0.00    +0.000 NA
ATOM     19  H   UNL     1      48.315   5.175  15.173  0.00  0.00    +0.000 HD
BRANCH  18  20
ATOM     20  C   UNL     1      49.349   6.813  15.765  0.00  0.00    +0.000 C 
BRANCH  20  21
ATOM     21  C   UNL     1      48.920   6.977  17.208  0.00  0.00    +0.000 A 
ATOM     22  C   UNL     1      48.465   8.166  17.766  0.00  0.00    +0.000 A 
ATOM     23  S   UNL     1      48.036   8.020  19.412  0.00  0.00    +0.000 S 
ATOM     24  C   UNL     1      48.420   6.361  19.423  0.00  0.00    +0.000 A 
ATOM     25  N   UNL     1      48.266   5.611  20.547  0.00  0.00    +0.000 NA
ATOM     26  C   UNL     1      48.580   4.365  20.398  0.00  0.00    +0.000 A 
ATOM     27  N   UNL     1      49.032   3.801  19.231  0.00  0.00    +0.000 N 
ATOM     28  C   UNL     1      49.208   4.519  18.067  0.00  0.00    +0.000 A 
ATOM     29  O   UNL     1      49.606   3.986  17.046  0.00  0.00    +0.000 OA
ATOM     30  C   UNL     1      48.869   5.926  18.193  0.00  0.00    +0.000 A 
ATOM     31  H   UNL     1      49.257   2.820  19.183  0.00  0.00    +0.000 HD
ENDBRANCH  20  21
BRANCH  20  33
ATOM     32  C   UNL     1      50.076   9.169  14.706  0.00  0.00    +0.000 C 
ATOM     33  C   UNL     1      49.728   8.124  15.206  0.00  0.00    +0.000 C 
ENDBRANCH  20  33
ENDBRANCH  18  20
ENDBRANCH   1  18
TORSDOF 9
ENDMDL
MODEL 3
REMARK VINA RESULT:    -6.899      2.011      2.758
REMARK INTER + INTRA:         -11.894
REMARK INTER:                 -11.259
REMARK INTRA:                  -0.635
REMARK UNBOUND:                -1.365
REMARK  Name = 
REMARK  9 active torsions:
REMARK  status: ('A' for Active; 'I' for Inactive)
REMARK    1  A    between atoms: C_2  and  C_3
REMARK    2  A    between atoms: C_3  and  N_4
REMARK    3  A    between atoms: C_3  and  C_21
REMARK    4  A    between atoms: N_4  and  C_5
REMARK    5  A    between atoms: C_5  and  C_6
REMARK    6  A    between atoms: C_9  and  C_10
REMARK    7  A    between atoms: C_10  and  N_11
REMARK    8  A    between atoms: N_11  and  C_12
REMARK    9  A    between atoms: C_12  and  C_13
REMARK                            x       y       z     vdW  Elec       q    Type
REMARK                         _______ _______ _______ _____ _____    ______ ____
ROOT
ATOM      1  C   UNL     1      48.092   6.155  14.440  0.00  0.00    +0.000 C 
ENDROOT
BRANCH   1   2
ATOM      2  C   UNL     1      47.066   5.789  13.389  0.00  0.00    +0.000 A 
ATOM      3  C   UNL     1      46.121   4.803  13.675  0.00  0.00    +0.000 A 
ATOM      4  C   UNL     1      45.092   4.520  12.784  0.00  0.00    +0.000 A 
ATOM      5  C   UNL     1      44.981   5.233  11.583  0.00  0.00    +0.000 A 
ATOM      6  C   UNL     1      45.926   6.221  11.287  0.00  0.00    +0.000 A 
ATOM      7  C   UNL     1      46.966   6.494  12.178  0.00  0.00    +0.000 A 
BRANCH   5   8
ATOM      8  C   UNL     1      43.858   4.976  10.610  0.00  0.00    +0.000 C 
BRANCH   8   9
ATOM      9  N   UNL     1      44.296   4.411   9.334  0.00  0.00    +0.000 NA
ATOM     10  H   UNL     1      45.202   4.809   9.084  0.00  0.00    +0.000 HD
BRANCH   9  11
ATOM     11  C   UNL     1      44.466   2.956   9.386  0.00  0.00    +0.000 C 
BRANCH  11  12
ATOM     12  C   UNL     1      45.585   2.514   8.469  0.00  0.00    +0.000 A 
ATOM     13  C   UNL     1      46.261   3.450   7.694  0.00  0.00    +0.000 A 
ATOM     14  N   UNL     1      47.275   3.118   6.857  0.00  0.00    +0.000 NA
ATOM     15  C   UNL     1      47.606   1.808   6.849  0.00  0.00    +0.000 A 
ATOM     16  C   UNL     1      46.953   0.868   7.627  0.00  0.00    +0.000 A 
ATOM     17  N   UNL     1      45.930   1.197   8.450  0.00  0.00    +0.000 NA
ENDBRANCH  11  12
ENDBRANCH   9  11
ENDBRANCH   8   9
ENDBRANCH   5   8
ENDBRANCH   1   2
BRANCH   1  18
ATOM     18  N   UNL     1      48.089   5.252  15.589  0.00  0.00    +0.000 NA
ATOM     19  H   UNL     1      48.738   4.489  15.412  0.00  0.00    +0.000 HD
BRANCH  18  20
ATOM     20  C   UNL     1      48.509   5.908  16.840  0.00  0.00    +0.000 C 
BRANCH  20  21
ATOM     21  C   UNL     1      49.877   5.341  17.158  0.00  0.00    +0.000 A 
ATOM     22  C   UNL     1      50.993   6.105  17.477  0.00  0.00    +0.000 A 
ATOM     23  S   UNL     1      52.382   5.168  17.806  0.00  0.00    +0.000 S 
ATOM     24  C   UNL     1      51.529   3.715  17.557  0.00  0.00    +0.000 A 
ATOM     25  N   UNL     1      52.141   2.508  17.696  0.00  0.00    +0.000 NA
ATOM     26  C   UNL     1      51.363   1.495  17.494  0.00  0.00    +0.000 A 
ATOM     27  N   UNL     1      50.032   1.577  17.167  0.00  0.00    +0.000 N 
ATOM     28  C   UNL     1      49.368   2.775  17.011  0.00  0.00    +0.000 A 
ATOM     29  O   UNL     1      48.183   2.812  16.727  0.00  0.00    +0.000 OA
ATOM     30  C   UNL     1      50.209   3.940  17.227  0.00  0.00    +0.000 A 
ATOM     31  H   UNL     1      49.482   0.745  17.025  0.00  0.00    +0.000 HD
ENDBRANCH  20  21
BRANCH  20  33
ATOM     32  C   UNL     1      46.878   5.516  18.935  0.00  0.00    +0.000 C 
ATOM     33  C   UNL     1      47.595   5.669  17.973  0.00  0.00    +0.000 C 
ENDBRANCH  20  33
ENDBRANCH  18  20
ENDBRANCH   1  18
TORSDOF 9
ENDMDL
MODEL 4
REMARK VINA RESULT:    -6.664      3.072      7.601
REMARK INTER + INTRA:         -11.535
REMARK INTER:                  -9.894
REMARK INTRA:                  -1.641
REMARK UNBOUND:                -1.365
REMARK  Name = 
REMARK  9 active torsions:
REMARK  status: ('A' for Active; 'I' for Inactive)
REMARK    1  A    between atoms: C_2  and  C_3
REMARK    2  A    between atoms: C_3  and  N_4
REMARK    3  A    between atoms: C_3  and  C_21
REMARK    4  A    between atoms: N_4  and  C_5
REMARK    5  A    between atoms: C_5  and  C_6
REMARK    6  A    between atoms: C_9  and  C_10
REMARK    7  A    between atoms: C_10  and  N_11
REMARK    8  A    between atoms: N_11  and  C_12
REMARK    9  A    between atoms: C_12  and  C_13
REMARK                            x       y       z     vdW  Elec       q    Type
REMARK                         _______ _______ _______ _____ _____    ______ ____
ROOT
ATOM      1  C   UNL     1      48.324   8.193  11.853  0.00  0.00    +0.000 C 
ENDROOT
BRANCH   1   2
ATOM      2  C   UNL     1      48.572   8.147  13.346  0.00  0.00    +0.000 A 
ATOM      3  C   UNL     1      48.113   9.194  14.143  0.00  0.00    +0.000 A 
ATOM      4  C   UNL     1      48.216   9.135  15.529  0.00  0.00    +0.000 A 
ATOM      5  C   UNL     1      48.778   8.010  16.148  0.00  0.00    +0.000 A 
ATOM      6  C   UNL     1      49.244   6.957  15.355  0.00  0.00    +0.000 A 
ATOM      7  C   UNL     1      49.149   7.025  13.963  0.00  0.00    +0.000 A 
BRANCH   5   8
ATOM      8  C   UNL     1      48.875   7.898  17.649  0.00  0.00    +0.000 C 
BRANCH   8   9
ATOM      9  N   UNL     1      47.759   7.182  18.264  0.00  0.00    +0.000 NA
ATOM     10  H   UNL     1      47.146   6.823  17.531  0.00  0.00    +0.000 HD
BRANCH   9  11
ATOM     11  C   UNL     1      48.191   6.031  19.061  0.00  0.00    +0.000 C 
BRANCH  11  12
ATOM     12  C   UNL     1      48.258   4.782  18.210  0.00  0.00    +0.000 A 
ATOM     13  C   UNL     1      47.198   4.453  17.372  0.00  0.00    +0.000 A 
ATOM     14  N   UNL     1      47.200   3.352  16.582  0.00  0.00    +0.000 NA
ATOM     15  C   UNL     1      48.324   2.604  16.642  0.00  0.00    +0.000 A 
ATOM     16  C   UNL     1      49.393   2.928  17.459  0.00  0.00    +0.000 A 
ATOM     17  N   UNL     1      49.385   4.019  18.261  0.00  0.00    +0.000 NA
ENDBRANCH  11  12
ENDBRANCH   9  11
ENDBRANCH   8   9
ENDBRANCH   5   8
ENDBRANCH   1   2
BRANCH   1  18
ATOM     18  N   UNL     1      47.662   6.995  11.341  0.00  0.00    +0.000 NA
ATOM     19  H   UNL     1      48.179   6.175  11.646  0.00  0.00    +0.000 HD
BRANCH  18  20
ATOM     20  C   UNL     1      46.277   6.849  11.822  0.00  0.00    +0.000 C 
BRANCH  20  21
ATOM     21  C   UNL     1      45.669   5.745  10.983  0.00  0.00    +0.000 A 
ATOM     22  C   UNL     1      45.853   5.601   9.613  0.00  0.00    +0.000 A 
ATOM     23  S   UNL     1      45.053   4.241   8.962  0.00  0.00    +0.000 S 
ATOM     24  C   UNL     1      44.456   3.789  10.492  0.00  0.00    +0.000 A 
ATOM     25  N   UNL     1      43.686   2.679  10.648  0.00  0.00    +0.000 NA
ATOM     26  C   UNL     1      43.324   2.454  11.868  0.00  0.00    +0.000 A 
ATOM     27  N   UNL     1      43.660   3.235  12.946  0.00  0.00    +0.000 N 
ATOM     28  C   UNL     1      44.432   4.371  12.841  0.00  0.00    +0.000 A 
ATOM     29  O   UNL     1      44.717   5.039  13.819  0.00  0.00    +0.000 OA
ATOM     30  C   UNL     1      44.860   4.662  11.482  0.00  0.00    +0.000 A 
ATOM     31  H   UNL     1      43.343   3.001  13.874  0.00  0.00    +0.000 HD
ENDBRANCH  20  21
BRANCH  20  33
ATOM     32  C   UNL     1      44.756   9.047  11.573  0.00  0.00    +0.000 C 
ATOM     33  C   UNL     1      45.469   8.077  11.692  0.00  0.00    +0.000 C 
ENDBRANCH  20  33
ENDBRANCH  18  20
ENDBRANCH   1  18
TORSDOF 9
ENDMDL
MODEL 5
REMARK VINA RESULT:    -6.494      2.690      4.607
REMARK INTER + INTRA:         -11.275
REMARK INTER:                 -10.001
REMARK INTRA:                  -1.274
REMARK UNBOUND:                -1.365
REMARK  Name = 
REMARK  9 active torsions:
REMARK  status: ('A' for Active; 'I' for Inactive)
REMARK    1  A    between atoms: C_2  and  C_3
REMARK    2  A    between atoms: C_3  and  N_4
REMARK    3  A    between atoms: C_3  and  C_21
REMARK    4  A    between atoms: N_4  and  C_5
REMARK    5  A    between atoms: C_5  and  C_6
REMARK    6  A    between atoms: C_9  and  C_10
REMARK    7  A    between atoms: C_10  and  N_11
REMARK    8  A    between atoms: N_11  and  C_12
REMARK    9  A    between atoms: C_12  and  C_13
REMARK                            x       y       z     vdW  Elec       q    Type
REMARK                         _______ _______ _______ _____ _____    ______ ____
ROOT
ATOM      1  C   UNL     1      47.961   6.000  14.165  0.00  0.00    +0.000 C 
ENDROOT
BRANCH   1   2
ATOM      2  C   UNL     1      46.913   5.655  13.128  0.00  0.00    +0.000 A 
ATOM      3  C   UNL     1      45.975   4.664  13.414  0.00  0.00    +0.000 A 
ATOM      4  C   UNL     1      44.927   4.399  12.538  0.00  0.00    +0.000 A 
ATOM      5  C   UNL     1      44.793   5.136  11.354  0.00  0.00    +0.000 A 
ATOM      6  C   UNL     1      45.731   6.129  11.059  0.00  0.00    +0.000 A 
ATOM      7  C   UNL     1      46.789   6.385  11.934  0.00  0.00    +0.000 A 
BRANCH   5   8
ATOM      8  C   UNL     1      43.650   4.898  10.399  0.00  0.00    +0.000 C 
BRANCH   8   9
ATOM      9  N   UNL     1      44.051   4.280   9.136  0.00  0.00    +0.000 NA
ATOM     10  H   UNL     1      44.906   4.724   8.801  0.00  0.00    +0.000 HD
BRANCH   9  11
ATOM     11  C   UNL     1      44.336   2.848   9.269  0.00  0.00    +0.000 C 
BRANCH  11  12
ATOM     12  C   UNL     1      45.531   2.458   8.428  0.00  0.00    +0.000 A 
ATOM     13  C   UNL     1      46.259   3.435   7.757  0.00  0.00    +0.000 A 
ATOM     14  N   UNL     1      47.341   3.151   6.992  0.00  0.00    +0.000 NA
ATOM     15  C   UNL     1      47.684   1.844   6.947  0.00  0.00    +0.000 A 
ATOM     16  C   UNL     1      46.978   0.863   7.621  0.00  0.00    +0.000 A 
ATOM     17  N   UNL     1      45.888   1.145   8.372  0.00  0.00    +0.000 NA
ENDBRANCH  11  12
ENDBRANCH   9  11
ENDBRANCH   8   9
ENDBRANCH   5   8
ENDBRANCH   1   2
BRANCH   1  18
ATOM     18  N   UNL     1      49.184   6.555  13.588  0.00  0.00    +0.000 NA
ATOM     19  H   UNL     1      49.029   6.740  12.600  0.00  0.00    +0.000 HD
BRANCH  18  20
ATOM     20  C   UNL     1      49.597   7.822  14.216  0.00  0.00    +0.000 C 
BRANCH  20  21
ATOM     21  C   UNL     1      50.219   8.643  13.106  0.00  0.00    +0.000 A 
ATOM     22  C   UNL     1      51.543   8.539  12.695  0.00  0.00    +0.000 A 
ATOM     23  S   UNL     1      51.933   9.586  11.404  0.00  0.00    +0.000 S 
ATOM     24  C   UNL     1      50.342  10.190  11.338  0.00  0.00    +0.000 A 
ATOM     25  N   UNL     1      49.984  11.132  10.424  0.00  0.00    +0.000 NA
ATOM     26  C   UNL     1      48.740  11.479  10.483  0.00  0.00    +0.000 A 
ATOM     27  N   UNL     1      47.822  10.972  11.369  0.00  0.00    +0.000 N 
ATOM     28  C   UNL     1      48.136  10.021  12.316  0.00  0.00    +0.000 A 
ATOM     29  O   UNL     1      47.294   9.588  13.084  0.00  0.00    +0.000 OA
ATOM     30  C   UNL     1      49.527   9.605  12.286  0.00  0.00    +0.000 A 
ATOM     31  H   UNL     1      46.865  11.287  11.359  0.00  0.00    +0.000 HD
ENDBRANCH  20  21
BRANCH  20  33
ATOM     32  C   UNL     1      51.350   7.575  16.232  0.00  0.00    +0.000 C 
ATOM     33  C   UNL     1      50.566   7.653  15.315  0.00  0.00    +0.000 C 
ENDBRANCH  20  33
ENDBRANCH  18  20
ENDBRANCH   1  18
TORSDOF 9
ENDMDL
MODEL 6
REMARK VINA RESULT:    -6.463      2.834      4.925
REMARK INTER + INTRA:         -11.228
REMARK INTER:                 -10.112
REMARK INTRA:                  -1.116
REMARK UNBOUND:                -1.365
REMARK  Name = 
REMARK  9 active torsions:
REMARK  status: ('A' for Active; 'I' for Inactive)
REMARK    1  A    between atoms: C_2  and  C_3
REMARK    2  A    between atoms: C_3  and  N_4
REMARK    3  A    between atoms: C_3  and  C_21
REMARK    4  A    between atoms: N_4  and  C_5
REMARK    5  A    between atoms: C_5  and  C_6
REMARK    6  A    between atoms: C_9  and  C_10
REMARK    7  A    between atoms: C_10  and  N_11
REMARK    8  A    between atoms: N_11  and  C_12
REMARK    9  A    between atoms: C_12  and  C_13
REMARK                            x       y       z     vdW  Elec       q    Type
REMARK                         _______ _______ _______ _____ _____    ______ ____
ROOT
ATOM      1  C   UNL     1      47.933   6.186  14.116  0.00  0.00    +0.000 C 
ENDROOT
BRANCH   1   2
ATOM      2  C   UNL     1      46.871   5.701  13.153  0.00  0.00    +0.000 A 
ATOM      3  C   UNL     1      45.985   4.705  13.563  0.00  0.00    +0.000 A 
ATOM      4  C   UNL     1      44.924   4.315  12.753  0.00  0.00    +0.000 A 
ATOM      5  C   UNL     1      44.722   4.929  11.509  0.00  0.00    +0.000 A 
ATOM      6  C   UNL     1      45.607   5.927  11.090  0.00  0.00    +0.000 A 
ATOM      7  C   UNL     1      46.678   6.308  11.900  0.00  0.00    +0.000 A 
BRANCH   5   8
ATOM      8  C   UNL     1      43.562   4.555  10.620  0.00  0.00    +0.000 C 
BRANCH   8   9
ATOM      9  N   UNL     1      43.879   3.523   9.634  0.00  0.00    +0.000 NA
ATOM     10  H   UNL     1      43.011   3.139   9.260  0.00  0.00    +0.000 HD
BRANCH   9  11
ATOM     11  C   UNL     1      44.643   4.041   8.495  0.00  0.00    +0.000 C 
BRANCH  11  12
ATOM     12  C   UNL     1      45.583   2.986   7.955  0.00  0.00    +0.000 A 
ATOM     13  C   UNL     1      45.666   1.744   8.575  0.00  0.00    +0.000 A 
ATOM     14  N   UNL     1      46.484   0.756   8.138  0.00  0.00    +0.000 NA
ATOM     15  C   UNL     1      47.201   1.054   7.031  0.00  0.00    +0.000 A 
ATOM     16  C   UNL     1      47.117   2.280   6.395  0.00  0.00    +0.000 A 
ATOM     17  N   UNL     1      46.312   3.272   6.841  0.00  0.00    +0.000 NA
ENDBRANCH  11  12
ENDBRANCH   9  11
ENDBRANCH   8   9
ENDBRANCH   5   8
ENDBRANCH   1   2
BRANCH   1  18
ATOM     18  N   UNL     1      48.558   7.440  13.702  0.00  0.00    +0.000 NA
ATOM     19  H   UNL     1      48.625   7.458  12.687  0.00  0.00    +0.000 HD
BRANCH  18  20
ATOM     20  C   UNL     1      47.795   8.631  14.116  0.00  0.00    +0.000 C 
BRANCH  20  21
ATOM     21  C   UNL     1      48.091   9.687  13.072  0.00  0.00    +0.000 A 
ATOM     22  C   UNL     1      49.357  10.185  12.788  0.00  0.00    +0.000 A 
ATOM     23  S   UNL     1      49.362  11.351  11.542  0.00  0.00    +0.000 S 
ATOM     24  C   UNL     1      47.679  11.209  11.325  0.00  0.00    +0.000 A 
ATOM     25  N   UNL     1      47.026  11.941  10.383  0.00  0.00    +0.000 NA
ATOM     26  C   UNL     1      45.755  11.713  10.323  0.00  0.00    +0.000 A 
ATOM     27  N   UNL     1      45.077  10.822  11.117  0.00  0.00    +0.000 N 
ATOM     28  C   UNL     1      45.691  10.061  12.088  0.00  0.00    +0.000 A 
ATOM     29  O   UNL     1      45.060   9.273  12.772  0.00  0.00    +0.000 OA
ATOM     30  C   UNL     1      47.122  10.289  12.190  0.00  0.00    +0.000 A 
ATOM     31  H   UNL     1      44.083  10.691  11.017  0.00  0.00    +0.000 HD
ENDBRANCH  20  21
BRANCH  20  33
ATOM     32  C   UNL     1      48.411   9.593  16.544  0.00  0.00    +0.000 C 
ATOM     33  C   UNL     1      48.159   9.136  15.453  0.00  0.00    +0.000 C 
ENDBRANCH  20  33
ENDBRANCH  18  20
ENDBRANCH   1  18
TORSDOF 9
ENDMDL
MODEL 7
REMARK VINA RESULT:    -6.420      1.845      2.516
REMARK INTER + INTRA:         -11.162
REMARK INTER:                 -10.452
REMARK INTRA:                  -0.711
REMARK UNBOUND:                -1.365
REMARK  Name = 
REMARK  9 active torsions:
REMARK  status: ('A' for Active; 'I' for Inactive)
REMARK    1  A    between atoms: C_2  and  C_3
REMARK    2  A    between atoms: C_3  and  N_4
REMARK    3  A    between atoms: C_3  and  C_21
REMARK    4  A    between atoms: N_4  and  C_5
REMARK    5  A    between atoms: C_5  and  C_6
REMARK    6  A    between atoms: C_9  and  C_10
REMARK    7  A    between atoms: C_10  and  N_11
REMARK    8  A    between atoms: N_11  and  C_12
REMARK    9  A    between atoms: C_12  and  C_13
REMARK                            x       y       z     vdW  Elec       q    Type
REMARK                         _______ _______ _______ _____ _____    ______ ____
ROOT
ATOM      1  C   UNL     1      48.261   6.486  13.681  0.00  0.00    +0.000 C 
ENDROOT
BRANCH   1   2
ATOM      2  C   UNL     1      46.991   6.065  12.975  0.00  0.00    +0.000 A 
ATOM      3  C   UNL     1      46.739   6.539  11.688  0.00  0.00    +0.000 A 
ATOM      4  C   UNL     1      45.644   6.084  10.961  0.00  0.00    +0.000 A 
ATOM      5  C   UNL     1      44.778   5.129  11.511  0.00  0.00    +0.000 A 
ATOM      6  C   UNL     1      45.022   4.651  12.801  0.00  0.00    +0.000 A 
ATOM      7  C   UNL     1      46.115   5.118  13.534  0.00  0.00    +0.000 A 
BRANCH   5   8
ATOM      8  C   UNL     1      43.601   4.589  10.738  0.00  0.00    +0.000 C 
BRANCH   8   9
ATOM      9  N   UNL     1      43.956   4.012   9.442  0.00  0.00    +0.000 NA
ATOM     10  H   UNL     1      44.699   4.569   9.019  0.00  0.00    +0.000 HD
BRANCH   9  11
ATOM     11  C   UNL     1      44.460   2.639   9.549  0.00  0.00    +0.000 C 
BRANCH  11  12
ATOM     12  C   UNL     1      45.558   2.390   8.540  0.00  0.00    +0.000 A 
ATOM     13  C   UNL     1      46.081   3.448   7.804  0.00  0.00    +0.000 A 
ATOM     14  N   UNL     1      47.069   3.291   6.889  0.00  0.00    +0.000 NA
ATOM     15  C   UNL     1      47.535   2.029   6.760  0.00  0.00    +0.000 A 
ATOM     16  C   UNL     1      47.036   0.970   7.498  0.00  0.00    +0.000 A 
ATOM     17  N   UNL     1      46.038   1.123   8.399  0.00  0.00    +0.000 NA
ENDBRANCH  11  12
ENDBRANCH   9  11
ENDBRANCH   8   9
ENDBRANCH   5   8
ENDBRANCH   1   2
BRANCH   1  18
ATOM     18  N   UNL     1      48.056   6.817  15.090  0.00  0.00    +0.000 NA
ATOM     19  H   UNL     1      48.289   6.006  15.657  0.00  0.00    +0.000 HD
BRANCH  18  20
ATOM     20  C   UNL     1      48.899   7.935  15.549  0.00  0.00    +0.000 C 
BRANCH  20  21
ATOM     21  C   UNL     1      50.237   7.319  15.899  0.00  0.00    +0.000 A 
ATOM     22  C   UNL     1      51.464   7.780  15.437  0.00  0.00    +0.000 A 
ATOM     23  S   UNL     1      52.791   6.884  16.030  0.00  0.00    +0.000 S 
ATOM     24  C   UNL     1      51.771   5.870  16.941  0.00  0.00    +0.000 A 
ATOM     25  N   UNL     1      52.278   4.869  17.710  0.00  0.00    +0.000 NA
ATOM     26  C   UNL     1      51.384   4.196  18.358  0.00  0.00    +0.000 A 
ATOM     27  N   UNL     1      50.033   4.430  18.308  0.00  0.00    +0.000 N 
ATOM     28  C   UNL     1      49.470   5.427  17.541  0.00  0.00    +0.000 A 
ATOM     29  O   UNL     1      48.265   5.612  17.524  0.00  0.00    +0.000 OA
ATOM     30  C   UNL     1      50.441   6.207  16.794  0.00  0.00    +0.000 A 
ATOM     31  H   UNL     1      49.390   3.866  18.841  0.00  0.00    +0.000 HD
ENDBRANCH  20  21
BRANCH  20  33
ATOM     32  C   UNL     1      47.960   9.207  17.718  0.00  0.00    +0.000 C 
ATOM     33  C   UNL     1      48.357   8.646  16.722  0.00  0.00    +0.000 C 
ENDBRANCH  20  33
ENDBRANCH  18  20
ENDBRANCH   1  18
TORSDOF 9
ENDMDL
MODEL 8
REMARK VINA RESULT:    -6.364      2.125      3.027
REMARK INTER + INTRA:         -11.077
REMARK INTER:                 -10.242
REMARK INTRA:                  -0.834
REMARK UNBOUND:                -1.365
REMARK  Name = 
REMARK  9 active torsions:
REMARK  status: ('A' for Active; 'I' for Inactive)
REMARK    1  A    between atoms: C_2  and  C_3
REMARK    2  A    between atoms: C_3  and  N_4
REMARK    3  A    between atoms: C_3  and  C_21
REMARK    4  A    between atoms: N_4  and  C_5
REMARK    5  A    between atoms: C_5  and  C_6
REMARK    6  A    between atoms: C_9  and  C_10
REMARK    7  A    between atoms: C_10  and  N_11
REMARK    8  A    between atoms: N_11  and  C_12
REMARK    9  A    between atoms: C_12  and  C_13
REMARK                            x       y       z     vdW  Elec       q    Type
REMARK                         _______ _______ _______ _____ _____    ______ ____
ROOT
ATOM      1  C   UNL     1      48.482   6.501  14.574  0.00  0.00    +0.000 C 
ENDROOT
BRANCH   1   2
ATOM      2  C   UNL     1      47.320   6.164  13.666  0.00  0.00    +0.000 A 
ATOM      3  C   UNL     1      46.916   7.092  12.707  0.00  0.00    +0.000 A 
ATOM      4  C   UNL     1      45.930   6.775  11.777  0.00  0.00    +0.000 A 
ATOM      5  C   UNL     1      45.333   5.507  11.785  0.00  0.00    +0.000 A 
ATOM      6  C   UNL     1      45.731   4.573  12.746  0.00  0.00    +0.000 A 
ATOM      7  C   UNL     1      46.712   4.898  13.685  0.00  0.00    +0.000 A 
BRANCH   5   8
ATOM      8  C   UNL     1      44.287   5.118  10.771  0.00  0.00    +0.000 C 
BRANCH   8   9
ATOM      9  N   UNL     1      44.832   4.752   9.466  0.00  0.00    +0.000 NA
ATOM     10  H   UNL     1      45.829   4.972   9.445  0.00  0.00    +0.000 HD
BRANCH   9  11
ATOM     11  C   UNL     1      44.705   3.320   9.178  0.00  0.00    +0.000 C 
BRANCH  11  12
ATOM     12  C   UNL     1      45.786   2.866   8.222  0.00  0.00    +0.000 A 
ATOM     13  C   UNL     1      46.184   1.533   8.203  0.00  0.00    +0.000 A 
ATOM     14  N   UNL     1      47.142   1.064   7.368  0.00  0.00    +0.000 NA
ATOM     15  C   UNL     1      47.671   1.981   6.528  0.00  0.00    +0.000 A 
ATOM     16  C   UNL     1      47.273   3.307   6.525  0.00  0.00    +0.000 A 
ATOM     17  N   UNL     1      46.328   3.779   7.370  0.00  0.00    +0.000 NA
ENDBRANCH  11  12
ENDBRANCH   9  11
ENDBRANCH   8   9
ENDBRANCH   5   8
ENDBRANCH   1   2
BRANCH   1  18
ATOM     18  N   UNL     1      48.097   7.309  15.730  0.00  0.00    +0.000 NA
ATOM     19  H   UNL     1      47.114   7.148  15.933  0.00  0.00    +0.000 HD
BRANCH  18  20
ATOM     20  C   UNL     1      48.859   6.977  16.947  0.00  0.00    +0.000 C 
BRANCH  20  21
ATOM     21  C   UNL     1      48.674   5.488  17.150  0.00  0.00    +0.000 A 
ATOM     22  C   UNL     1      47.445   4.841  17.176  0.00  0.00    +0.000 A 
ATOM     23  S   UNL     1      47.572   3.154  17.401  0.00  0.00    +0.000 S 
ATOM     24  C   UNL     1      49.273   3.232  17.445  0.00  0.00    +0.000 A 
ATOM     25  N   UNL     1      50.025   2.110  17.604  0.00  0.00    +0.000 NA
ATOM     26  C   UNL     1      51.301   2.323  17.598  0.00  0.00    +0.000 A 
ATOM     27  N   UNL     1      51.892   3.552  17.448  0.00  0.00    +0.000 N 
ATOM     28  C   UNL     1      51.176   4.718  17.289  0.00  0.00    +0.000 A 
ATOM     29  O   UNL     1      51.733   5.794  17.152  0.00  0.00    +0.000 OA
ATOM     30  C   UNL     1      49.735   4.523  17.292  0.00  0.00    +0.000 A 
ATOM     31  H   UNL     1      52.896   3.648  17.452  0.00  0.00    +0.000 HD
ENDBRANCH  20  21
BRANCH  20  33
ATOM     32  C   UNL     1      48.097   8.320  19.142  0.00  0.00    +0.000 C 
ATOM     33  C   UNL     1      48.408   7.704  18.148  0.00  0.00    +0.000 C 
ENDBRANCH  20  33
ENDBRANCH  18  20
ENDBRANCH   1  18
TORSDOF 9
ENDMDL
MODEL 9
REMARK VINA RESULT:    -6.290      3.678      7.741
REMARK INTER + INTRA:         -10.964
REMARK INTER:                  -9.334
REMARK INTRA:                  -1.630
REMARK UNBOUND:                -1.365
REMARK  Name = 
REMARK  9 active torsions:
REMARK  status: ('A' for Active; 'I' for Inactive)
REMARK    1  A    between atoms: C_2  and  C_3
REMARK    2  A    between atoms: C_3  and  N_4
REMARK    3  A    between atoms: C_3  and  C_21
REMARK    4  A    between atoms: N_4  and  C_5
REMARK    5  A    between atoms: C_5  and  C_6
REMARK    6  A    between atoms: C_9  and  C_10
REMARK    7  A    between atoms: C_10  and  N_11
REMARK    8  A    between atoms: N_11  and  C_12
REMARK    9  A    between atoms: C_12  and  C_13
REMARK                            x       y       z     vdW  Elec       q    Type
REMARK                         _______ _______ _______ _____ _____    ______ ____
ROOT
ATOM      1  C   UNL     1      48.174   9.332  14.316  0.00  0.00    +0.000 C 
ENDROOT
BRANCH   1   2
ATOM      2  C   UNL     1      48.546   8.685  15.633  0.00  0.00    +0.000 A 
ATOM      3  C   UNL     1      49.401   7.584  15.632  0.00  0.00    +0.000 A 
ATOM      4  C   UNL     1      49.860   7.034  16.824  0.00  0.00    +0.000 A 
ATOM      5  C   UNL     1      49.474   7.589  18.052  0.00  0.00    +0.000 A 
ATOM      6  C   UNL     1      48.614   8.691  18.062  0.00  0.00    +0.000 A 
ATOM      7  C   UNL     1      48.146   9.233  16.863  0.00  0.00    +0.000 A 
BRANCH   5   8
ATOM      8  C   UNL     1      49.979   7.040  19.363  0.00  0.00    +0.000 C 
BRANCH   8   9
ATOM      9  N   UNL     1      49.114   6.019  19.951  0.00  0.00    +0.000 NA
ATOM     10  H   UNL     1      48.195   6.062  19.509  0.00  0.00    +0.000 HD
BRANCH   9  11
ATOM     11  C   UNL     1      49.621   4.658  19.749  0.00  0.00    +0.000 C 
BRANCH  11  12
ATOM     12  C   UNL     1      49.018   4.039  18.507  0.00  0.00    +0.000 A 
ATOM     13  C   UNL     1      49.761   3.143  17.745  0.00  0.00    +0.000 A 
ATOM     14  N   UNL     1      49.277   2.552  16.626  0.00  0.00    +0.000 NA
ATOM     15  C   UNL     1      48.002   2.873  16.313  0.00  0.00    +0.000 A 
ATOM     16  C   UNL     1      47.246   3.750  17.071  0.00  0.00    +0.000 A 
ATOM     17  N   UNL     1      47.734   4.354  18.180  0.00  0.00    +0.000 NA
ENDBRANCH  11  12
ENDBRANCH   9  11
ENDBRANCH   8   9
ENDBRANCH   5   8
ENDBRANCH   1   2
BRANCH   1  18
ATOM     18  N   UNL     1      46.896   8.864  13.783  0.00  0.00    +0.000 NA
ATOM     19  H   UNL     1      46.278   9.662  13.659  0.00  0.00    +0.000 HD
BRANCH  18  20
ATOM     20  C   UNL     1      47.024   8.195  12.477  0.00  0.00    +0.000 C 
BRANCH  20  21
ATOM     21  C   UNL     1      46.399   6.828  12.656  0.00  0.00    +0.000 A 
ATOM     22  C   UNL     1      46.999   5.767  13.325  0.00  0.00    +0.000 A 
ATOM     23  S   UNL     1      46.028   4.364  13.375  0.00  0.00    +0.000 S 
ATOM     24  C   UNL     1      44.768   5.137  12.529  0.00  0.00    +0.000 A 
ATOM     25  N   UNL     1      43.609   4.485  12.243  0.00  0.00    +0.000 NA
ATOM     26  C   UNL     1      42.739   5.206  11.613  0.00  0.00    +0.000 A 
ATOM     27  N   UNL     1      42.921   6.515  11.244  0.00  0.00    +0.000 N 
ATOM     28  C   UNL     1      44.077   7.218  11.506  0.00  0.00    +0.000 A 
ATOM     29  O   UNL     1      44.204   8.383  11.170  0.00  0.00    +0.000 OA
ATOM     30  C   UNL     1      45.083   6.442  12.212  0.00  0.00    +0.000 A 
ATOM     31  H   UNL     1      42.199   7.020  10.755  0.00  0.00    +0.000 HD
ENDBRANCH  20  21
BRANCH  20  33
ATOM     32  C   UNL     1      49.540   7.933  11.581  0.00  0.00    +0.000 C 
ATOM     33  C   UNL     1      48.418   8.049  12.017  0.00  0.00    +0.000 C 
ENDBRANCH  20  33
ENDBRANCH  18  20
ENDBRANCH   1  18
TORSDOF 9
ENDMDL
