MODEL 1
REMARK VINA RESULT:    -7.057      0.000      0.000
REMARK INTER + INTRA:         -11.112
REMARK INTER:                  -9.944
REMARK INTRA:                  -1.168
REMARK UNBOUND:                -1.168
REMARK  Name = 
REMARK  10 active torsions:
REMARK  status: ('A' for Active; 'I' for Inactive)
REMARK    1  A    between atoms: C_1  and  C_2
REMARK    2  A    between atoms: C_5  and  O_6
REMARK    3  A    between atoms: O_6  and  C_7
REMARK    4  A    between atoms: C_7  and  C_8
REMARK    5  A    between atoms: C_8  and  C_9
REMARK    6  A    between atoms: C_14  and  N_15
REMARK    7  A    between atoms: N_15  and  C_16
REMARK    8  A    between atoms: C_22  and  C_23
REMARK    9  A    between atoms: N_25  and  C_26
REMARK   10  A    between atoms: N_25  and  C_27
REMARK                            x       y       z     vdW  Elec       q    Type
REMARK                         _______ _______ _______ _____ _____    ______ ____
ROOT
ATOM      1  C   UNL     1      48.665   7.208  12.819  0.00  0.00    +0.000 C 
ENDROOT
BRANCH   1   2
ATOM      2  O   UNL     1      48.956   8.311  13.688  0.00  0.00    +0.000 OA
BRANCH   2   7
ATOM      3  C   UNL     1      48.617   7.132  19.275  0.00  0.00    +0.000 C 
ATOM      4  C   UNL     1      48.655   7.292  17.783  0.00  0.00    +0.000 A 
ATOM      5  C   UNL     1      48.325   8.585  17.335  0.00  0.00    +0.000 A 
ATOM      6  C   UNL     1      48.409   8.944  15.986  0.00  0.00    +0.000 A 
ATOM      7  C   UNL     1      48.805   8.018  15.029  0.00  0.00    +0.000 A 
ATOM      8  C   UNL     1      49.086   6.716  15.456  0.00  0.00    +0.000 A 
ATOM      9  C   UNL     1      49.010   6.314  16.828  0.00  0.00    +0.000 A 
BRANCH   9  10
ATOM     10  C   UNL     1      49.501   4.902  17.064  0.00  0.00    +0.000 C 
ATOM     11  O   UNL     1      50.728   4.771  17.062  0.00  0.00    +0.000 OA
ATOM     12  N   UNL     1      48.684   3.768  17.198  0.00  0.00    +0.000 N 
ATOM     13  C   UNL     1      47.244   3.729  17.335  0.00  0.00    +0.000 C 
ATOM     14  C   UNL     1      49.333   2.464  17.306  0.00  0.00    +0.000 C 
ENDBRANCH   9  10
ENDBRANCH   2   7
ENDBRANCH   1   2
BRANCH   1  15
ATOM     15  C   UNL     1      47.516   7.457  11.834  0.00  0.00    +0.000 C 
BRANCH  15  16
ATOM     16  C   UNL     1      46.614   6.235  11.842  0.00  0.00    +0.000 A 
ATOM     17  C   UNL     1      46.487   5.455  13.000  0.00  0.00    +0.000 A 
ATOM     18  C   UNL     1      45.550   4.425  13.058  0.00  0.00    +0.000 A 
ATOM     19  C   UNL     1      44.726   4.166  11.958  0.00  0.00    +0.000 A 
ATOM     20 CL   UNL     1      43.534   2.918  12.104  0.00  0.00    +0.000 Cl
ATOM     21  C   UNL     1      44.828   4.929  10.779  0.00  0.00    +0.000 A 
ATOM     22  C   UNL     1      45.790   5.952  10.737  0.00  0.00    +0.000 A 
BRANCH  21  23
ATOM     23  N   UNL     1      44.019   4.629   9.650  0.00  0.00    +0.000 N 
ATOM     24  H   UNL     1      43.407   5.417   9.430  0.00  0.00    +0.000 HD
BRANCH  23  25
ATOM     25  C   UNL     1      44.401   3.832   8.525  0.00  0.00    +0.000 C 
ATOM     26  C   UNL     1      44.788   2.390   8.911  0.00  0.00    +0.000 C 
ATOM     27  C   UNL     1      46.059   2.540   8.061  0.00  0.00    +0.000 C 
ATOM     28  C   UNL     1      45.868   4.065   8.103  0.00  0.00    +0.000 C 
ENDBRANCH  23  25
ENDBRANCH  21  23
ENDBRANCH  15  16
ENDBRANCH   1  15
TORSDOF 7
ENDMDL
MODEL 2
REMARK VINA RESULT:    -6.556      1.939      3.299
REMARK INTER + INTRA:         -10.407
REMARK INTER:                  -9.422
REMARK INTRA:                  -0.985
REMARK UNBOUND:                -1.168
REMARK  Name = 
REMARK  10 active torsions:
REMARK  status: ('A' for Active; 'I' for Inactive)
REMARK    1  A    between atoms: C_1  and  C_2
REMARK    2  A    between atoms: C_5  and  O_6
REMARK    3  A    between atoms: O_6  and  C_7
REMARK    4  A    between atoms: C_7  and  C_8
REMARK    5  A    between atoms: C_8  and  C_9
REMARK    6  A    between atoms: C_14  and  N_15
REMARK    7  A    between atoms: N_15  and  C_16
REMARK    8  A    between atoms: C_22  and  C_23
REMARK    9  A    between atoms: N_25  and  C_26
REMARK   10  A    between atoms: N_25  and  C_27
REMARK                            x       y       z     vdW  Elec       q    Type
REMARK                         _______ _______ _______ _____ _____    ______ ____
ROOT
ATOM      1  C   UNL     1      46.237   6.968  12.201  0.00  0.00    +0.000 C 
ENDROOT
BRANCH   1   2
ATOM      2  O   UNL     1      47.516   6.997  11.551  0.00  0.00    +0.000 OA
BRANCH   2   7
ATOM      3  C   UNL     1      51.938   8.127  14.999  0.00  0.00    +0.000 C 
ATOM      4  C   UNL     1      50.683   7.859  14.220  0.00  0.00    +0.000 A 
ATOM      5  C   UNL     1      50.747   8.258  12.872  0.00  0.00    +0.000 A 
ATOM      6  C   UNL     1      49.710   7.992  11.972  0.00  0.00    +0.000 A 
ATOM      7  C   UNL     1      48.559   7.336  12.390  0.00  0.00    +0.000 A 
ATOM      8  C   UNL     1      48.463   6.979  13.740  0.00  0.00    +0.000 A 
ATOM      9  C   UNL     1      49.505   7.237  14.688  0.00  0.00    +0.000 A 
BRANCH   9  10
ATOM     10  C   UNL     1      49.235   6.630  16.048  0.00  0.00    +0.000 C 
ATOM     11  O   UNL     1      49.377   5.406  16.108  0.00  0.00    +0.000 OA
ATOM     12  N   UNL     1      48.777   7.331  17.174  0.00  0.00    +0.000 N 
ATOM     13  C   UNL     1      48.657   8.764  17.335  0.00  0.00    +0.000 C 
ATOM     14  C   UNL     1      48.460   6.565  18.377  0.00  0.00    +0.000 C 
ENDBRANCH   9  10
ENDBRANCH   2   7
ENDBRANCH   1   2
BRANCH   1  15
ATOM     15  C   UNL     1      45.041   6.835  11.251  0.00  0.00    +0.000 C 
BRANCH  15  16
ATOM     16  C   UNL     1      45.016   5.411  10.720  0.00  0.00    +0.000 A 
ATOM     17  C   UNL     1      44.511   4.369  11.511  0.00  0.00    +0.000 A 
ATOM     18  C   UNL     1      44.348   3.093  10.975  0.00  0.00    +0.000 A 
ATOM     19  C   UNL     1      44.685   2.846   9.640  0.00  0.00    +0.000 A 
ATOM     20 CL   UNL     1      44.403   1.260   9.005  0.00  0.00    +0.000 Cl
ATOM     21  C   UNL     1      45.196   3.870   8.819  0.00  0.00    +0.000 A 
ATOM     22  C   UNL     1      45.367   5.144   9.384  0.00  0.00    +0.000 A 
BRANCH  21  23
ATOM     23  N   UNL     1      45.580   3.599   7.478  0.00  0.00    +0.000 N 
ATOM     24  H   UNL     1      45.019   4.152   6.827  0.00  0.00    +0.000 HD
BRANCH  23  25
ATOM     25  C   UNL     1      46.901   3.292   7.023  0.00  0.00    +0.000 C 
ATOM     26  C   UNL     1      46.974   3.049   5.502  0.00  0.00    +0.000 C 
ATOM     27  C   UNL     1      47.772   1.765   5.780  0.00  0.00    +0.000 C 
ATOM     28  C   UNL     1      47.271   1.807   7.233  0.00  0.00    +0.000 C 
ENDBRANCH  23  25
ENDBRANCH  21  23
ENDBRANCH  15  16
ENDBRANCH   1  15
TORSDOF 7
ENDMDL
MODEL 3
REMARK VINA RESULT:    -6.387      1.715      2.571
REMARK INTER + INTRA:         -10.169
REMARK INTER:                  -8.950
REMARK INTRA:                  -1.218
REMARK UNBOUND:                -1.168
REMARK  Name = 
REMARK  10 active torsions:
REMARK  status: ('A' for Active; 'I' for Inactive)
REMARK    1  A    between atoms: C_1  and  C_2
REMARK    2  A    between atoms: C_5  and  O_6
REMARK    3  A    between atoms: O_6  and  C_7
REMARK    4  A    between atoms: C_7  and  C_8
REMARK    5  A    between atoms: C_8  and  C_9
REMARK    6  A    between atoms: C_14  and  N_15
REMARK    7  A    between atoms: N_15  and  C_16
REMARK    8  A    between atoms: C_22  and  C_23
REMARK    9  A    between atoms: N_25  and  C_26
REMARK   10  A    between atoms: N_25  and  C_27
REMARK                            x       y       z     vdW  Elec       q    Type
REMARK                         _______ _______ _______ _____ _____    ______ ____
ROOT
ATOM      1  C   UNL     1      48.887   6.950  12.844  0.00  0.00    +0.000 C 
ENDROOT
BRANCH   1   2
ATOM      2  O   UNL     1      48.595   7.281  14.209  0.00  0.00    +0.000 OA
BRANCH   2   7
ATOM      3  C   UNL     1      47.325   2.905  17.666  0.00  0.00    +0.000 C 
ATOM      4  C   UNL     1      47.810   4.039  16.809  0.00  0.00    +0.000 A 
ATOM      5  C   UNL     1      47.146   4.149  15.574  0.00  0.00    +0.000 A 
ATOM      6  C   UNL     1      47.394   5.207  14.694  0.00  0.00    +0.000 A 
ATOM      7  C   UNL     1      48.331   6.184  15.004  0.00  0.00    +0.000 A 
ATOM      8  C   UNL     1      49.034   6.056  16.208  0.00  0.00    +0.000 A 
ATOM      9  C   UNL     1      48.806   4.986  17.131  0.00  0.00    +0.000 A 
BRANCH   9  10
ATOM     10  C   UNL     1      49.577   5.141  18.424  0.00  0.00    +0.000 C 
ATOM     11  O   UNL     1      49.063   5.904  19.247  0.00  0.00    +0.000 OA
ATOM     12  N   UNL     1      50.824   4.561  18.702  0.00  0.00    +0.000 N 
ATOM     13  C   UNL     1      51.528   3.564  17.924  0.00  0.00    +0.000 C 
ATOM     14  C   UNL     1      51.479   4.910  19.960  0.00  0.00    +0.000 C 
ENDBRANCH   9  10
ENDBRANCH   2   7
ENDBRANCH   1   2
BRANCH   1  15
ATOM     15  C   UNL     1      48.031   7.691  11.810  0.00  0.00    +0.000 C 
BRANCH  15  16
ATOM     16  C   UNL     1      46.624   7.120  11.867  0.00  0.00    +0.000 A 
ATOM     17  C   UNL     1      45.541   7.938  12.219  0.00  0.00    +0.000 A 
ATOM     18  C   UNL     1      44.236   7.457  12.126  0.00  0.00    +0.000 A 
ATOM     19  C   UNL     1      43.999   6.154  11.678  0.00  0.00    +0.000 A 
ATOM     20 CL   UNL     1      42.357   5.628  11.520  0.00  0.00    +0.000 Cl
ATOM     21  C   UNL     1      45.064   5.306  11.318  0.00  0.00    +0.000 A 
ATOM     22  C   UNL     1      46.372   5.805  11.434  0.00  0.00    +0.000 A 
BRANCH  21  23
ATOM     23  N   UNL     1      44.818   3.968  10.908  0.00  0.00    +0.000 N 
ATOM     24  H   UNL     1      44.369   3.441  11.660  0.00  0.00    +0.000 HD
BRANCH  23  25
ATOM     25  C   UNL     1      44.479   3.538   9.587  0.00  0.00    +0.000 C 
ATOM     26  C   UNL     1      45.204   2.242   9.169  0.00  0.00    +0.000 C 
ATOM     27  C   UNL     1      45.589   2.926   7.847  0.00  0.00    +0.000 C 
ATOM     28  C   UNL     1      45.277   4.284   8.496  0.00  0.00    +0.000 C 
ENDBRANCH  23  25
ENDBRANCH  21  23
ENDBRANCH  15  16
ENDBRANCH   1  15
TORSDOF 7
ENDMDL
MODEL 4
REMARK VINA RESULT:    -6.220      6.011     11.534
REMARK INTER + INTRA:          -9.933
REMARK INTER:                  -8.961
REMARK INTRA:                  -0.973
REMARK UNBOUND:                -1.168
REMARK  Name = 
REMARK  10 active torsions:
REMARK  status: ('A' for Active; 'I' for Inactive)
REMARK    1  A    between atoms: C_1  and  C_2
REMARK    2  A    between atoms: C_5  and  O_6
REMARK    3  A    between atoms: O_6  and  C_7
REMARK    4  A    between atoms: C_7  and  C_8
REMARK    5  A    between atoms: C_8  and  C_9
REMARK    6  A    between atoms: C_14  and  N_15
REMARK    7  A    between atoms: N_15  and  C_16
REMARK    8  A    between atoms: C_22  and  C_23
REMARK    9  A    between atoms: N_25  and  C_26
REMARK   10  A    between atoms: N_25  and  C_27
REMARK                            x       y       z     vdW  Elec       q    Type
REMARK                         _______ _______ _______ _____ _____    ______ ____
ROOT
ATOM      1  C   UNL     1      46.837   2.400   5.355  0.00  0.00    +0.000 C 
ENDROOT
BRANCH   1   2
ATOM      2  O   UNL     1      47.656   1.598   4.492  0.00  0.00    +0.000 OA
BRANCH   2   7
ATOM      3  C   UNL     1      44.612  -2.576   2.035  0.00  0.00    +0.000 C 
ATOM      4  C   UNL     1      45.534  -1.581   2.679  0.00  0.00    +0.000 A 
ATOM      5  C   UNL     1      45.296  -0.247   2.301  0.00  0.00    +0.000 A 
ATOM      6  C   UNL     1      45.989   0.820   2.880  0.00  0.00    +0.000 A 
ATOM      7  C   UNL     1      46.964   0.595   3.843  0.00  0.00    +0.000 A 
ATOM      8  C   UNL     1      47.245  -0.732   4.190  0.00  0.00    +0.000 A 
ATOM      9  C   UNL     1      46.556  -1.848   3.617  0.00  0.00    +0.000 A 
BRANCH   9  10
ATOM     10  C   UNL     1      46.930  -3.169   4.254  0.00  0.00    +0.000 C 
ATOM     11  O   UNL     1      46.584  -3.294   5.432  0.00  0.00    +0.000 OA
ATOM     12  N   UNL     1      47.680  -4.184   3.641  0.00  0.00    +0.000 N 
ATOM     13  C   UNL     1      48.077  -4.273   2.251  0.00  0.00    +0.000 C 
ATOM     14  C   UNL     1      48.046  -5.348   4.444  0.00  0.00    +0.000 C 
ENDBRANCH   9  10
ENDBRANCH   2   7
ENDBRANCH   1   2
BRANCH   1  15
ATOM     15  C   UNL     1      47.455   2.694   6.728  0.00  0.00    +0.000 C 
BRANCH  15  16
ATOM     16  C   UNL     1      46.324   2.836   7.733  0.00  0.00    +0.000 A 
ATOM     17  C   UNL     1      45.646   1.702   8.202  0.00  0.00    +0.000 A 
ATOM     18  C   UNL     1      44.714   1.814   9.232  0.00  0.00    +0.000 A 
ATOM     19  C   UNL     1      44.451   3.062   9.806  0.00  0.00    +0.000 A 
ATOM     20 CL   UNL     1      43.332   3.137  11.126  0.00  0.00    +0.000 Cl
ATOM     21  C   UNL     1      45.113   4.221   9.358  0.00  0.00    +0.000 A 
ATOM     22  C   UNL     1      46.037   4.088   8.308  0.00  0.00    +0.000 A 
BRANCH  21  23
ATOM     23  N   UNL     1      44.807   5.492   9.915  0.00  0.00    +0.000 N 
ATOM     24  H   UNL     1      43.802   5.574  10.085  0.00  0.00    +0.000 HD
BRANCH  23  25
ATOM     25  C   UNL     1      45.631   6.244  10.810  0.00  0.00    +0.000 C 
ATOM     26  C   UNL     1      45.708   5.628  12.221  0.00  0.00    +0.000 C 
ATOM     27  C   UNL     1      45.409   7.018  12.806  0.00  0.00    +0.000 C 
ATOM     28  C   UNL     1      44.891   7.452  11.425  0.00  0.00    +0.000 C 
ENDBRANCH  23  25
ENDBRANCH  21  23
ENDBRANCH  15  16
ENDBRANCH   1  15
TORSDOF 7
ENDMDL
MODEL 5
REMARK VINA RESULT:    -6.106      2.243      4.175
REMARK INTER + INTRA:          -9.773
REMARK INTER:                  -7.665
REMARK INTRA:                  -2.108
REMARK UNBOUND:                -1.168
REMARK  Name = 
REMARK  10 active torsions:
REMARK  status: ('A' for Active; 'I' for Inactive)
REMARK    1  A    between atoms: C_1  and  C_2
REMARK    2  A    between atoms: C_5  and  O_6
REMARK    3  A    between atoms: O_6  and  C_7
REMARK    4  A    between atoms: C_7  and  C_8
REMARK    5  A    between atoms: C_8  and  C_9
REMARK    6  A    between atoms: C_14  and  N_15
REMARK    7  A    between atoms: N_15  and  C_16
REMARK    8  A    between atoms: C_22  and  C_23
REMARK    9  A    between atoms: N_25  and  C_26
REMARK   10  A    between atoms: N_25  and  C_27
REMARK                            x       y       z     vdW  Elec       q    Type
REMARK                         _______ _______ _______ _____ _____    ______ ____
ROOT
ATOM      1  C   UNL     1      49.614   7.461  12.899  0.00  0.00    +0.000 C 
ENDROOT
BRANCH   1   2
ATOM      2  O   UNL     1      49.640   8.543  13.840  0.00  0.00    +0.000 OA
BRANCH   2   7
ATOM      3  C   UNL     1      48.992   7.079  19.331  0.00  0.00    +0.000 C 
ATOM      4  C   UNL     1      49.191   7.308  17.861  0.00  0.00    +0.000 A 
ATOM      5  C   UNL     1      48.377   8.322  17.323  0.00  0.00    +0.000 A 
ATOM      6  C   UNL     1      48.501   8.743  15.995  0.00  0.00    +0.000 A 
ATOM      7  C   UNL     1      49.428   8.151  15.146  0.00  0.00    +0.000 A 
ATOM      8  C   UNL     1      50.207   7.106  15.656  0.00  0.00    +0.000 A 
ATOM      9  C   UNL     1      50.106   6.650  17.010  0.00  0.00    +0.000 A 
BRANCH   9  10
ATOM     10  C   UNL     1      51.149   5.614  17.369  0.00  0.00    +0.000 C 
ATOM     11  O   UNL     1      50.911   4.474  16.961  0.00  0.00    +0.000 OA
ATOM     12  N   UNL     1      52.280   5.842  18.168  0.00  0.00    +0.000 N 
ATOM     13  C   UNL     1      52.785   7.113  18.643  0.00  0.00    +0.000 C 
ATOM     14  C   UNL     1      53.122   4.698  18.508  0.00  0.00    +0.000 C 
ENDBRANCH   9  10
ENDBRANCH   2   7
ENDBRANCH   1   2
BRANCH   1  15
ATOM     15  C   UNL     1      48.545   7.589  11.807  0.00  0.00    +0.000 C 
BRANCH  15  16
ATOM     16  C   UNL     1      47.354   6.737  12.209  0.00  0.00    +0.000 A 
ATOM     17  C   UNL     1      46.274   6.569  11.331  0.00  0.00    +0.000 A 
ATOM     18  C   UNL     1      45.252   5.671  11.634  0.00  0.00    +0.000 A 
ATOM     19  C   UNL     1      45.301   4.928  12.818  0.00  0.00    +0.000 A 
ATOM     20 CL   UNL     1      44.041   3.778  13.116  0.00  0.00    +0.000 Cl
ATOM     21  C   UNL     1      46.372   5.072  13.722  0.00  0.00    +0.000 A 
ATOM     22  C   UNL     1      47.382   5.994  13.404  0.00  0.00    +0.000 A 
BRANCH  21  23
ATOM     23  N   UNL     1      46.390   4.347  14.943  0.00  0.00    +0.000 N 
ATOM     24  H   UNL     1      45.886   3.464  14.842  0.00  0.00    +0.000 HD
BRANCH  23  25
ATOM     25  C   UNL     1      47.457   4.324  15.896  0.00  0.00    +0.000 C 
ATOM     26  C   UNL     1      47.952   2.899  16.215  0.00  0.00    +0.000 C 
ATOM     27  C   UNL     1      47.861   3.239  17.711  0.00  0.00    +0.000 C 
ATOM     28  C   UNL     1      46.953   4.427  17.353  0.00  0.00    +0.000 C 
ENDBRANCH  23  25
ENDBRANCH  21  23
ENDBRANCH  15  16
ENDBRANCH   1  15
TORSDOF 7
ENDMDL
MODEL 6
REMARK VINA RESULT:    -6.074      1.863      2.946
REMARK INTER + INTRA:          -9.728
REMARK INTER:                  -8.799
REMARK INTRA:                  -0.929
REMARK UNBOUND:                -1.168
REMARK  Name = 
REMARK  10 active torsions:
REMARK  status: ('A' for Active; 'I' for Inactive)
REMARK    1  A    between atoms: C_1  and  C_2
REMARK    2  A    between atoms: C_5  and  O_6
REMARK    3  A    between atoms: O_6  and  C_7
REMARK    4  A    between atoms: C_7  and  C_8
REMARK    5  A    between atoms: C_8  and  C_9
REMARK    6  A    between atoms: C_14  and  N_15
REMARK    7  A    between atoms: N_15  and  C_16
REMARK    8  A    between atoms: C_22  and  C_23
REMARK    9  A    between atoms: N_25  and  C_26
REMARK   10  A    between atoms: N_25  and  C_27
REMARK                            x       y       z     vdW  Elec       q    Type
REMARK                         _______ _______ _______ _____ _____    ______ ____
ROOT
ATOM      1  C   UNL     1      48.103   7.131  14.015  0.00  0.00    +0.000 C 
ENDROOT
BRANCH   1   2
ATOM      2  O   UNL     1      48.939   6.166  14.670  0.00  0.00    +0.000 OA
BRANCH   2   7
ATOM      3  C   UNL     1      47.634   5.778  20.225  0.00  0.00    +0.000 C 
ATOM      4  C   UNL     1      48.120   5.934  18.813  0.00  0.00    +0.000 A 
ATOM      5  C   UNL     1      47.628   4.960  17.926  0.00  0.00    +0.000 A 
ATOM      6  C   UNL     1      47.891   5.010  16.553  0.00  0.00    +0.000 A 
ATOM      7  C   UNL     1      48.675   6.024  16.017  0.00  0.00    +0.000 A 
ATOM      8  C   UNL     1      49.211   6.970  16.898  0.00  0.00    +0.000 A 
ATOM      9  C   UNL     1      48.963   6.948  18.308  0.00  0.00    +0.000 A 
BRANCH   9  10
ATOM     10  C   UNL     1      49.526   8.153  19.030  0.00  0.00    +0.000 C 
ATOM     11  O   UNL     1      50.638   7.982  19.538  0.00  0.00    +0.000 OA
ATOM     12  N   UNL     1      48.858   9.373  19.220  0.00  0.00    +0.000 N 
ATOM     13  C   UNL     1      47.613   9.801  18.619  0.00  0.00    +0.000 C 
ATOM     14  C   UNL     1      49.508  10.390  20.042  0.00  0.00    +0.000 C 
ENDBRANCH   9  10
ENDBRANCH   2   7
ENDBRANCH   1   2
BRANCH   1  15
ATOM     15  C   UNL     1      47.946   6.919  12.504  0.00  0.00    +0.000 C 
BRANCH  15  16
ATOM     16  C   UNL     1      46.745   6.018  12.277  0.00  0.00    +0.000 A 
ATOM     17  C   UNL     1      46.096   5.414  13.363  0.00  0.00    +0.000 A 
ATOM     18  C   UNL     1      44.907   4.711  13.172  0.00  0.00    +0.000 A 
ATOM     19  C   UNL     1      44.354   4.606  11.892  0.00  0.00    +0.000 A 
ATOM     20 CL   UNL     1      42.843   3.777  11.718  0.00  0.00    +0.000 Cl
ATOM     21  C   UNL     1      44.980   5.199  10.779  0.00  0.00    +0.000 A 
ATOM     22  C   UNL     1      46.185   5.889  10.991  0.00  0.00    +0.000 A 
BRANCH  21  23
ATOM     23  N   UNL     1      44.436   5.048   9.475  0.00  0.00    +0.000 N 
ATOM     24  H   UNL     1      44.404   5.950   8.995  0.00  0.00    +0.000 HD
BRANCH  23  25
ATOM     25  C   UNL     1      44.599   3.915   8.617  0.00  0.00    +0.000 C 
ATOM     26  C   UNL     1      45.124   2.668   9.357  0.00  0.00    +0.000 C 
ATOM     27  C   UNL     1      46.173   2.494   8.247  0.00  0.00    +0.000 C 
ATOM     28  C   UNL     1      45.928   3.954   7.831  0.00  0.00    +0.000 C 
ENDBRANCH  23  25
ENDBRANCH  21  23
ENDBRANCH  15  16
ENDBRANCH   1  15
TORSDOF 7
ENDMDL
MODEL 7
REMARK VINA RESULT:    -5.972      2.471      7.185
REMARK INTER + INTRA:          -9.584
REMARK INTER:                  -8.159
REMARK INTRA:                  -1.424
REMARK UNBOUND:                -1.168
REMARK  Name = 
REMARK  10 active torsions:
REMARK  status: ('A' for Active; 'I' for Inactive)
REMARK    1  A    between atoms: C_1  and  C_2
REMARK    2  A    between atoms: C_5  and  O_6
REMARK    3  A    between atoms: O_6  and  C_7
REMARK    4  A    between atoms: C_7  and  C_8
REMARK    5  A    between atoms: C_8  and  C_9
REMARK    6  A    between atoms: C_14  and  N_15
REMARK    7  A    between atoms: N_15  and  C_16
REMARK    8  A    between atoms: C_22  and  C_23
REMARK    9  A    between atoms: N_25  and  C_26
REMARK   10  A    between atoms: N_25  and  C_27
REMARK                            x       y       z     vdW  Elec       q    Type
REMARK                         _______ _______ _______ _____ _____    ______ ____
ROOT
ATOM      1  C   UNL     1      50.126   7.659  14.021  0.00  0.00    +0.000 C 
ENDROOT
BRANCH   1   2
ATOM      2  O   UNL     1      49.217   6.556  13.900  0.00  0.00    +0.000 OA
BRANCH   2   7
ATOM      3  C   UNL     1      44.256   7.838  11.358  0.00  0.00    +0.000 C 
ATOM      4  C   UNL     1      45.555   7.364  11.943  0.00  0.00    +0.000 A 
ATOM      5  C   UNL     1      46.481   8.393  12.193  0.00  0.00    +0.000 A 
ATOM      6  C   UNL     1      47.701   8.150  12.831  0.00  0.00    +0.000 A 
ATOM      7  C   UNL     1      48.054   6.866  13.224  0.00  0.00    +0.000 A 
ATOM      8  C   UNL     1      47.162   5.826  12.934  0.00  0.00    +0.000 A 
ATOM      9  C   UNL     1      45.905   6.039  12.282  0.00  0.00    +0.000 A 
BRANCH   9  10
ATOM     10  C   UNL     1      45.053   4.791  12.210  0.00  0.00    +0.000 C 
ATOM     11  O   UNL     1      44.701   4.338  13.303  0.00  0.00    +0.000 OA
ATOM     12  N   UNL     1      44.719   4.100  11.035  0.00  0.00    +0.000 N 
ATOM     13  C   UNL     1      44.940   4.524   9.668  0.00  0.00    +0.000 C 
ATOM     14  C   UNL     1      43.981   2.846  11.161  0.00  0.00    +0.000 C 
ENDBRANCH   9  10
ENDBRANCH   2   7
ENDBRANCH   1   2
BRANCH   1  15
ATOM     15  C   UNL     1      51.048   7.594  15.245  0.00  0.00    +0.000 C 
BRANCH  15  16
ATOM     16  C   UNL     1      50.195   7.281  16.463  0.00  0.00    +0.000 A 
ATOM     17  C   UNL     1      49.234   8.198  16.909  0.00  0.00    +0.000 A 
ATOM     18  C   UNL     1      48.350   7.852  17.930  0.00  0.00    +0.000 A 
ATOM     19  C   UNL     1      48.417   6.584  18.514  0.00  0.00    +0.000 A 
ATOM     20 CL   UNL     1      47.254   6.182  19.734  0.00  0.00    +0.000 Cl
ATOM     21  C   UNL     1      49.371   5.639  18.091  0.00  0.00    +0.000 A 
ATOM     22  C   UNL     1      50.262   6.014  17.072  0.00  0.00    +0.000 A 
BRANCH  21  23
ATOM     23  N   UNL     1      49.462   4.369  18.721  0.00  0.00    +0.000 N 
ATOM     24  H   UNL     1      49.482   4.476  19.738  0.00  0.00    +0.000 HD
BRANCH  23  25
ATOM     25  C   UNL     1      48.875   3.150  18.256  0.00  0.00    +0.000 C 
ATOM     26  C   UNL     1      49.759   2.406  17.234  0.00  0.00    +0.000 C 
ATOM     27  C   UNL     1      48.527   2.261  16.327  0.00  0.00    +0.000 C 
ATOM     28  C   UNL     1      47.844   3.380  17.130  0.00  0.00    +0.000 C 
ENDBRANCH  23  25
ENDBRANCH  21  23
ENDBRANCH  15  16
ENDBRANCH   1  15
TORSDOF 7
ENDMDL
MODEL 8
REMARK VINA RESULT:    -5.845      3.423      8.537
REMARK INTER + INTRA:          -9.404
REMARK INTER:                  -8.324
REMARK INTRA:                  -1.080
REMARK UNBOUND:                -1.168
REMARK  Name = 
REMARK  10 active torsions:
REMARK  status: ('A' for Active; 'I' for Inactive)
REMARK    1  A    between atoms: C_1  and  C_2
REMARK    2  A    between atoms: C_5  and  O_6
REMARK    3  A    between atoms: O_6  and  C_7
REMARK    4  A    between atoms: C_7  and  C_8
REMARK    5  A    between atoms: C_8  and  C_9
REMARK    6  A    between atoms: C_14  and  N_15
REMARK    7  A    between atoms: N_15  and  C_16
REMARK    8  A    between atoms: C_22  and  C_23
REMARK    9  A    between atoms: N_25  and  C_26
REMARK   10  A    between atoms: N_25  and  C_27
REMARK                            x       y       z     vdW  Elec       q    Type
REMARK                         _______ _______ _______ _____ _____    ______ ____
ROOT
ATOM      1  C   UNL     1      48.661   6.347  16.177  0.00  0.00    +0.000 C 
ENDROOT
BRANCH   1   2
ATOM      2  O   UNL     1      48.873   5.972  14.809  0.00  0.00    +0.000 OA
BRANCH   2   7
ATOM      3  C   UNL     1      44.565   7.746  11.491  0.00  0.00    +0.000 C 
ATOM      4  C   UNL     1      45.698   7.147  12.274  0.00  0.00    +0.000 A 
ATOM      5  C   UNL     1      46.637   8.087  12.736  0.00  0.00    +0.000 A 
ATOM      6  C   UNL     1      47.699   7.722  13.569  0.00  0.00    +0.000 A 
ATOM      7  C   UNL     1      47.878   6.400  13.954  0.00  0.00    +0.000 A 
ATOM      8  C   UNL     1      46.979   5.448  13.458  0.00  0.00    +0.000 A 
ATOM      9  C   UNL     1      45.881   5.786  12.603  0.00  0.00    +0.000 A 
BRANCH   9  10
ATOM     10  C   UNL     1      44.966   4.615  12.319  0.00  0.00    +0.000 C 
ATOM     11  O   UNL     1      44.462   4.094  13.318  0.00  0.00    +0.000 OA
ATOM     12  N   UNL     1      44.727   4.059  11.052  0.00  0.00    +0.000 N 
ATOM     13  C   UNL     1      45.130   4.586   9.766  0.00  0.00    +0.000 C 
ATOM     14  C   UNL     1      43.902   2.856  10.976  0.00  0.00    +0.000 C 
ENDBRANCH   9  10
ENDBRANCH   2   7
ENDBRANCH   1   2
BRANCH   1  15
ATOM     15  C   UNL     1      48.033   5.252  17.049  0.00  0.00    +0.000 C 
BRANCH  15  16
ATOM     16  C   UNL     1      49.074   4.169  17.270  0.00  0.00    +0.000 A 
ATOM     17  C   UNL     1      48.776   2.829  16.984  0.00  0.00    +0.000 A 
ATOM     18  C   UNL     1      49.773   1.857  17.043  0.00  0.00    +0.000 A 
ATOM     19  C   UNL     1      51.080   2.214  17.386  0.00  0.00    +0.000 A 
ATOM     20 CL   UNL     1      52.295   0.979  17.382  0.00  0.00    +0.000 Cl
ATOM     21  C   UNL     1      51.414   3.550  17.681  0.00  0.00    +0.000 A 
ATOM     22  C   UNL     1      50.391   4.511  17.631  0.00  0.00    +0.000 A 
BRANCH  21  23
ATOM     23  N   UNL     1      52.735   3.897  18.074  0.00  0.00    +0.000 N 
ATOM     24  H   UNL     1      53.349   3.944  17.258  0.00  0.00    +0.000 HD
BRANCH  23  25
ATOM     25  C   UNL     1      53.095   4.769  19.149  0.00  0.00    +0.000 C 
ATOM     26  C   UNL     1      54.569   4.622  19.578  0.00  0.00    +0.000 C 
ATOM     27  C   UNL     1      54.099   4.531  21.038  0.00  0.00    +0.000 C 
ATOM     28  C   UNL     1      52.683   4.211  20.529  0.00  0.00    +0.000 C 
ENDBRANCH  23  25
ENDBRANCH  21  23
ENDBRANCH  15  16
ENDBRANCH   1  15
TORSDOF 7
ENDMDL
MODEL 9
REMARK VINA RESULT:    -5.766      1.592      2.197
REMARK INTER + INTRA:          -9.294
REMARK INTER:                  -7.903
REMARK INTRA:                  -1.391
REMARK UNBOUND:                -1.168
REMARK  Name = 
REMARK  10 active torsions:
REMARK  status: ('A' for Active; 'I' for Inactive)
REMARK    1  A    between atoms: C_1  and  C_2
REMARK    2  A    between atoms: C_5  and  O_6
REMARK    3  A    between atoms: O_6  and  C_7
REMARK    4  A    between atoms: C_7  and  C_8
REMARK    5  A    between atoms: C_8  and  C_9
REMARK    6  A    between atoms: C_14  and  N_15
REMARK    7  A    between atoms: N_15  and  C_16
REMARK    8  A    between atoms: C_22  and  C_23
REMARK    9  A    between atoms: N_25  and  C_26
REMARK   10  A    between atoms: N_25  and  C_27
REMARK                            x       y       z     vdW  Elec       q    Type
REMARK                         _______ _______ _______ _____ _____    ______ ____
ROOT
ATOM      1  C   UNL     1      49.433   7.682  13.557  0.00  0.00    +0.000 C 
ENDROOT
BRANCH   1   2
ATOM      2  O   UNL     1      49.367   8.720  14.545  0.00  0.00    +0.000 OA
BRANCH   2   7
ATOM      3  C   UNL     1      48.052   6.909  19.809  0.00  0.00    +0.000 C 
ATOM      4  C   UNL     1      48.355   7.239  18.376  0.00  0.00    +0.000 A 
ATOM      5  C   UNL     1      48.080   8.573  18.023  0.00  0.00    +0.000 A 
ATOM      6  C   UNL     1      48.399   9.084  16.761  0.00  0.00    +0.000 A 
ATOM      7  C   UNL     1      48.983   8.276  15.794  0.00  0.00    +0.000 A 
ATOM      8  C   UNL     1      49.213   6.934  16.117  0.00  0.00    +0.000 A 
ATOM      9  C   UNL     1      48.900   6.377  17.399  0.00  0.00    +0.000 A 
BRANCH   9  10
ATOM     10  C   UNL     1      49.373   4.949  17.560  0.00  0.00    +0.000 C 
ATOM     11  O   UNL     1      50.479   4.826  18.095  0.00  0.00    +0.000 OA
ATOM     12  N   UNL     1      48.701   3.811  17.089  0.00  0.00    +0.000 N 
ATOM     13  C   UNL     1      47.362   3.738  16.543  0.00  0.00    +0.000 C 
ATOM     14  C   UNL     1      49.361   2.516  17.232  0.00  0.00    +0.000 C 
ENDBRANCH   9  10
ENDBRANCH   2   7
ENDBRANCH   1   2
BRANCH   1  15
ATOM     15  C   UNL     1      48.906   8.083  12.174  0.00  0.00    +0.000 C 
BRANCH  15  16
ATOM     16  C   UNL     1      47.445   7.677  12.090  0.00  0.00    +0.000 A 
ATOM     17  C   UNL     1      46.445   8.521  12.596  0.00  0.00    +0.000 A 
ATOM     18  C   UNL     1      45.100   8.223  12.387  0.00  0.00    +0.000 A 
ATOM     19  C   UNL     1      44.739   7.079  11.668  0.00  0.00    +0.000 A 
ATOM     20 CL   UNL     1      43.056   6.789  11.381  0.00  0.00    +0.000 Cl
ATOM     21  C   UNL     1      45.717   6.210  11.147  0.00  0.00    +0.000 A 
ATOM     22  C   UNL     1      47.067   6.521  11.383  0.00  0.00    +0.000 A 
BRANCH  21  23
ATOM     23  N   UNL     1      45.342   5.026  10.458  0.00  0.00    +0.000 N 
ATOM     24  H   UNL     1      45.780   4.996   9.535  0.00  0.00    +0.000 HD
BRANCH  23  25
ATOM     25  C   UNL     1      45.094   3.747  11.048  0.00  0.00    +0.000 C 
ATOM     26  C   UNL     1      43.601   3.363  11.053  0.00  0.00    +0.000 C 
ATOM     27  C   UNL     1      43.738   2.988  12.538  0.00  0.00    +0.000 C 
ATOM     28  C   UNL     1      45.039   3.806  12.590  0.00  0.00    +0.000 C 
ENDBRANCH  23  25
ENDBRANCH  21  23
ENDBRANCH  15  16
ENDBRANCH   1  15
TORSDOF 7
ENDMDL
