MODEL 1
REMARK VINA RESULT:    -7.785      0.000      0.000
REMARK INTER + INTRA:         -11.007
REMARK INTER:                 -10.515
REMARK INTRA:                  -0.492
REMARK UNBOUND:                -0.492
REMARK  Name = 
REMARK  7 active torsions:
REMARK  status: ('A' for Active; 'I' for Inactive)
REMARK    1  A    between atoms: C_2  and  O_3
REMARK    2  A    between atoms: C_2  and  C_4
REMARK    3  A    between atoms: C_7  and  C_8
REMARK    4  A    between atoms: C_8  and  C_9
REMARK    5  A    between atoms: C_9  and  O_10
REMARK    6  A    between atoms: C_9  and  C_11
REMARK    7  A    between atoms: C_15  and  C_16
REMARK                            x       y       z     vdW  Elec       q    Type
REMARK                         _______ _______ _______ _____ _____    ______ ____
ROOT
ATOM      1  C   UNL     1      44.798   4.119  12.758  0.00  0.00    +0.000 C 
ENDROOT
BRANCH   1   2
ATOM      2  C   UNL     1      46.018   4.894  13.223  0.00  0.00    +0.000 A 
ATOM      3  C   UNL     1      46.423   6.027  12.503  0.00  0.00    +0.000 A 
ATOM      4  C   UNL     1      47.476   6.823  12.952  0.00  0.00    +0.000 A 
ATOM      5  C   UNL     1      48.123   6.514  14.149  0.00  0.00    +0.000 A 
ATOM      6  C   UNL     1      47.720   5.416  14.926  0.00  0.00    +0.000 A 
ATOM      7  C   UNL     1      46.679   4.606  14.429  0.00  0.00    +0.000 A 
BRANCH   6   8
ATOM      8  C   UNL     1      48.284   5.153  16.260  0.00  0.00    +0.000 A 
ATOM      9  C   UNL     1      47.595   4.431  17.237  0.00  0.00    +0.000 A 
ATOM     10  N   UNL     1      48.131   4.086  18.434  0.00  0.00    +0.000 NA
ATOM     11  C   UNL     1      49.406   4.486  18.625  0.00  0.00    +0.000 A 
ATOM     12  C   UNL     1      50.103   5.208  17.673  0.00  0.00    +0.000 A 
ATOM     13  N   UNL     1      49.567   5.554  16.477  0.00  0.00    +0.000 NA
ENDBRANCH   6   8
ENDBRANCH   1   2
BRANCH   1  14
ATOM     14  C   UNL     1      44.137   4.624  11.471  0.00  0.00    +0.000 C 
ATOM     15  C   UNL     1      42.654   5.000  11.384  0.00  0.00    +0.000 C 
ATOM     16  C   UNL     1      43.679   6.082  11.493  0.00  0.00    +0.000 C 
BRANCH  14  20
ATOM     17  C   UNL     1      46.043   3.148   7.903  0.00  0.00    +0.000 A 
ATOM     18  C   UNL     1      46.098   4.510   8.179  0.00  0.00    +0.000 A 
ATOM     19  C   UNL     1      45.472   4.990   9.328  0.00  0.00    +0.000 A 
ATOM     20  C   UNL     1      44.781   4.118  10.176  0.00  0.00    +0.000 A 
ATOM     21  N   UNL     1      44.697   2.796   9.884  0.00  0.00    +0.000 NA
ATOM     22  C   UNL     1      45.319   2.339   8.764  0.00  0.00    +0.000 A 
BRANCH  17  24
ATOM     23  O   UNL     1      46.979   1.358   6.676  0.00  0.00    +0.000 OA
ATOM     24  C   UNL     1      46.690   2.539   6.727  0.00  0.00    +0.000 C 
BRANCH  24  25
ATOM     25  O   UNL     1      46.967   3.416   5.740  0.00  0.00    +0.000 OA
ATOM     26  H   UNL     1      46.412   4.217   5.718  0.00  0.00    +0.000 HD
ENDBRANCH  24  25
ENDBRANCH  17  24
ENDBRANCH  14  20
ENDBRANCH   1  14
BRANCH   1  27
ATOM     27  O   UNL     1      45.206   2.751  12.629  0.00  0.00    +0.000 OA
ATOM     28  H   UNL     1      46.061   2.671  13.079  0.00  0.00    +0.000 HD
ENDBRANCH   1  27
TORSDOF 7
ENDMDL
MODEL 2
REMARK VINA RESULT:    -7.671      3.050      4.404
REMARK INTER + INTRA:         -10.854
REMARK INTER:                  -9.784
REMARK INTRA:                  -1.070
REMARK UNBOUND:                -0.492
REMARK  Name = 
REMARK  7 active torsions:
REMARK  status: ('A' for Active; 'I' for Inactive)
REMARK    1  A    between atoms: C_2  and  O_3
REMARK    2  A    between atoms: C_2  and  C_4
REMARK    3  A    between atoms: C_7  and  C_8
REMARK    4  A    between atoms: C_8  and  C_9
REMARK    5  A    between atoms: C_9  and  O_10
REMARK    6  A    between atoms: C_9  and  C_11
REMARK    7  A    between atoms: C_15  and  C_16
REMARK                            x       y       z     vdW  Elec       q    Type
REMARK                         _______ _______ _______ _____ _____    ______ ____
ROOT
ATOM      1  C   UNL     1      45.017   4.656  12.786  0.00  0.00    +0.000 C 
ENDROOT
BRANCH   1   2
ATOM      2  C   UNL     1      46.027   5.788  12.834  0.00  0.00    +0.000 A 
ATOM      3  C   UNL     1      47.391   5.482  12.956  0.00  0.00    +0.000 A 
ATOM      4  C   UNL     1      48.357   6.485  12.903  0.00  0.00    +0.000 A 
ATOM      5  C   UNL     1      47.976   7.812  12.698  0.00  0.00    +0.000 A 
ATOM      6  C   UNL     1      46.627   8.157  12.525  0.00  0.00    +0.000 A 
ATOM      7  C   UNL     1      45.667   7.129  12.622  0.00  0.00    +0.000 A 
BRANCH   6   8
ATOM      8  C   UNL     1      46.209   9.522  12.161  0.00  0.00    +0.000 A 
ATOM      9  C   UNL     1      44.868   9.907  12.112  0.00  0.00    +0.000 A 
ATOM     10  N   UNL     1      44.461  11.180  11.882  0.00  0.00    +0.000 NA
ATOM     11  C   UNL     1      45.456  12.075  11.708  0.00  0.00    +0.000 A 
ATOM     12  C   UNL     1      46.790  11.712  11.747  0.00  0.00    +0.000 A 
ATOM     13  N   UNL     1      47.197  10.440  11.975  0.00  0.00    +0.000 NA
ENDBRANCH   6   8
ENDBRANCH   1   2
BRANCH   1  14
ATOM     14  C   UNL     1      44.115   4.618  11.548  0.00  0.00    +0.000 C 
ATOM     15  C   UNL     1      42.595   4.439  11.624  0.00  0.00    +0.000 C 
ATOM     16  C   UNL     1      43.161   5.802  11.389  0.00  0.00    +0.000 C 
BRANCH  14  20
ATOM     17  C   UNL     1      46.118   3.113   8.045  0.00  0.00    +0.000 A 
ATOM     18  C   UNL     1      46.047   4.488   8.238  0.00  0.00    +0.000 A 
ATOM     19  C   UNL     1      45.389   4.977   9.366  0.00  0.00    +0.000 A 
ATOM     20  C   UNL     1      44.791   4.097  10.275  0.00  0.00    +0.000 A 
ATOM     21  N   UNL     1      44.831   2.758  10.064  0.00  0.00    +0.000 NA
ATOM     22  C   UNL     1      45.482   2.293   8.964  0.00  0.00    +0.000 A 
BRANCH  17  24
ATOM     23  O   UNL     1      47.239   1.359   6.925  0.00  0.00    +0.000 OA
ATOM     24  C   UNL     1      46.808   2.498   6.898  0.00  0.00    +0.000 C 
BRANCH  24  25
ATOM     25  O   UNL     1      46.954   3.322   5.840  0.00  0.00    +0.000 OA
ATOM     26  H   UNL     1      46.206   3.923   5.667  0.00  0.00    +0.000 HD
ENDBRANCH  24  25
ENDBRANCH  17  24
ENDBRANCH  14  20
ENDBRANCH   1  14
BRANCH   1  27
ATOM     27  O   UNL     1      45.759   3.438  12.924  0.00  0.00    +0.000 OA
ATOM     28  H   UNL     1      45.137   2.768  13.247  0.00  0.00    +0.000 HD
ENDBRANCH   1  27
TORSDOF 7
ENDMDL
MODEL 3
REMARK VINA RESULT:    -7.319      2.037      2.966
REMARK INTER + INTRA:         -10.379
REMARK INTER:                 -10.216
REMARK INTRA:                  -0.163
REMARK UNBOUND:                -0.492
REMARK  Name = 
REMARK  7 active torsions:
REMARK  status: ('A' for Active; 'I' for Inactive)
REMARK    1  A    between atoms: C_2  and  O_3
REMARK    2  A    between atoms: C_2  and  C_4
REMARK    3  A    between atoms: C_7  and  C_8
REMARK    4  A    between atoms: C_8  and  C_9
REMARK    5  A    between atoms: C_9  and  O_10
REMARK    6  A    between atoms: C_9  and  C_11
REMARK    7  A    between atoms: C_15  and  C_16
REMARK                            x       y       z     vdW  Elec       q    Type
REMARK                         _______ _______ _______ _____ _____    ______ ____
ROOT
ATOM      1  C   UNL     1      43.445   5.267  10.936  0.00  0.00    +0.000 C 
ENDROOT
BRANCH   1   2
ATOM      2  C   UNL     1      44.267   6.486  11.312  0.00  0.00    +0.000 A 
ATOM      3  C   UNL     1      43.769   7.764  11.016  0.00  0.00    +0.000 A 
ATOM      4  C   UNL     1      44.444   8.910  11.433  0.00  0.00    +0.000 A 
ATOM      5  C   UNL     1      45.617   8.796  12.180  0.00  0.00    +0.000 A 
ATOM      6  C   UNL     1      46.127   7.538  12.538  0.00  0.00    +0.000 A 
ATOM      7  C   UNL     1      45.446   6.396  12.071  0.00  0.00    +0.000 A 
BRANCH   6   8
ATOM      8  C   UNL     1      47.276   7.389  13.446  0.00  0.00    +0.000 A 
ATOM      9  C   UNL     1      47.576   6.184  14.085  0.00  0.00    +0.000 A 
ATOM     10  N   UNL     1      48.684   5.992  14.842  0.00  0.00    +0.000 NA
ATOM     11  C   UNL     1      49.504   7.060  14.937  0.00  0.00    +0.000 A 
ATOM     12  C   UNL     1      49.221   8.264  14.318  0.00  0.00    +0.000 A 
ATOM     13  N   UNL     1      48.112   8.457  13.563  0.00  0.00    +0.000 NA
ENDBRANCH   6   8
ENDBRANCH   1   2
BRANCH   1  14
ATOM     14  C   UNL     1      44.170   3.920  11.023  0.00  0.00    +0.000 C 
ATOM     15  C   UNL     1      44.668   3.321  12.342  0.00  0.00    +0.000 C 
ATOM     16  C   UNL     1      43.405   2.804  11.734  0.00  0.00    +0.000 C 
BRANCH  14  20
ATOM     17  C   UNL     1      46.484   2.793   7.570  0.00  0.00    +0.000 A 
ATOM     18  C   UNL     1      46.251   4.143   7.811  0.00  0.00    +0.000 A 
ATOM     19  C   UNL     1      45.494   4.508   8.922  0.00  0.00    +0.000 A 
ATOM     20  C   UNL     1      44.957   3.531   9.767  0.00  0.00    +0.000 A 
ATOM     21  N   UNL     1      45.153   2.214   9.508  0.00  0.00    +0.000 NA
ATOM     22  C   UNL     1      45.901   1.871   8.424  0.00  0.00    +0.000 A 
BRANCH  17  24
ATOM     23  O   UNL     1      48.403   1.834   6.577  0.00  0.00    +0.000 OA
ATOM     24  C   UNL     1      47.289   2.306   6.436  0.00  0.00    +0.000 C 
BRANCH  24  25
ATOM     25  O   UNL     1      46.698   2.470   5.235  0.00  0.00    +0.000 OA
ATOM     26  H   UNL     1      47.093   1.968   4.498  0.00  0.00    +0.000 HD
ENDBRANCH  24  25
ENDBRANCH  17  24
ENDBRANCH  14  20
ENDBRANCH   1  14
BRANCH   1  27
ATOM     27  O   UNL     1      42.281   5.284  11.772  0.00  0.00    +0.000 OA
ATOM     28  H   UNL     1      42.408   4.594  12.441  0.00  0.00    +0.000 HD
ENDBRANCH   1  27
TORSDOF 7
ENDMDL
MODEL 4
REMARK VINA RESULT:    -7.203      3.251      4.998
REMARK INTER + INTRA:         -10.222
REMARK INTER:                  -8.720
REMARK INTRA:                  -1.502
REMARK UNBOUND:                -0.492
REMARK  Name = 
REMARK  7 active torsions:
REMARK  status: ('A' for Active; 'I' for Inactive)
REMARK    1  A    between atoms: C_2  and  O_3
REMARK    2  A    between atoms: C_2  and  C_4
REMARK    3  A    between atoms: C_7  and  C_8
REMARK    4  A    between atoms: C_8  and  C_9
REMARK    5  A    between atoms: C_9  and  O_10
REMARK    6  A    between atoms: C_9  and  C_11
REMARK    7  A    between atoms: C_15  and  C_16
REMARK                            x       y       z     vdW  Elec       q    Type
REMARK                         _______ _______ _______ _____ _____    ______ ____
ROOT
ATOM      1  C   UNL     1      48.250   9.089  14.013  0.00  0.00    +0.000 C 
ENDROOT
BRANCH   1   2
ATOM      2  C   UNL     1      49.076   8.185  14.910  0.00  0.00    +0.000 A 
ATOM      3  C   UNL     1      50.276   8.671  15.451  0.00  0.00    +0.000 A 
ATOM      4  C   UNL     1      51.013   7.911  16.357  0.00  0.00    +0.000 A 
ATOM      5  C   UNL     1      50.544   6.661  16.763  0.00  0.00    +0.000 A 
ATOM      6  C   UNL     1      49.325   6.155  16.284  0.00  0.00    +0.000 A 
ATOM      7  C   UNL     1      48.620   6.927  15.338  0.00  0.00    +0.000 A 
BRANCH   6   8
ATOM      8  C   UNL     1      48.736   4.911  16.804  0.00  0.00    +0.000 A 
ATOM      9  C   UNL     1      47.356   4.721  16.912  0.00  0.00    +0.000 A 
ATOM     10  N   UNL     1      46.787   3.550  17.288  0.00  0.00    +0.000 NA
ATOM     11  C   UNL     1      47.655   2.551  17.552  0.00  0.00    +0.000 A 
ATOM     12  C   UNL     1      49.025   2.721  17.458  0.00  0.00    +0.000 A 
ATOM     13  N   UNL     1      49.595   3.892  17.083  0.00  0.00    +0.000 NA
ENDBRANCH   6   8
ENDBRANCH   1   2
BRANCH   1  14
ATOM     14  C   UNL     1      48.195   8.692  12.534  0.00  0.00    +0.000 C 
ATOM     15  C   UNL     1      48.881   9.498  11.426  0.00  0.00    +0.000 C 
ATOM     16  C   UNL     1      49.522   8.242  11.923  0.00  0.00    +0.000 C 
BRANCH  14  20
ATOM     17  C   UNL     1      44.625   6.517  11.501  0.00  0.00    +0.000 A 
ATOM     18  C   UNL     1      45.817   5.817  11.654  0.00  0.00    +0.000 A 
ATOM     19  C   UNL     1      46.975   6.521  11.977  0.00  0.00    +0.000 A 
ATOM     20  C   UNL     1      46.942   7.912  12.123  0.00  0.00    +0.000 A 
ATOM     21  N   UNL     1      45.786   8.596  11.936  0.00  0.00    +0.000 NA
ATOM     22  C   UNL     1      44.660   7.897  11.628  0.00  0.00    +0.000 A 
BRANCH  17  24
ATOM     23  O   UNL     1      43.278   4.822  10.551  0.00  0.00    +0.000 OA
ATOM     24  C   UNL     1      43.344   5.863  11.180  0.00  0.00    +0.000 C 
BRANCH  24  25
ATOM     25  O   UNL     1      42.260   6.542  11.610  0.00  0.00    +0.000 OA
ATOM     26  H   UNL     1      42.326   6.918  12.507  0.00  0.00    +0.000 HD
ENDBRANCH  24  25
ENDBRANCH  17  24
ENDBRANCH  14  20
ENDBRANCH   1  14
BRANCH   1  27
ATOM     27  O   UNL     1      46.936   9.143  14.583  0.00  0.00    +0.000 OA
ATOM     28  H   UNL     1      47.044   9.045  15.542  0.00  0.00    +0.000 HD
ENDBRANCH   1  27
TORSDOF 7
ENDMDL
MODEL 5
REMARK VINA RESULT:    -7.092      3.017      7.709
REMARK INTER + INTRA:         -10.072
REMARK INTER:                  -9.908
REMARK INTRA:                  -0.164
REMARK UNBOUND:                -0.492
REMARK  Name = 
REMARK  7 active torsions:
REMARK  status: ('A' for Active; 'I' for Inactive)
REMARK    1  A    between atoms: C_2  and  O_3
REMARK    2  A    between atoms: C_2  and  C_4
REMARK    3  A    between atoms: C_7  and  C_8
REMARK    4  A    between atoms: C_8  and  C_9
REMARK    5  A    between atoms: C_9  and  O_10
REMARK    6  A    between atoms: C_9  and  C_11
REMARK    7  A    between atoms: C_15  and  C_16
REMARK                            x       y       z     vdW  Elec       q    Type
REMARK                         _______ _______ _______ _____ _____    ______ ____
ROOT
ATOM      1  C   UNL     1      45.643   7.220  12.626  0.00  0.00    +0.000 C 
ENDROOT
BRANCH   1   2
ATOM      2  C   UNL     1      44.951   6.020  12.007  0.00  0.00    +0.000 A 
ATOM      3  C   UNL     1      43.646   5.700  12.411  0.00  0.00    +0.000 A 
ATOM      4  C   UNL     1      42.939   4.667  11.797  0.00  0.00    +0.000 A 
ATOM      5  C   UNL     1      43.516   3.955  10.745  0.00  0.00    +0.000 A 
ATOM      6  C   UNL     1      44.801   4.273  10.276  0.00  0.00    +0.000 A 
ATOM      7  C   UNL     1      45.509   5.295  10.942  0.00  0.00    +0.000 A 
BRANCH   6   8
ATOM      8  C   UNL     1      45.375   3.640   9.078  0.00  0.00    +0.000 A 
ATOM      9  C   UNL     1      45.869   4.381   8.002  0.00  0.00    +0.000 A 
ATOM     10  N   UNL     1      46.496   3.828   6.934  0.00  0.00    +0.000 NA
ATOM     11  C   UNL     1      46.624   2.485   6.980  0.00  0.00    +0.000 A 
ATOM     12  C   UNL     1      46.135   1.732   8.033  0.00  0.00    +0.000 A 
ATOM     13  N   UNL     1      45.508   2.285   9.099  0.00  0.00    +0.000 NA
ENDBRANCH   6   8
ENDBRANCH   1   2
BRANCH   1  14
ATOM     14  C   UNL     1      47.123   7.032  12.975  0.00  0.00    +0.000 C 
ATOM     15  C   UNL     1      48.254   7.231  11.961  0.00  0.00    +0.000 C 
ATOM     16  C   UNL     1      47.970   8.304  12.963  0.00  0.00    +0.000 C 
BRANCH  14  20
ATOM     17  C   UNL     1      47.765   4.224  16.177  0.00  0.00    +0.000 A 
ATOM     18  C   UNL     1      48.358   5.479  16.256  0.00  0.00    +0.000 A 
ATOM     19  C   UNL     1      48.160   6.385  15.215  0.00  0.00    +0.000 A 
ATOM     20  C   UNL     1      47.395   6.027  14.099  0.00  0.00    +0.000 A 
ATOM     21  N   UNL     1      46.849   4.788  14.007  0.00  0.00    +0.000 NA
ATOM     22  C   UNL     1      47.044   3.916  15.033  0.00  0.00    +0.000 A 
BRANCH  17  24
ATOM     23  O   UNL     1      48.972   2.754  17.579  0.00  0.00    +0.000 OA
ATOM     24  C   UNL     1      47.896   3.205  17.233  0.00  0.00    +0.000 C 
BRANCH  24  25
ATOM     25  O   UNL     1      46.718   2.792  17.745  0.00  0.00    +0.000 OA
ATOM     26  H   UNL     1      45.924   3.226  17.381  0.00  0.00    +0.000 HD
ENDBRANCH  24  25
ENDBRANCH  17  24
ENDBRANCH  14  20
ENDBRANCH   1  14
BRANCH   1  27
ATOM     27  O   UNL     1      45.460   8.313  11.717  0.00  0.00    +0.000 OA
ATOM     28  H   UNL     1      46.031   8.138  10.953  0.00  0.00    +0.000 HD
ENDBRANCH   1  27
TORSDOF 7
ENDMDL
MODEL 6
REMARK VINA RESULT:    -6.848      3.559      8.063
REMARK INTER + INTRA:          -9.743
REMARK INTER:                  -8.349
REMARK INTRA:                  -1.394
REMARK UNBOUND:                -0.492
REMARK  Name = 
REMARK  7 active torsions:
REMARK  status: ('A' for Active; 'I' for Inactive)
REMARK    1  A    between atoms: C_2  and  O_3
REMARK    2  A    between atoms: C_2  and  C_4
REMARK    3  A    between atoms: C_7  and  C_8
REMARK    4  A    between atoms: C_8  and  C_9
REMARK    5  A    between atoms: C_9  and  O_10
REMARK    6  A    between atoms: C_9  and  C_11
REMARK    7  A    between atoms: C_15  and  C_16
REMARK                            x       y       z     vdW  Elec       q    Type
REMARK                         _______ _______ _______ _____ _____    ______ ____
ROOT
ATOM      1  C   UNL     1      49.356   7.820  12.863  0.00  0.00    +0.000 C 
ENDROOT
BRANCH   1   2
ATOM      2  C   UNL     1      47.839   7.853  12.828  0.00  0.00    +0.000 A 
ATOM      3  C   UNL     1      47.184   9.092  12.764  0.00  0.00    +0.000 A 
ATOM      4  C   UNL     1      45.798   9.163  12.629  0.00  0.00    +0.000 A 
ATOM      5  C   UNL     1      45.046   7.992  12.526  0.00  0.00    +0.000 A 
ATOM      6  C   UNL     1      45.665   6.732  12.538  0.00  0.00    +0.000 A 
ATOM      7  C   UNL     1      47.063   6.688  12.715  0.00  0.00    +0.000 A 
BRANCH   6   8
ATOM      8  C   UNL     1      44.916   5.490  12.284  0.00  0.00    +0.000 A 
ATOM      9  C   UNL     1      45.260   4.272  12.875  0.00  0.00    +0.000 A 
ATOM     10  N   UNL     1      44.527   3.140  12.740  0.00  0.00    +0.000 NA
ATOM     11  C   UNL     1      43.414   3.265  11.988  0.00  0.00    +0.000 A 
ATOM     12  C   UNL     1      43.059   4.461  11.388  0.00  0.00    +0.000 A 
ATOM     13  N   UNL     1      43.792   5.593  11.522  0.00  0.00    +0.000 NA
ENDBRANCH   6   8
ENDBRANCH   1   2
BRANCH   1  14
ATOM     14  C   UNL     1      50.003   8.263  14.180  0.00  0.00    +0.000 C 
ATOM     15  C   UNL     1      51.447   8.768  14.274  0.00  0.00    +0.000 C 
ATOM     16  C   UNL     1      50.323   9.754  14.288  0.00  0.00    +0.000 C 
BRANCH  14  20
ATOM     17  C   UNL     1      48.326   6.311  17.633  0.00  0.00    +0.000 A 
ATOM     18  C   UNL     1      48.379   7.701  17.607  0.00  0.00    +0.000 A 
ATOM     19  C   UNL     1      48.931   8.333  16.494  0.00  0.00    +0.000 A 
ATOM     20  C   UNL     1      49.445   7.581  15.433  0.00  0.00    +0.000 A 
ATOM     21  N   UNL     1      49.426   6.225  15.478  0.00  0.00    +0.000 NA
ATOM     22  C   UNL     1      48.877   5.620  16.566  0.00  0.00    +0.000 A 
BRANCH  17  24
ATOM     23  O   UNL     1      48.356   5.319  19.778  0.00  0.00    +0.000 OA
ATOM     24  C   UNL     1      47.743   5.550  18.751  0.00  0.00    +0.000 C 
BRANCH  24  25
ATOM     25  O   UNL     1      46.493   5.102  18.516  0.00  0.00    +0.000 OA
ATOM     26  H   UNL     1      45.796   5.471  19.090  0.00  0.00    +0.000 HD
ENDBRANCH  24  25
ENDBRANCH  17  24
ENDBRANCH  14  20
ENDBRANCH   1  14
BRANCH   1  27
ATOM     27  O   UNL     1      49.746   6.485  12.518  0.00  0.00    +0.000 OA
ATOM     28  H   UNL     1      50.667   6.531  12.220  0.00  0.00    +0.000 HD
ENDBRANCH   1  27
TORSDOF 7
ENDMDL
MODEL 7
REMARK VINA RESULT:    -6.767      4.440      7.328
REMARK INTER + INTRA:          -9.632
REMARK INTER:                  -9.149
REMARK INTRA:                  -0.483
REMARK UNBOUND:                -0.492
REMARK  Name = 
REMARK  7 active torsions:
REMARK  status: ('A' for Active; 'I' for Inactive)
REMARK    1  A    between atoms: C_2  and  O_3
REMARK    2  A    between atoms: C_2  and  C_4
REMARK    3  A    between atoms: C_7  and  C_8
REMARK    4  A    between atoms: C_8  and  C_9
REMARK    5  A    between atoms: C_9  and  O_10
REMARK    6  A    between atoms: C_9  and  C_11
REMARK    7  A    between atoms: C_15  and  C_16
REMARK                            x       y       z     vdW  Elec       q    Type
REMARK                         _______ _______ _______ _____ _____    ______ ____
ROOT
ATOM      1  C   UNL     1      46.456   8.405  13.316  0.00  0.00    +0.000 C 
ENDROOT
BRANCH   1   2
ATOM      2  C   UNL     1      46.111   9.605  12.453  0.00  0.00    +0.000 A 
ATOM      3  C   UNL     1      47.148  10.404  11.947  0.00  0.00    +0.000 A 
ATOM      4  C   UNL     1      46.881  11.454  11.071  0.00  0.00    +0.000 A 
ATOM      5  C   UNL     1      45.571  11.706  10.662  0.00  0.00    +0.000 A 
ATOM      6  C   UNL     1      44.508  10.903  11.106  0.00  0.00    +0.000 A 
ATOM      7  C   UNL     1      44.801   9.872  12.022  0.00  0.00    +0.000 A 
BRANCH   6   8
ATOM      8  C   UNL     1      43.142  11.052  10.578  0.00  0.00    +0.000 A 
ATOM      9  C   UNL     1      42.109  10.172  10.912  0.00  0.00    +0.000 A 
ATOM     10  N   UNL     1      40.821  10.345  10.524  0.00  0.00    +0.000 NA
ATOM     11  C   UNL     1      40.591  11.451   9.784  0.00  0.00    +0.000 A 
ATOM     12  C   UNL     1      41.601  12.330   9.438  0.00  0.00    +0.000 A 
ATOM     13  N   UNL     1      42.889  12.156   9.824  0.00  0.00    +0.000 NA
ENDBRANCH   6   8
ENDBRANCH   1   2
BRANCH   1  14
ATOM     14  C   UNL     1      47.177   7.256  12.604  0.00  0.00    +0.000 C 
ATOM     15  C   UNL     1      48.469   7.446  11.803  0.00  0.00    +0.000 C 
ATOM     16  C   UNL     1      48.539   6.873  13.182  0.00  0.00    +0.000 C 
BRANCH  14  20
ATOM     17  C   UNL     1      44.730   3.961  11.297  0.00  0.00    +0.000 A 
ATOM     18  C   UNL     1      44.756   5.123  10.533  0.00  0.00    +0.000 A 
ATOM     19  C   UNL     1      45.539   6.194  10.960  0.00  0.00    +0.000 A 
ATOM     20  C   UNL     1      46.268   6.108  12.151  0.00  0.00    +0.000 A 
ATOM     21  N   UNL     1      46.211   4.987  12.914  0.00  0.00    +0.000 NA
ATOM     22  C   UNL     1      45.449   3.947  12.482  0.00  0.00    +0.000 A 
BRANCH  17  24
ATOM     23  O   UNL     1      42.936   2.437  11.503  0.00  0.00    +0.000 OA
ATOM     24  C   UNL     1      43.952   2.768  10.920  0.00  0.00    +0.000 C 
BRANCH  24  25
ATOM     25  O   UNL     1      44.490   2.062   9.905  0.00  0.00    +0.000 OA
ATOM     26  H   UNL     1      44.967   1.251  10.161  0.00  0.00    +0.000 HD
ENDBRANCH  24  25
ENDBRANCH  17  24
ENDBRANCH  14  20
ENDBRANCH   1  14
BRANCH   1  27
ATOM     27  O   UNL     1      47.229   8.899  14.416  0.00  0.00    +0.000 OA
ATOM     28  H   UNL     1      47.120   8.265  15.141  0.00  0.00    +0.000 HD
ENDBRANCH   1  27
TORSDOF 7
ENDMDL
MODEL 8
REMARK VINA RESULT:    -6.660      3.764      5.368
REMARK INTER + INTRA:          -9.488
REMARK INTER:                  -8.350
REMARK INTRA:                  -1.138
REMARK UNBOUND:                -0.492
REMARK  Name = 
REMARK  7 active torsions:
REMARK  status: ('A' for Active; 'I' for Inactive)
REMARK    1  A    between atoms: C_2  and  O_3
REMARK    2  A    between atoms: C_2  and  C_4
REMARK    3  A    between atoms: C_7  and  C_8
REMARK    4  A    between atoms: C_8  and  C_9
REMARK    5  A    between atoms: C_9  and  O_10
REMARK    6  A    between atoms: C_9  and  C_11
REMARK    7  A    between atoms: C_15  and  C_16
REMARK                            x       y       z     vdW  Elec       q    Type
REMARK                         _______ _______ _______ _____ _____    ______ ____
ROOT
ATOM      1  C   UNL     1      48.678   8.470  14.407  0.00  0.00    +0.000 C 
ENDROOT
BRANCH   1   2
ATOM      2  C   UNL     1      49.458   7.620  15.392  0.00  0.00    +0.000 A 
ATOM      3  C   UNL     1      50.844   7.479  15.225  0.00  0.00    +0.000 A 
ATOM      4  C   UNL     1      51.612   6.790  16.162  0.00  0.00    +0.000 A 
ATOM      5  C   UNL     1      51.009   6.254  17.301  0.00  0.00    +0.000 A 
ATOM      6  C   UNL     1      49.633   6.412  17.532  0.00  0.00    +0.000 A 
ATOM      7  C   UNL     1      48.874   7.078  16.549  0.00  0.00    +0.000 A 
BRANCH   6   8
ATOM      8  C   UNL     1      48.998   5.988  18.791  0.00  0.00    +0.000 A 
ATOM      9  C   UNL     1      49.458   4.898  19.533  0.00  0.00    +0.000 A 
ATOM     10  N   UNL     1      48.958   4.550  20.745  0.00  0.00    +0.000 NA
ATOM     11  C   UNL     1      47.969   5.346  21.204  0.00  0.00    +0.000 A 
ATOM     12  C   UNL     1      47.494   6.425  20.480  0.00  0.00    +0.000 A 
ATOM     13  N   UNL     1      47.993   6.772  19.269  0.00  0.00    +0.000 NA
ENDBRANCH   6   8
ENDBRANCH   1   2
BRANCH   1  14
ATOM     14  C   UNL     1      48.371   7.815  13.056  0.00  0.00    +0.000 C 
ATOM     15  C   UNL     1      48.743   8.453  11.713  0.00  0.00    +0.000 C 
ATOM     16  C   UNL     1      49.589   7.348  12.258  0.00  0.00    +0.000 C 
BRANCH  14  20
ATOM     17  C   UNL     1      44.886   5.288  13.154  0.00  0.00    +0.000 A 
ATOM     18  C   UNL     1      46.138   4.712  13.341  0.00  0.00    +0.000 A 
ATOM     19  C   UNL     1      47.267   5.527  13.299  0.00  0.00    +0.000 A 
ATOM     20  C   UNL     1      47.144   6.898  13.049  0.00  0.00    +0.000 A 
ATOM     21  N   UNL     1      45.924   7.450  12.829  0.00  0.00    +0.000 NA
ATOM     22  C   UNL     1      44.829   6.645  12.881  0.00  0.00    +0.000 A 
BRANCH  17  24
ATOM     23  O   UNL     1      43.597   3.310  13.041  0.00  0.00    +0.000 OA
ATOM     24  C   UNL     1      43.631   4.516  13.202  0.00  0.00    +0.000 C 
BRANCH  24  25
ATOM     25  O   UNL     1      42.531   5.272  13.396  0.00  0.00    +0.000 OA
ATOM     26  H   UNL     1      42.076   5.143  14.249  0.00  0.00    +0.000 HD
ENDBRANCH  24  25
ENDBRANCH  17  24
ENDBRANCH  14  20
ENDBRANCH   1  14
BRANCH   1  27
ATOM     27  O   UNL     1      47.474   8.869  15.074  0.00  0.00    +0.000 OA
ATOM     28  H   UNL     1      46.780   8.256  14.787  0.00  0.00    +0.000 HD
ENDBRANCH   1  27
TORSDOF 7
ENDMDL
MODEL 9
REMARK VINA RESULT:    -6.650      2.364      3.782
REMARK INTER + INTRA:          -9.475
REMARK INTER:                  -8.786
REMARK INTRA:                  -0.690
REMARK UNBOUND:                -0.492
REMARK  Name = 
REMARK  7 active torsions:
REMARK  status: ('A' for Active; 'I' for Inactive)
REMARK    1  A    between atoms: C_2  and  O_3
REMARK    2  A    between atoms: C_2  and  C_4
REMARK    3  A    between atoms: C_7  and  C_8
REMARK    4  A    between atoms: C_8  and  C_9
REMARK    5  A    between atoms: C_9  and  O_10
REMARK    6  A    between atoms: C_9  and  C_11
REMARK    7  A    between atoms: C_15  and  C_16
REMARK                            x       y       z     vdW  Elec       q    Type
REMARK                         _______ _______ _______ _____ _____    ______ ____
ROOT
ATOM      1  C   UNL     1      48.014   7.685  12.337  0.00  0.00    +0.000 C 
ENDROOT
BRANCH   1   2
ATOM      2  C   UNL     1      48.612   7.480  13.716  0.00  0.00    +0.000 A 
ATOM      3  C   UNL     1      49.352   8.519  14.302  0.00  0.00    +0.000 A 
ATOM      4  C   UNL     1      49.833   8.408  15.605  0.00  0.00    +0.000 A 
ATOM      5  C   UNL     1      49.557   7.266  16.357  0.00  0.00    +0.000 A 
ATOM      6  C   UNL     1      48.782   6.222  15.828  0.00  0.00    +0.000 A 
ATOM      7  C   UNL     1      48.341   6.342  14.494  0.00  0.00    +0.000 A 
BRANCH   6   8
ATOM      8  C   UNL     1      48.352   5.075  16.644  0.00  0.00    +0.000 A 
ATOM      9  C   UNL     1      47.162   4.385  16.402  0.00  0.00    +0.000 A 
ATOM     10  N   UNL     1      46.794   3.265  17.071  0.00  0.00    +0.000 NA
ATOM     11  C   UNL     1      47.674   2.841  18.002  0.00  0.00    +0.000 A 
ATOM     12  C   UNL     1      48.855   3.513  18.262  0.00  0.00    +0.000 A 
ATOM     13  N   UNL     1      49.221   4.634  17.595  0.00  0.00    +0.000 NA
ENDBRANCH   6   8
ENDBRANCH   1   2
BRANCH   1  14
ATOM     14  C   UNL     1      46.486   7.787  12.281  0.00  0.00    +0.000 C 
ATOM     15  C   UNL     1      45.680   8.768  13.139  0.00  0.00    +0.000 C 
ATOM     16  C   UNL     1      45.933   9.089  11.701  0.00  0.00    +0.000 C 
BRANCH  14  20
ATOM     17  C   UNL     1      44.575   4.079  11.212  0.00  0.00    +0.000 A 
ATOM     18  C   UNL     1      45.057   4.901  10.200  0.00  0.00    +0.000 A 
ATOM     19  C   UNL     1      45.666   6.107  10.544  0.00  0.00    +0.000 A 
ATOM     20  C   UNL     1      45.768   6.492  11.885  0.00  0.00    +0.000 A 
ATOM     21  N   UNL     1      45.263   5.705  12.868  0.00  0.00    +0.000 NA
ATOM     22  C   UNL     1      44.678   4.528  12.519  0.00  0.00    +0.000 A 
BRANCH  17  24
ATOM     23  O   UNL     1      42.985   2.372  11.600  0.00  0.00    +0.000 OA
ATOM     24  C   UNL     1      43.935   2.777  10.954  0.00  0.00    +0.000 C 
BRANCH  24  25
ATOM     25  O   UNL     1      44.523   2.064   9.971  0.00  0.00    +0.000 OA
ATOM     26  H   UNL     1      44.654   1.116  10.158  0.00  0.00    +0.000 HD
ENDBRANCH  24  25
ENDBRANCH  17  24
ENDBRANCH  14  20
ENDBRANCH   1  14
BRANCH   1  27
ATOM     27  O   UNL     1      48.632   8.857  11.792  0.00  0.00    +0.000 OA
ATOM     28  H   UNL     1      48.923   8.628  10.896  0.00  0.00    +0.000 HD
ENDBRANCH   1  27
TORSDOF 7
ENDMDL
