MODEL 1
REMARK VINA RESULT:    -9.086      0.000      0.000
REMARK INTER + INTRA:         -13.163
REMARK INTER:                 -12.273
REMARK INTRA:                  -0.890
REMARK UNBOUND:                -0.890
REMARK  Name = 
REMARK  6 active torsions:
REMARK  status: ('A' for Active; 'I' for Inactive)
REMARK    1  A    between atoms: C_2  and  C_25
REMARK    2  A    between atoms: N_3  and  C_4
REMARK    3  A    between atoms: C_4  and  C_5
REMARK    4  A    between atoms: C_9  and  C_10
REMARK    5  A    between atoms: C_10  and  N_11
REMARK    6  A    between atoms: C_12  and  C_14
REMARK                            x       y       z     vdW  Elec       q    Type
REMARK                         _______ _______ _______ _____ _____    ______ ____
ROOT
ATOM      1  C   UNL     1      45.485   5.422  11.213  0.00  0.00    +0.000 A 
ATOM      2  C   UNL     1      46.248   6.593  11.137  0.00  0.00    +0.000 A 
ATOM      3  C   UNL     1      47.056   6.976  12.205  0.00  0.00    +0.000 A 
ATOM      4  C   UNL     1      47.079   6.216  13.377  0.00  0.00    +0.000 A 
ATOM      5  C   UNL     1      46.274   5.075  13.502  0.00  0.00    +0.000 A 
ATOM      6  C   UNL     1      45.508   4.666  12.398  0.00  0.00    +0.000 A 
ENDROOT
BRANCH   1   7
ATOM      7  C   UNL     1      44.589   5.026  10.065  0.00  0.00    +0.000 C 
BRANCH   7  10
ATOM      8  O   UNL     1      44.798   2.267   9.675  0.00  0.00    +0.000 OA
ATOM      9  C   UNL     1      45.379   3.020   8.905  0.00  0.00    +0.000 C 
ATOM     10  N   UNL     1      45.356   4.391   9.021  0.00  0.00    +0.000 N 
ATOM     11  H   UNL     1      45.670   4.963   8.249  0.00  0.00    +0.000 HD
BRANCH   9  12
ATOM     12  C   UNL     1      46.119   2.478   7.732  0.00  0.00    +0.000 A 
ATOM     13  C   UNL     1      46.236   3.275   6.587  0.00  0.00    +0.000 A 
ATOM     14  C   UNL     1      46.944   2.807   5.478  0.00  0.00    +0.000 A 
ATOM     15  C   UNL     1      47.523   1.539   5.505  0.00  0.00    +0.000 A 
ATOM     16  C   UNL     1      47.385   0.730   6.635  0.00  0.00    +0.000 A 
ATOM     17  C   UNL     1      46.681   1.196   7.748  0.00  0.00    +0.000 A 
ENDBRANCH   9  12
ENDBRANCH   7  10
ENDBRANCH   1   7
BRANCH   5  18
ATOM     18  C   UNL     1      46.215   4.317  14.806  0.00  0.00    +0.000 C 
BRANCH  18  19
ATOM     19  N   UNL     1      47.394   4.522  15.606  0.00  0.00    +0.000 N 
ATOM     20  C   UNL     1      47.522   3.953  16.850  0.00  0.00    +0.000 C 
ATOM     21  O   UNL     1      46.666   3.210  17.323  0.00  0.00    +0.000 OA
ATOM     22  H   UNL     1      47.959   5.333  15.379  0.00  0.00    +0.000 HD
BRANCH  20  23
ATOM     23  C   UNL     1      48.778   4.226  17.558  0.00  0.00    +0.000 A 
ATOM     24  C   UNL     1      48.915   5.379  18.319  0.00  0.00    +0.000 A 
ATOM     25  S   UNL     1      50.414   5.488  19.130  0.00  0.00    +0.000 S 
ATOM     26  C   UNL     1      50.955   4.029  18.440  0.00  0.00    +0.000 A 
ATOM     27  N   UNL     1      52.197   3.544  18.706  0.00  0.00    +0.000 NA
ATOM     28  C   UNL     1      52.485   2.447  18.090  0.00  0.00    +0.000 A 
ATOM     29  N   UNL     1      51.642   1.785  17.235  0.00  0.00    +0.000 N 
ATOM     30  C   UNL     1      50.369   2.222  16.960  0.00  0.00    +0.000 A 
ATOM     31  O   UNL     1      49.625   1.587  16.219  0.00  0.00    +0.000 OA
ATOM     32  C   UNL     1      49.999   3.458  17.621  0.00  0.00    +0.000 A 
ATOM     33  H   UNL     1      51.925   0.926  16.787  0.00  0.00    +0.000 HD
ENDBRANCH  20  23
ENDBRANCH  18  19
ENDBRANCH   5  18
TORSDOF 6
ENDMDL
MODEL 2
REMARK VINA RESULT:    -9.027      1.978      2.429
REMARK INTER + INTRA:         -13.083
REMARK INTER:                 -12.079
REMARK INTRA:                  -1.004
REMARK UNBOUND:                -0.890
REMARK  Name = 
REMARK  6 active torsions:
REMARK  status: ('A' for Active; 'I' for Inactive)
REMARK    1  A    between atoms: C_2  and  C_25
REMARK    2  A    between atoms: N_3  and  C_4
REMARK    3  A    between atoms: C_4  and  C_5
REMARK    4  A    between atoms: C_9  and  C_10
REMARK    5  A    between atoms: C_10  and  N_11
REMARK    6  A    between atoms: C_12  and  C_14
REMARK                            x       y       z     vdW  Elec       q    Type
REMARK                         _______ _______ _______ _____ _____    ______ ____
ROOT
ATOM      1  C   UNL     1      44.798   4.993  11.259  0.00  0.00    +0.000 A 
ATOM      2  C   UNL     1      45.012   6.353  11.512  0.00  0.00    +0.000 A 
ATOM      3  C   UNL     1      45.874   6.752  12.532  0.00  0.00    +0.000 A 
ATOM      4  C   UNL     1      46.497   5.796  13.338  0.00  0.00    +0.000 A 
ATOM      5  C   UNL     1      46.248   4.430  13.147  0.00  0.00    +0.000 A 
ATOM      6  C   UNL     1      45.424   4.038  12.079  0.00  0.00    +0.000 A 
ENDROOT
BRANCH   1   7
ATOM      7  C   UNL     1      43.841   4.566  10.173  0.00  0.00    +0.000 C 
BRANCH   7  10
ATOM      8  O   UNL     1      45.855   5.189   8.339  0.00  0.00    +0.000 OA
ATOM      9  C   UNL     1      45.474   4.030   8.428  0.00  0.00    +0.000 C 
ATOM     10  N   UNL     1      44.476   3.622   9.284  0.00  0.00    +0.000 N 
ATOM     11  H   UNL     1      44.348   2.637   9.469  0.00  0.00    +0.000 HD
BRANCH   9  12
ATOM     12  C   UNL     1      46.126   2.955   7.630  0.00  0.00    +0.000 A 
ATOM     13  C   UNL     1      46.567   3.254   6.336  0.00  0.00    +0.000 A 
ATOM     14  C   UNL     1      47.204   2.276   5.570  0.00  0.00    +0.000 A 
ATOM     15  C   UNL     1      47.388   0.995   6.090  0.00  0.00    +0.000 A 
ATOM     16  C   UNL     1      46.926   0.685   7.369  0.00  0.00    +0.000 A 
ATOM     17  C   UNL     1      46.292   1.662   8.141  0.00  0.00    +0.000 A 
ENDBRANCH   9  12
ENDBRANCH   7  10
ENDBRANCH   1   7
BRANCH   5  18
ATOM     18  C   UNL     1      46.835   3.404  14.086  0.00  0.00    +0.000 C 
BRANCH  18  19
ATOM     19  N   UNL     1      47.258   3.989  15.331  0.00  0.00    +0.000 N 
ATOM     20  C   UNL     1      48.151   3.347  16.156  0.00  0.00    +0.000 C 
ATOM     21  O   UNL     1      48.664   2.272  15.857  0.00  0.00    +0.000 OA
ATOM     22  H   UNL     1      46.654   4.701  15.725  0.00  0.00    +0.000 HD
BRANCH  20  23
ATOM     23  C   UNL     1      48.514   4.056  17.388  0.00  0.00    +0.000 A 
ATOM     24  C   UNL     1      48.292   3.466  18.625  0.00  0.00    +0.000 A 
ATOM     25  S   UNL     1      48.848   4.404  19.939  0.00  0.00    +0.000 S 
ATOM     26  C   UNL     1      49.348   5.658  18.902  0.00  0.00    +0.000 A 
ATOM     27  N   UNL     1      49.903   6.798  19.395  0.00  0.00    +0.000 NA
ATOM     28  C   UNL     1      50.205   7.676  18.498  0.00  0.00    +0.000 A 
ATOM     29  N   UNL     1      50.007   7.517  17.150  0.00  0.00    +0.000 N 
ATOM     30  C   UNL     1      49.477   6.372  16.606  0.00  0.00    +0.000 A 
ATOM     31  O   UNL     1      49.348   6.246  15.393  0.00  0.00    +0.000 OA
ATOM     32  C   UNL     1      49.113   5.356  17.574  0.00  0.00    +0.000 A 
ATOM     33  H   UNL     1      50.270   8.240  16.498  0.00  0.00    +0.000 HD
ENDBRANCH  20  23
ENDBRANCH  18  19
ENDBRANCH   5  18
TORSDOF 6
ENDMDL
MODEL 3
REMARK VINA RESULT:    -8.876      2.071      2.881
REMARK INTER + INTRA:         -12.879
REMARK INTER:                 -11.929
REMARK INTRA:                  -0.950
REMARK UNBOUND:                -0.890
REMARK  Name = 
REMARK  6 active torsions:
REMARK  status: ('A' for Active; 'I' for Inactive)
REMARK    1  A    between atoms: C_2  and  C_25
REMARK    2  A    between atoms: N_3  and  C_4
REMARK    3  A    between atoms: C_4  and  C_5
REMARK    4  A    between atoms: C_9  and  C_10
REMARK    5  A    between atoms: C_10  and  N_11
REMARK    6  A    between atoms: C_12  and  C_14
REMARK                            x       y       z     vdW  Elec       q    Type
REMARK                         _______ _______ _______ _____ _____    ______ ____
ROOT
ATOM      1  C   UNL     1      44.750   4.521  10.971  0.00  0.00    +0.000 A 
ATOM      2  C   UNL     1      44.855   3.354  11.736  0.00  0.00    +0.000 A 
ATOM      3  C   UNL     1      45.584   3.355  12.924  0.00  0.00    +0.000 A 
ATOM      4  C   UNL     1      46.250   4.511  13.338  0.00  0.00    +0.000 A 
ATOM      5  C   UNL     1      46.213   5.674  12.556  0.00  0.00    +0.000 A 
ATOM      6  C   UNL     1      45.428   5.678  11.392  0.00  0.00    +0.000 A 
ENDROOT
BRANCH   1   7
ATOM      7  C   UNL     1      43.984   4.508   9.670  0.00  0.00    +0.000 C 
BRANCH   7  10
ATOM      8  O   UNL     1      46.259   5.054   8.142  0.00  0.00    +0.000 OA
ATOM      9  C   UNL     1      45.728   3.956   8.043  0.00  0.00    +0.000 C 
ATOM     10  N   UNL     1      44.594   3.594   8.735  0.00  0.00    +0.000 N 
ATOM     11  H   UNL     1      44.324   2.621   8.777  0.00  0.00    +0.000 HD
BRANCH   9  12
ATOM     12  C   UNL     1      46.329   2.900   7.182  0.00  0.00    +0.000 A 
ATOM     13  C   UNL     1      46.606   1.651   7.748  0.00  0.00    +0.000 A 
ATOM     14  C   UNL     1      47.148   0.631   6.964  0.00  0.00    +0.000 A 
ATOM     15  C   UNL     1      47.427   0.861   5.617  0.00  0.00    +0.000 A 
ATOM     16  C   UNL     1      47.178   2.114   5.055  0.00  0.00    +0.000 A 
ATOM     17  C   UNL     1      46.632   3.136   5.835  0.00  0.00    +0.000 A 
ENDBRANCH   9  12
ENDBRANCH   7  10
ENDBRANCH   1   7
BRANCH   5  18
ATOM     18  C   UNL     1      47.021   6.887  12.948  0.00  0.00    +0.000 C 
BRANCH  18  19
ATOM     19  N   UNL     1      47.376   6.875  14.342  0.00  0.00    +0.000 N 
ATOM     20  C   UNL     1      48.690   6.887  14.745  0.00  0.00    +0.000 C 
ATOM     21  O   UNL     1      49.621   6.952  13.947  0.00  0.00    +0.000 OA
ATOM     22  H   UNL     1      46.671   6.536  14.986  0.00  0.00    +0.000 HD
BRANCH  20  23
ATOM     23  C   UNL     1      48.919   6.888  16.195  0.00  0.00    +0.000 A 
ATOM     24  C   UNL     1      49.323   8.051  16.837  0.00  0.00    +0.000 A 
ATOM     25  S   UNL     1      49.463   7.882  18.530  0.00  0.00    +0.000 S 
ATOM     26  C   UNL     1      49.049   6.233  18.455  0.00  0.00    +0.000 A 
ATOM     27  N   UNL     1      49.005   5.468  19.578  0.00  0.00    +0.000 NA
ATOM     28  C   UNL     1      48.710   4.229  19.369  0.00  0.00    +0.000 A 
ATOM     29  N   UNL     1      48.449   3.684  18.138  0.00  0.00    +0.000 N 
ATOM     30  C   UNL     1      48.453   4.425  16.981  0.00  0.00    +0.000 A 
ATOM     31  O   UNL     1      48.178   3.915  15.899  0.00  0.00    +0.000 OA
ATOM     32  C   UNL     1      48.789   5.823  17.161  0.00  0.00    +0.000 A 
ATOM     33  H   UNL     1      48.217   2.707  18.040  0.00  0.00    +0.000 HD
ENDBRANCH  20  23
ENDBRANCH  18  19
ENDBRANCH   5  18
TORSDOF 6
ENDMDL
MODEL 4
REMARK VINA RESULT:    -8.776      2.028      2.913
REMARK INTER + INTRA:         -12.744
REMARK INTER:                 -11.527
REMARK INTRA:                  -1.217
REMARK UNBOUND:                -0.890
REMARK  Name = 
REMARK  6 active torsions:
REMARK  status: ('A' for Active; 'I' for Inactive)
REMARK    1  A    between atoms: C_2  and  C_25
REMARK    2  A    between atoms: N_3  and  C_4
REMARK    3  A    between atoms: C_4  and  C_5
REMARK    4  A    between atoms: C_9  and  C_10
REMARK    5  A    between atoms: C_10  and  N_11
REMARK    6  A    between atoms: C_12  and  C_14
REMARK                            x       y       z     vdW  Elec       q    Type
REMARK                         _______ _______ _______ _____ _____    ______ ____
ROOT
ATOM      1  C   UNL     1      45.177   6.357  11.161  0.00  0.00    +0.000 A 
ATOM      2  C   UNL     1      44.438   7.515  11.427  0.00  0.00    +0.000 A 
ATOM      3  C   UNL     1      45.071   8.658  11.909  0.00  0.00    +0.000 A 
ATOM      4  C   UNL     1      46.443   8.643  12.172  0.00  0.00    +0.000 A 
ATOM      5  C   UNL     1      47.194   7.475  11.976  0.00  0.00    +0.000 A 
ATOM      6  C   UNL     1      46.556   6.348  11.434  0.00  0.00    +0.000 A 
ENDROOT
BRANCH   1   7
ATOM      7  C   UNL     1      44.483   5.111  10.666  0.00  0.00    +0.000 C 
BRANCH   7  10
ATOM      8  O   UNL     1      44.262   2.432   9.905  0.00  0.00    +0.000 OA
ATOM      9  C   UNL     1      45.063   3.149   9.322  0.00  0.00    +0.000 C 
ATOM     10  N   UNL     1      45.263   4.475   9.632  0.00  0.00    +0.000 N 
ATOM     11  H   UNL     1      45.773   5.067   8.991  0.00  0.00    +0.000 HD
BRANCH   9  12
ATOM     12  C   UNL     1      45.850   2.624   8.172  0.00  0.00    +0.000 A 
ATOM     13  C   UNL     1      46.100   3.473   7.087  0.00  0.00    +0.000 A 
ATOM     14  C   UNL     1      46.855   3.020   6.003  0.00  0.00    +0.000 A 
ATOM     15  C   UNL     1      47.349   1.716   5.995  0.00  0.00    +0.000 A 
ATOM     16  C   UNL     1      47.079   0.858   7.061  0.00  0.00    +0.000 A 
ATOM     17  C   UNL     1      46.328   1.308   8.150  0.00  0.00    +0.000 A 
ENDBRANCH   9  12
ENDBRANCH   7  10
ENDBRANCH   1   7
BRANCH   5  18
ATOM     18  C   UNL     1      48.652   7.427  12.363  0.00  0.00    +0.000 C 
BRANCH  18  19
ATOM     19  N   UNL     1      48.867   6.690  13.579  0.00  0.00    +0.000 N 
ATOM     20  C   UNL     1      48.851   7.312  14.805  0.00  0.00    +0.000 C 
ATOM     21  O   UNL     1      48.612   8.510  14.929  0.00  0.00    +0.000 OA
ATOM     22  H   UNL     1      49.339   5.798  13.490  0.00  0.00    +0.000 HD
BRANCH  20  23
ATOM     23  C   UNL     1      49.067   6.447  15.970  0.00  0.00    +0.000 A 
ATOM     24  C   UNL     1      50.069   6.743  16.884  0.00  0.00    +0.000 A 
ATOM     25  S   UNL     1      50.119   5.671  18.212  0.00  0.00    +0.000 S 
ATOM     26  C   UNL     1      48.844   4.738  17.578  0.00  0.00    +0.000 A 
ATOM     27  N   UNL     1      48.395   3.630  18.225  0.00  0.00    +0.000 NA
ATOM     28  C   UNL     1      47.447   3.002  17.613  0.00  0.00    +0.000 A 
ATOM     29  N   UNL     1      46.902   3.384  16.415  0.00  0.00    +0.000 N 
ATOM     30  C   UNL     1      47.304   4.512  15.741  0.00  0.00    +0.000 A 
ATOM     31  O   UNL     1      46.770   4.848  14.689  0.00  0.00    +0.000 OA
ATOM     32  C   UNL     1      48.375   5.249  16.383  0.00  0.00    +0.000 A 
ATOM     33  H   UNL     1      46.157   2.853  15.990  0.00  0.00    +0.000 HD
ENDBRANCH  20  23
ENDBRANCH  18  19
ENDBRANCH   5  18
TORSDOF 6
ENDMDL
MODEL 5
REMARK VINA RESULT:    -8.622      2.820      5.051
REMARK INTER + INTRA:         -12.536
REMARK INTER:                 -11.681
REMARK INTRA:                  -0.855
REMARK UNBOUND:                -0.890
REMARK  Name = 
REMARK  6 active torsions:
REMARK  status: ('A' for Active; 'I' for Inactive)
REMARK    1  A    between atoms: C_2  and  C_25
REMARK    2  A    between atoms: N_3  and  C_4
REMARK    3  A    between atoms: C_4  and  C_5
REMARK    4  A    between atoms: C_9  and  C_10
REMARK    5  A    between atoms: C_10  and  N_11
REMARK    6  A    between atoms: C_12  and  C_14
REMARK                            x       y       z     vdW  Elec       q    Type
REMARK                         _______ _______ _______ _____ _____    ______ ____
ROOT
ATOM      1  C   UNL     1      46.118   3.346   7.642  0.00  0.00    +0.000 A 
ATOM      2  C   UNL     1      45.584   2.110   8.023  0.00  0.00    +0.000 A 
ATOM      3  C   UNL     1      44.760   2.016   9.143  0.00  0.00    +0.000 A 
ATOM      4  C   UNL     1      44.496   3.147   9.918  0.00  0.00    +0.000 A 
ATOM      5  C   UNL     1      45.073   4.384   9.594  0.00  0.00    +0.000 A 
ATOM      6  C   UNL     1      45.853   4.478   8.431  0.00  0.00    +0.000 A 
ENDROOT
BRANCH   1   7
ATOM      7  C   UNL     1      47.034   3.439   6.446  0.00  0.00    +0.000 C 
BRANCH   7  10
ATOM      8  O   UNL     1      48.446   1.248   5.437  0.00  0.00    +0.000 OA
ATOM      9  C   UNL     1      47.341   1.503   4.977  0.00  0.00    +0.000 C 
ATOM     10  N   UNL     1      46.573   2.569   5.389  0.00  0.00    +0.000 N 
ATOM     11  H   UNL     1      45.597   2.610   5.134  0.00  0.00    +0.000 HD
BRANCH   9  12
ATOM     12  C   UNL     1      46.724   0.616   3.953  0.00  0.00    +0.000 A 
ATOM     13  C   UNL     1      47.046  -0.746   3.964  0.00  0.00    +0.000 A 
ATOM     14  C   UNL     1      46.468  -1.611   3.033  0.00  0.00    +0.000 A 
ATOM     15  C   UNL     1      45.578  -1.114   2.081  0.00  0.00    +0.000 A 
ATOM     16  C   UNL     1      45.274   0.248   2.049  0.00  0.00    +0.000 A 
ATOM     17  C   UNL     1      45.848   1.116   2.981  0.00  0.00    +0.000 A 
ENDBRANCH   9  12
ENDBRANCH   7  10
ENDBRANCH   1   7
BRANCH   5  18
ATOM     18  C   UNL     1      44.876   5.581  10.493  0.00  0.00    +0.000 C 
BRANCH  18  19
ATOM     19  N   UNL     1      45.869   5.647  11.532  0.00  0.00    +0.000 N 
ATOM     20  C   UNL     1      46.182   6.836  12.148  0.00  0.00    +0.000 C 
ATOM     21  O   UNL     1      45.606   7.886  11.877  0.00  0.00    +0.000 OA
ATOM     22  H   UNL     1      46.540   4.888  11.566  0.00  0.00    +0.000 HD
BRANCH  20  23
ATOM     23  C   UNL     1      47.200   6.767  13.202  0.00  0.00    +0.000 A 
ATOM     24  C   UNL     1      48.197   7.731  13.275  0.00  0.00    +0.000 A 
ATOM     25  S   UNL     1      49.242   7.532  14.611  0.00  0.00    +0.000 S 
ATOM     26  C   UNL     1      48.435   6.116  15.101  0.00  0.00    +0.000 A 
ATOM     27  N   UNL     1      48.847   5.414  16.191  0.00  0.00    +0.000 NA
ATOM     28  C   UNL     1      48.163   4.345  16.426  0.00  0.00    +0.000 A 
ATOM     29  N   UNL     1      47.101   3.913  15.674  0.00  0.00    +0.000 N 
ATOM     30  C   UNL     1      46.633   4.605  14.583  0.00  0.00    +0.000 A 
ATOM     31  O   UNL     1      45.656   4.212  13.953  0.00  0.00    +0.000 OA
ATOM     32  C   UNL     1      47.373   5.811  14.270  0.00  0.00    +0.000 A 
ATOM     33  H   UNL     1      46.603   3.070  15.914  0.00  0.00    +0.000 HD
ENDBRANCH  20  23
ENDBRANCH  18  19
ENDBRANCH   5  18
TORSDOF 6
ENDMDL
MODEL 6
REMARK VINA RESULT:    -8.278      2.534      3.372
REMARK INTER + INTRA:         -12.072
REMARK INTER:                 -11.287
REMARK INTRA:                  -0.784
REMARK UNBOUND:                -0.890
REMARK  Name = 
REMARK  6 active torsions:
REMARK  status: ('A' for Active; 'I' for Inactive)
REMARK    1  A    between atoms: C_2  and  C_25
REMARK    2  A    between atoms: N_3  and  C_4
REMARK    3  A    between atoms: C_4  and  C_5
REMARK    4  A    between atoms: C_9  and  C_10
REMARK    5  A    between atoms: C_10  and  N_11
REMARK    6  A    between atoms: C_12  and  C_14
REMARK                            x       y       z     vdW  Elec       q    Type
REMARK                         _______ _______ _______ _____ _____    ______ ____
ROOT
ATOM      1  C   UNL     1      44.561   4.153  11.703  0.00  0.00    +0.000 A 
ATOM      2  C   UNL     1      44.283   5.512  11.517  0.00  0.00    +0.000 A 
ATOM      3  C   UNL     1      44.953   6.476  12.268  0.00  0.00    +0.000 A 
ATOM      4  C   UNL     1      45.876   6.090  13.242  0.00  0.00    +0.000 A 
ATOM      5  C   UNL     1      46.124   4.733  13.493  0.00  0.00    +0.000 A 
ATOM      6  C   UNL     1      45.487   3.773  12.690  0.00  0.00    +0.000 A 
ENDROOT
BRANCH   1   7
ATOM      7  C   UNL     1      43.812   3.111  10.909  0.00  0.00    +0.000 C 
BRANCH   7  10
ATOM      8  O   UNL     1      44.325   4.238   8.403  0.00  0.00    +0.000 OA
ATOM      9  C   UNL     1      44.868   3.182   8.700  0.00  0.00    +0.000 C 
ATOM     10  N   UNL     1      44.667   2.535   9.899  0.00  0.00    +0.000 N 
ATOM     11  H   UNL     1      45.292   1.790  10.175  0.00  0.00    +0.000 HD
BRANCH   9  12
ATOM     12  C   UNL     1      45.848   2.548   7.775  0.00  0.00    +0.000 A 
ATOM     13  C   UNL     1      46.239   3.251   6.630  0.00  0.00    +0.000 A 
ATOM     14  C   UNL     1      47.174   2.696   5.753  0.00  0.00    +0.000 A 
ATOM     15  C   UNL     1      47.707   1.433   6.012  0.00  0.00    +0.000 A 
ATOM     16  C   UNL     1      47.299   0.718   7.138  0.00  0.00    +0.000 A 
ATOM     17  C   UNL     1      46.367   1.271   8.020  0.00  0.00    +0.000 A 
ENDBRANCH   9  12
ENDBRANCH   7  10
ENDBRANCH   1   7
BRANCH   5  18
ATOM     18  C   UNL     1      47.039   4.315  14.619  0.00  0.00    +0.000 C 
BRANCH  18  19
ATOM     19  N   UNL     1      47.577   5.446  15.328  0.00  0.00    +0.000 N 
ATOM     20  C   UNL     1      48.512   5.287  16.323  0.00  0.00    +0.000 C 
ATOM     21  O   UNL     1      48.965   4.188  16.627  0.00  0.00    +0.000 OA
ATOM     22  H   UNL     1      47.028   6.298  15.304  0.00  0.00    +0.000 HD
BRANCH  20  23
ATOM     23  C   UNL     1      48.993   6.520  16.957  0.00  0.00    +0.000 A 
ATOM     24  C   UNL     1      50.006   7.261  16.363  0.00  0.00    +0.000 A 
ATOM     25  S   UNL     1      50.379   8.701  17.202  0.00  0.00    +0.000 S 
ATOM     26  C   UNL     1      49.243   8.350  18.420  0.00  0.00    +0.000 A 
ATOM     27  N   UNL     1      49.070   9.184  19.480  0.00  0.00    +0.000 NA
ATOM     28  C   UNL     1      48.199   8.778  20.343  0.00  0.00    +0.000 A 
ATOM     29  N   UNL     1      47.481   7.614  20.240  0.00  0.00    +0.000 N 
ATOM     30  C   UNL     1      47.603   6.757  19.174  0.00  0.00    +0.000 A 
ATOM     31  O   UNL     1      46.918   5.742  19.093  0.00  0.00    +0.000 OA
ATOM     32  C   UNL     1      48.576   7.164  18.180  0.00  0.00    +0.000 A 
ATOM     33  H   UNL     1      46.810   7.354  20.947  0.00  0.00    +0.000 HD
ENDBRANCH  20  23
ENDBRANCH  18  19
ENDBRANCH   5  18
TORSDOF 6
ENDMDL
MODEL 7
REMARK VINA RESULT:    -8.244      2.524      3.664
REMARK INTER + INTRA:         -12.026
REMARK INTER:                 -10.936
REMARK INTRA:                  -1.090
REMARK UNBOUND:                -0.890
REMARK  Name = 
REMARK  6 active torsions:
REMARK  status: ('A' for Active; 'I' for Inactive)
REMARK    1  A    between atoms: C_2  and  C_25
REMARK    2  A    between atoms: N_3  and  C_4
REMARK    3  A    between atoms: C_4  and  C_5
REMARK    4  A    between atoms: C_9  and  C_10
REMARK    5  A    between atoms: C_10  and  N_11
REMARK    6  A    between atoms: C_12  and  C_14
REMARK                            x       y       z     vdW  Elec       q    Type
REMARK                         _______ _______ _______ _____ _____    ______ ____
ROOT
ATOM      1  C   UNL     1      44.944   8.072  11.598  0.00  0.00    +0.000 A 
ATOM      2  C   UNL     1      44.341   9.280  11.226  0.00  0.00    +0.000 A 
ATOM      3  C   UNL     1      45.041  10.480  11.341  0.00  0.00    +0.000 A 
ATOM      4  C   UNL     1      46.334  10.490  11.870  0.00  0.00    +0.000 A 
ATOM      5  C   UNL     1      46.934   9.302  12.310  0.00  0.00    +0.000 A 
ATOM      6  C   UNL     1      46.242   8.093  12.134  0.00  0.00    +0.000 A 
ENDROOT
BRANCH   1   7
ATOM      7  C   UNL     1      44.172   6.779  11.498  0.00  0.00    +0.000 C 
BRANCH   7  10
ATOM      8  O   UNL     1      43.364   4.151  11.000  0.00  0.00    +0.000 OA
ATOM      9  C   UNL     1      44.348   4.587  10.420  0.00  0.00    +0.000 C 
ATOM     10  N   UNL     1      44.841   5.859  10.610  0.00  0.00    +0.000 N 
ATOM     11  H   UNL     1      45.517   6.235   9.960  0.00  0.00    +0.000 HD
BRANCH   9  12
ATOM     12  C   UNL     1      45.058   3.760   9.406  0.00  0.00    +0.000 A 
ATOM     13  C   UNL     1      45.750   4.408   8.377  0.00  0.00    +0.000 A 
ATOM     14  C   UNL     1      46.445   3.663   7.422  0.00  0.00    +0.000 A 
ATOM     15  C   UNL     1      46.439   2.270   7.487  0.00  0.00    +0.000 A 
ATOM     16  C   UNL     1      45.729   1.618   8.496  0.00  0.00    +0.000 A 
ATOM     17  C   UNL     1      45.035   2.360   9.455  0.00  0.00    +0.000 A 
ENDBRANCH   9  12
ENDBRANCH   7  10
ENDBRANCH   1   7
BRANCH   5  18
ATOM     18  C   UNL     1      48.286   9.329  12.981  0.00  0.00    +0.000 C 
BRANCH  18  19
ATOM     19  N   UNL     1      48.293   8.595  14.218  0.00  0.00    +0.000 N 
ATOM     20  C   UNL     1      48.961   7.400  14.338  0.00  0.00    +0.000 C 
ATOM     21  O   UNL     1      49.619   6.922  13.418  0.00  0.00    +0.000 OA
ATOM     22  H   UNL     1      47.548   8.805  14.873  0.00  0.00    +0.000 HD
BRANCH  20  23
ATOM     23  C   UNL     1      48.904   6.759  15.656  0.00  0.00    +0.000 A 
ATOM     24  C   UNL     1      49.521   7.352  16.749  0.00  0.00    +0.000 A 
ATOM     25  S   UNL     1      49.283   6.504  18.212  0.00  0.00    +0.000 S 
ATOM     26  C   UNL     1      48.399   5.282  17.422  0.00  0.00    +0.000 A 
ATOM     27  N   UNL     1      47.911   4.214  18.108  0.00  0.00    +0.000 NA
ATOM     28  C   UNL     1      47.290   3.349  17.377  0.00  0.00    +0.000 A 
ATOM     29  N   UNL     1      47.108   3.457  16.022  0.00  0.00    +0.000 N 
ATOM     30  C   UNL     1      47.558   4.531  15.295  0.00  0.00    +0.000 A 
ATOM     31  O   UNL     1      47.346   4.616  14.089  0.00  0.00    +0.000 OA
ATOM     32  C   UNL     1      48.272   5.528  16.068  0.00  0.00    +0.000 A 
ATOM     33  H   UNL     1      46.607   2.749  15.508  0.00  0.00    +0.000 HD
ENDBRANCH  20  23
ENDBRANCH  18  19
ENDBRANCH   5  18
TORSDOF 6
ENDMDL
MODEL 8
REMARK VINA RESULT:    -8.168      4.511      5.821
REMARK INTER + INTRA:         -11.923
REMARK INTER:                 -11.027
REMARK INTRA:                  -0.896
REMARK UNBOUND:                -0.890
REMARK  Name = 
REMARK  6 active torsions:
REMARK  status: ('A' for Active; 'I' for Inactive)
REMARK    1  A    between atoms: C_2  and  C_25
REMARK    2  A    between atoms: N_3  and  C_4
REMARK    3  A    between atoms: C_4  and  C_5
REMARK    4  A    between atoms: C_9  and  C_10
REMARK    5  A    between atoms: C_10  and  N_11
REMARK    6  A    between atoms: C_12  and  C_14
REMARK                            x       y       z     vdW  Elec       q    Type
REMARK                         _______ _______ _______ _____ _____    ______ ____
ROOT
ATOM      1  C   UNL     1      45.766   3.486   8.225  0.00  0.00    +0.000 A 
ATOM      2  C   UNL     1      45.467   2.180   8.632  0.00  0.00    +0.000 A 
ATOM      3  C   UNL     1      44.568   1.957   9.673  0.00  0.00    +0.000 A 
ATOM      4  C   UNL     1      43.991   3.036  10.346  0.00  0.00    +0.000 A 
ATOM      5  C   UNL     1      44.325   4.354  10.000  0.00  0.00    +0.000 A 
ATOM      6  C   UNL     1      45.186   4.566   8.912  0.00  0.00    +0.000 A 
ENDROOT
BRANCH   1   7
ATOM      7  C   UNL     1      46.763   3.724   7.117  0.00  0.00    +0.000 C 
BRANCH   7  10
ATOM      8  O   UNL     1      48.306   1.553   6.271  0.00  0.00    +0.000 OA
ATOM      9  C   UNL     1      47.283   1.827   5.659  0.00  0.00    +0.000 C 
ATOM     10  N   UNL     1      46.465   2.886   5.981  0.00  0.00    +0.000 N 
ATOM     11  H   UNL     1      45.537   2.940   5.583  0.00  0.00    +0.000 HD
BRANCH   9  12
ATOM     12  C   UNL     1      46.825   0.971   4.530  0.00  0.00    +0.000 A 
ATOM     13  C   UNL     1      47.135  -0.394   4.555  0.00  0.00    +0.000 A 
ATOM     14  C   UNL     1      46.700  -1.230   3.524  0.00  0.00    +0.000 A 
ATOM     15  C   UNL     1      45.968  -0.702   2.461  0.00  0.00    +0.000 A 
ATOM     16  C   UNL     1      45.680   0.663   2.419  0.00  0.00    +0.000 A 
ATOM     17  C   UNL     1      46.109   1.502   3.450  0.00  0.00    +0.000 A 
ENDBRANCH   9  12
ENDBRANCH   7  10
ENDBRANCH   1   7
BRANCH   5  18
ATOM     18  C   UNL     1      43.786   5.516  10.798  0.00  0.00    +0.000 C 
BRANCH  18  19
ATOM     19  N   UNL     1      44.756   6.568  10.947  0.00  0.00    +0.000 N 
ATOM     20  C   UNL     1      45.302   6.870  12.171  0.00  0.00    +0.000 C 
ATOM     21  O   UNL     1      45.027   6.236  13.186  0.00  0.00    +0.000 OA
ATOM     22  H   UNL     1      44.777   7.270  10.216  0.00  0.00    +0.000 HD
BRANCH  20  23
ATOM     23  C   UNL     1      46.292   7.953  12.186  0.00  0.00    +0.000 A 
ATOM     24  C   UNL     1      45.913   9.250  11.867  0.00  0.00    +0.000 A 
ATOM     25  S   UNL     1      47.179  10.387  12.014  0.00  0.00    +0.000 S 
ATOM     26  C   UNL     1      48.291   9.174  12.449  0.00  0.00    +0.000 A 
ATOM     27  N   UNL     1      49.594   9.472  12.697  0.00  0.00    +0.000 NA
ATOM     28  C   UNL     1      50.330   8.450  12.983  0.00  0.00    +0.000 A 
ATOM     29  N   UNL     1      49.881   7.156  13.049  0.00  0.00    +0.000 N 
ATOM     30  C   UNL     1      48.568   6.813  12.835  0.00  0.00    +0.000 A 
ATOM     31  O   UNL     1      48.191   5.651  12.938  0.00  0.00    +0.000 OA
ATOM     32  C   UNL     1      47.701   7.925  12.500  0.00  0.00    +0.000 A 
ATOM     33  H   UNL     1      50.507   6.401  13.284  0.00  0.00    +0.000 HD
ENDBRANCH  20  23
ENDBRANCH  18  19
ENDBRANCH   5  18
TORSDOF 6
ENDMDL
MODEL 9
REMARK VINA RESULT:    -7.828      2.379      3.051
REMARK INTER + INTRA:         -11.464
REMARK INTER:                 -10.446
REMARK INTRA:                  -1.018
REMARK UNBOUND:                -0.890
REMARK  Name = 
REMARK  6 active torsions:
REMARK  status: ('A' for Active; 'I' for Inactive)
REMARK    1  A    between atoms: C_2  and  C_25
REMARK    2  A    between atoms: N_3  and  C_4
REMARK    3  A    between atoms: C_4  and  C_5
REMARK    4  A    between atoms: C_9  and  C_10
REMARK    5  A    between atoms: C_10  and  N_11
REMARK    6  A    between atoms: C_12  and  C_14
REMARK                            x       y       z     vdW  Elec       q    Type
REMARK                         _______ _______ _______ _____ _____    ______ ____
ROOT
ATOM      1  C   UNL     1      45.461   5.375  11.442  0.00  0.00    +0.000 A 
ATOM      2  C   UNL     1      45.244   4.510  12.521  0.00  0.00    +0.000 A 
ATOM      3  C   UNL     1      46.005   4.629  13.682  0.00  0.00    +0.000 A 
ATOM      4  C   UNL     1      47.019   5.586  13.762  0.00  0.00    +0.000 A 
ATOM      5  C   UNL     1      47.299   6.421  12.670  0.00  0.00    +0.000 A 
ATOM      6  C   UNL     1      46.487   6.331  11.528  0.00  0.00    +0.000 A 
ENDROOT
BRANCH   1   7
ATOM      7  C   UNL     1      44.655   5.223  10.175  0.00  0.00    +0.000 C 
BRANCH   7  10
ATOM      8  O   UNL     1      44.444   2.504   9.569  0.00  0.00    +0.000 OA
ATOM      9  C   UNL     1      45.230   3.193   8.933  0.00  0.00    +0.000 C 
ATOM     10  N   UNL     1      45.424   4.536   9.166  0.00  0.00    +0.000 N 
ATOM     11  H   UNL     1      45.919   5.095   8.485  0.00  0.00    +0.000 HD
BRANCH   9  12
ATOM     12  C   UNL     1      46.004   2.611   7.802  0.00  0.00    +0.000 A 
ATOM     13  C   UNL     1      46.503   1.310   7.931  0.00  0.00    +0.000 A 
ATOM     14  C   UNL     1      47.213   0.725   6.880  0.00  0.00    +0.000 A 
ATOM     15  C   UNL     1      47.437   1.444   5.706  0.00  0.00    +0.000 A 
ATOM     16  C   UNL     1      46.965   2.752   5.584  0.00  0.00    +0.000 A 
ATOM     17  C   UNL     1      46.251   3.339   6.631  0.00  0.00    +0.000 A 
ENDBRANCH   9  12
ENDBRANCH   7  10
ENDBRANCH   1   7
BRANCH   5  18
ATOM     18  C   UNL     1      48.465   7.380  12.717  0.00  0.00    +0.000 C 
BRANCH  18  19
ATOM     19  N   UNL     1      49.484   6.950  13.637  0.00  0.00    +0.000 N 
ATOM     20  C   UNL     1      49.933   7.772  14.643  0.00  0.00    +0.000 C 
ATOM     21  O   UNL     1      49.463   8.890  14.835  0.00  0.00    +0.000 OA
ATOM     22  H   UNL     1      50.073   6.182  13.334  0.00  0.00    +0.000 HD
BRANCH  20  23
ATOM     23  C   UNL     1      50.963   7.210  15.524  0.00  0.00    +0.000 A 
ATOM     24  C   UNL     1      52.289   7.597  15.386  0.00  0.00    +0.000 A 
ATOM     25  S   UNL     1      53.328   6.900  16.546  0.00  0.00    +0.000 S 
ATOM     26  C   UNL     1      52.052   6.007  17.233  0.00  0.00    +0.000 A 
ATOM     27  N   UNL     1      52.267   5.165  18.279  0.00  0.00    +0.000 NA
ATOM     28  C   UNL     1      51.216   4.530  18.677  0.00  0.00    +0.000 A 
ATOM     29  N   UNL     1      49.967   4.662  18.128  0.00  0.00    +0.000 N 
ATOM     30  C   UNL     1      49.698   5.522  17.090  0.00  0.00    +0.000 A 
ATOM     31  O   UNL     1      48.561   5.645  16.646  0.00  0.00    +0.000 OA
ATOM     32  C   UNL     1      50.849   6.254  16.600  0.00  0.00    +0.000 A 
ATOM     33  H   UNL     1      49.182   4.140  18.489  0.00  0.00    +0.000 HD
ENDBRANCH  20  23
ENDBRANCH  18  19
ENDBRANCH   5  18
TORSDOF 6
ENDMDL
