MODEL 1
REMARK VINA RESULT:    -7.610      0.000      0.000
REMARK INTER + INTRA:         -12.202
REMARK INTER:                 -11.391
REMARK INTRA:                  -0.810
REMARK UNBOUND:                -0.810
REMARK  Name = 
REMARK  9 active torsions:
REMARK  status: ('A' for Active; 'I' for Inactive)
REMARK    1  A    between atoms: N_1  and  C_2
REMARK    2  A    between atoms: C_2  and  C_3
REMARK    3  A    between atoms: C_2  and  C_10
REMARK    4  A    between atoms: C_3  and  C_4
REMARK    5  A    between atoms: C_10  and  C_11
REMARK    6  A    between atoms: C_14  and  C_15
REMARK    7  A    between atoms: C_15  and  N_16
REMARK    8  A    between atoms: N_16  and  C_17
REMARK    9  A    between atoms: C_17  and  C_18
REMARK                            x       y       z     vdW  Elec       q    Type
REMARK                         _______ _______ _______ _____ _____    ______ ____
ROOT
ATOM      1  C   UNL     1      45.459   5.361  11.559  0.00  0.00    +0.000 A 
ATOM      2  C   UNL     1      46.150   6.541  11.256  0.00  0.00    +0.000 A 
ATOM      3  C   UNL     1      47.155   7.012  12.101  0.00  0.00    +0.000 A 
ATOM      4  C   UNL     1      47.478   6.327  13.281  0.00  0.00    +0.000 A 
ATOM      5  C   UNL     1      46.762   5.166  13.600  0.00  0.00    +0.000 A 
ATOM      6  C   UNL     1      45.765   4.684  12.744  0.00  0.00    +0.000 A 
ENDROOT
BRANCH   1   7
ATOM      7  C   UNL     1      44.427   4.818  10.598  0.00  0.00    +0.000 C 
BRANCH   7   8
ATOM      8  C   UNL     1      44.808   3.458   9.961  0.00  0.00    +0.000 C 
BRANCH   8   9
ATOM      9  N   UNL     1      43.913   2.418  10.509  0.00  0.00    +0.000 NA
ATOM     10  H   UNL     1      44.152   1.519  10.089  0.00  0.00    +0.000 HD
ATOM     11  H   UNL     1      42.954   2.605  10.216  0.00  0.00    +0.000 HD
ENDBRANCH   8   9
BRANCH   8  12
ATOM     12  C   UNL     1      44.744   3.482   8.412  0.00  0.00    +0.000 C 
BRANCH  12  13
ATOM     13  C   UNL     1      45.889   2.777   7.720  0.00  0.00    +0.000 A 
ATOM     14  C   UNL     1      46.243   1.472   8.072  0.00  0.00    +0.000 A 
ATOM     15  C   UNL     1      47.284   0.857   7.391  0.00  0.00    +0.000 A 
ATOM     16  N   UNL     1      47.984   1.445   6.399  0.00  0.00    +0.000 NA
ATOM     17  C   UNL     1      47.622   2.702   6.066  0.00  0.00    +0.000 A 
ATOM     18  C   UNL     1      46.592   3.397   6.683  0.00  0.00    +0.000 A 
ENDBRANCH  12  13
ENDBRANCH   8  12
ENDBRANCH   7   8
ENDBRANCH   1   7
BRANCH   4  19
ATOM     19  C   UNL     1      48.600   6.815  14.167  0.00  0.00    +0.000 C 
BRANCH  19  20
ATOM     20  N   UNL     1      48.159   6.947  15.551  0.00  0.00    +0.000 NA
ATOM     21  H   UNL     1      47.270   6.454  15.664  0.00  0.00    +0.000 HD
BRANCH  20  22
ATOM     22  C   UNL     1      49.123   6.347  16.477  0.00  0.00    +0.000 C 
BRANCH  22  23
ATOM     23  C   UNL     1      48.672   4.970  16.901  0.00  0.00    +0.000 A 
ATOM     24  C   UNL     1      47.319   4.688  17.065  0.00  0.00    +0.000 A 
ATOM     25  N   UNL     1      46.855   3.456  17.382  0.00  0.00    +0.000 NA
ATOM     26  C   UNL     1      47.805   2.502  17.508  0.00  0.00    +0.000 A 
ATOM     27  C   UNL     1      49.152   2.768  17.338  0.00  0.00    +0.000 A 
ATOM     28  N   UNL     1      49.618   4.000  17.034  0.00  0.00    +0.000 NA
ENDBRANCH  22  23
ENDBRANCH  20  22
ENDBRANCH  19  20
ENDBRANCH   4  19
TORSDOF 9
ENDMDL
MODEL 2
REMARK VINA RESULT:    -7.201      1.569      2.062
REMARK INTER + INTRA:         -11.589
REMARK INTER:                 -10.450
REMARK INTRA:                  -1.139
REMARK UNBOUND:                -0.810
REMARK  Name = 
REMARK  9 active torsions:
REMARK  status: ('A' for Active; 'I' for Inactive)
REMARK    1  A    between atoms: N_1  and  C_2
REMARK    2  A    between atoms: C_2  and  C_3
REMARK    3  A    between atoms: C_2  and  C_10
REMARK    4  A    between atoms: C_3  and  C_4
REMARK    5  A    between atoms: C_10  and  C_11
REMARK    6  A    between atoms: C_14  and  C_15
REMARK    7  A    between atoms: C_15  and  N_16
REMARK    8  A    between atoms: N_16  and  C_17
REMARK    9  A    between atoms: C_17  and  C_18
REMARK                            x       y       z     vdW  Elec       q    Type
REMARK                         _______ _______ _______ _____ _____    ______ ____
ROOT
ATOM      1  C   UNL     1      44.954   5.031  12.949  0.00  0.00    +0.000 A 
ATOM      2  C   UNL     1      44.847   6.409  12.719  0.00  0.00    +0.000 A 
ATOM      3  C   UNL     1      45.950   7.245  12.889  0.00  0.00    +0.000 A 
ATOM      4  C   UNL     1      47.182   6.728  13.315  0.00  0.00    +0.000 A 
ATOM      5  C   UNL     1      47.278   5.355  13.579  0.00  0.00    +0.000 A 
ATOM      6  C   UNL     1      46.175   4.513  13.393  0.00  0.00    +0.000 A 
ENDROOT
BRANCH   1   7
ATOM      7  C   UNL     1      43.774   4.123  12.687  0.00  0.00    +0.000 C 
BRANCH   7   8
ATOM      8  C   UNL     1      43.977   3.148  11.501  0.00  0.00    +0.000 C 
BRANCH   8   9
ATOM      9  N   UNL     1      42.933   2.105  11.571  0.00  0.00    +0.000 NA
ATOM     10  H   UNL     1      43.246   1.286  11.046  0.00  0.00    +0.000 HD
ATOM     11  H   UNL     1      42.095   2.428  11.089  0.00  0.00    +0.000 HD
ENDBRANCH   8   9
BRANCH   8  12
ATOM     12  C   UNL     1      43.953   3.863  10.126  0.00  0.00    +0.000 C 
BRANCH  12  13
ATOM     13  C   UNL     1      45.008   3.390   9.149  0.00  0.00    +0.000 A 
ATOM     14  C   UNL     1      45.316   2.033   9.030  0.00  0.00    +0.000 A 
ATOM     15  C   UNL     1      46.271   1.645   8.101  0.00  0.00    +0.000 A 
ATOM     16  N   UNL     1      46.929   2.505   7.296  0.00  0.00    +0.000 NA
ATOM     17  C   UNL     1      46.610   3.812   7.418  0.00  0.00    +0.000 A 
ATOM     18  C   UNL     1      45.666   4.296   8.311  0.00  0.00    +0.000 A 
ENDBRANCH  12  13
ENDBRANCH   8  12
ENDBRANCH   7   8
ENDBRANCH   1   7
BRANCH   4  19
ATOM     19  C   UNL     1      48.385   7.629  13.450  0.00  0.00    +0.000 C 
BRANCH  19  20
ATOM     20  N   UNL     1      49.587   6.862  13.761  0.00  0.00    +0.000 NA
ATOM     21  H   UNL     1      50.247   6.953  12.985  0.00  0.00    +0.000 HD
BRANCH  20  22
ATOM     22  C   UNL     1      50.244   7.367  14.970  0.00  0.00    +0.000 C 
BRANCH  22  23
ATOM     23  C   UNL     1      49.590   6.801  16.208  0.00  0.00    +0.000 A 
ATOM     24  C   UNL     1      48.976   7.643  17.131  0.00  0.00    +0.000 A 
ATOM     25  N   UNL     1      48.322   7.185  18.226  0.00  0.00    +0.000 NA
ATOM     26  C   UNL     1      48.286   5.840  18.350  0.00  0.00    +0.000 A 
ATOM     27  C   UNL     1      48.885   4.993  17.433  0.00  0.00    +0.000 A 
ATOM     28  N   UNL     1      49.550   5.448  16.348  0.00  0.00    +0.000 NA
ENDBRANCH  22  23
ENDBRANCH  20  22
ENDBRANCH  19  20
ENDBRANCH   4  19
TORSDOF 9
ENDMDL
MODEL 3
REMARK VINA RESULT:    -7.089      1.485      2.351
REMARK INTER + INTRA:         -11.422
REMARK INTER:                 -10.651
REMARK INTRA:                  -0.772
REMARK UNBOUND:                -0.810
REMARK  Name = 
REMARK  9 active torsions:
REMARK  status: ('A' for Active; 'I' for Inactive)
REMARK    1  A    between atoms: N_1  and  C_2
REMARK    2  A    between atoms: C_2  and  C_3
REMARK    3  A    between atoms: C_2  and  C_10
REMARK    4  A    between atoms: C_3  and  C_4
REMARK    5  A    between atoms: C_10  and  C_11
REMARK    6  A    between atoms: C_14  and  C_15
REMARK    7  A    between atoms: C_15  and  N_16
REMARK    8  A    between atoms: N_16  and  C_17
REMARK    9  A    between atoms: C_17  and  C_18
REMARK                            x       y       z     vdW  Elec       q    Type
REMARK                         _______ _______ _______ _____ _____    ______ ____
ROOT
ATOM      1  C   UNL     1      46.051   5.532  11.641  0.00  0.00    +0.000 A 
ATOM      2  C   UNL     1      46.871   6.435  12.330  0.00  0.00    +0.000 A 
ATOM      3  C   UNL     1      47.325   6.142  13.616  0.00  0.00    +0.000 A 
ATOM      4  C   UNL     1      46.952   4.950  14.253  0.00  0.00    +0.000 A 
ATOM      5  C   UNL     1      46.104   4.064  13.576  0.00  0.00    +0.000 A 
ATOM      6  C   UNL     1      45.661   4.350  12.280  0.00  0.00    +0.000 A 
ENDROOT
BRANCH   1   7
ATOM      7  C   UNL     1      45.628   5.823  10.220  0.00  0.00    +0.000 C 
BRANCH   7   8
ATOM      8  C   UNL     1      45.159   4.576   9.430  0.00  0.00    +0.000 C 
BRANCH   8   9
ATOM      9  N   UNL     1      43.686   4.615   9.327  0.00  0.00    +0.000 NA
ATOM     10  H   UNL     1      43.320   5.246  10.042  0.00  0.00    +0.000 HD
ATOM     11  H   UNL     1      43.304   3.697   9.557  0.00  0.00    +0.000 HD
ENDBRANCH   8   9
BRANCH   8  12
ATOM     12  C   UNL     1      45.810   4.476   8.027  0.00  0.00    +0.000 C 
BRANCH  12  13
ATOM     13  C   UNL     1      46.298   3.093   7.653  0.00  0.00    +0.000 A 
ATOM     14  C   UNL     1      47.203   2.913   6.603  0.00  0.00    +0.000 A 
ATOM     15  C   UNL     1      47.642   1.629   6.315  0.00  0.00    +0.000 A 
ATOM     16  N   UNL     1      47.246   0.530   6.990  0.00  0.00    +0.000 NA
ATOM     17  C   UNL     1      46.379   0.724   8.007  0.00  0.00    +0.000 A 
ATOM     18  C   UNL     1      45.889   1.968   8.375  0.00  0.00    +0.000 A 
ENDBRANCH  12  13
ENDBRANCH   8  12
ENDBRANCH   7   8
ENDBRANCH   1   7
BRANCH   4  19
ATOM     19  C   UNL     1      47.487   4.616  15.625  0.00  0.00    +0.000 C 
BRANCH  19  20
ATOM     20  N   UNL     1      47.754   3.187  15.754  0.00  0.00    +0.000 NA
ATOM     21  H   UNL     1      48.610   2.963  15.241  0.00  0.00    +0.000 HD
BRANCH  20  22
ATOM     22  C   UNL     1      47.958   2.806  17.154  0.00  0.00    +0.000 C 
BRANCH  22  23
ATOM     23  C   UNL     1      49.237   3.405  17.689  0.00  0.00    +0.000 A 
ATOM     24  C   UNL     1      49.214   4.249  18.796  0.00  0.00    +0.000 A 
ATOM     25  N   UNL     1      50.336   4.763  19.354  0.00  0.00    +0.000 NA
ATOM     26  C   UNL     1      51.493   4.379  18.771  0.00  0.00    +0.000 A 
ATOM     27  C   UNL     1      51.528   3.533  17.677  0.00  0.00    +0.000 A 
ATOM     28  N   UNL     1      50.410   3.029  17.109  0.00  0.00    +0.000 NA
ENDBRANCH  22  23
ENDBRANCH  20  22
ENDBRANCH  19  20
ENDBRANCH   4  19
TORSDOF 9
ENDMDL
MODEL 4
REMARK VINA RESULT:    -6.817      1.752      2.667
REMARK INTER + INTRA:         -11.015
REMARK INTER:                  -9.878
REMARK INTRA:                  -1.137
REMARK UNBOUND:                -0.810
REMARK  Name = 
REMARK  9 active torsions:
REMARK  status: ('A' for Active; 'I' for Inactive)
REMARK    1  A    between atoms: N_1  and  C_2
REMARK    2  A    between atoms: C_2  and  C_3
REMARK    3  A    between atoms: C_2  and  C_10
REMARK    4  A    between atoms: C_3  and  C_4
REMARK    5  A    between atoms: C_10  and  C_11
REMARK    6  A    between atoms: C_14  and  C_15
REMARK    7  A    between atoms: C_15  and  N_16
REMARK    8  A    between atoms: N_16  and  C_17
REMARK    9  A    between atoms: C_17  and  C_18
REMARK                            x       y       z     vdW  Elec       q    Type
REMARK                         _______ _______ _______ _____ _____    ______ ____
ROOT
ATOM      1  C   UNL     1      45.869   7.105  12.372  0.00  0.00    +0.000 A 
ATOM      2  C   UNL     1      46.892   6.152  12.284  0.00  0.00    +0.000 A 
ATOM      3  C   UNL     1      48.122   6.373  12.903  0.00  0.00    +0.000 A 
ATOM      4  C   UNL     1      48.368   7.561  13.605  0.00  0.00    +0.000 A 
ATOM      5  C   UNL     1      47.356   8.528  13.663  0.00  0.00    +0.000 A 
ATOM      6  C   UNL     1      46.116   8.301  13.055  0.00  0.00    +0.000 A 
ENDROOT
BRANCH   1   7
ATOM      7  C   UNL     1      44.514   6.824  11.764  0.00  0.00    +0.000 C 
BRANCH   7   8
ATOM      8  C   UNL     1      43.958   5.413  12.082  0.00  0.00    +0.000 C 
BRANCH   8   9
ATOM      9  N   UNL     1      43.056   5.518  13.247  0.00  0.00    +0.000 NA
ATOM     10  H   UNL     1      43.317   6.339  13.795  0.00  0.00    +0.000 HD
ATOM     11  H   UNL     1      43.206   4.722  13.866  0.00  0.00    +0.000 HD
ENDBRANCH   8   9
BRANCH   8  12
ATOM     12  C   UNL     1      43.230   4.770  10.873  0.00  0.00    +0.000 C 
BRANCH  12  13
ATOM     13  C   UNL     1      44.127   3.996   9.932  0.00  0.00    +0.000 A 
ATOM     14  C   UNL     1      44.893   4.658   8.968  0.00  0.00    +0.000 A 
ATOM     15  C   UNL     1      45.720   3.908   8.145  0.00  0.00    +0.000 A 
ATOM     16  N   UNL     1      45.834   2.565   8.216  0.00  0.00    +0.000 NA
ATOM     17  C   UNL     1      45.095   1.944   9.160  0.00  0.00    +0.000 A 
ATOM     18  C   UNL     1      44.244   2.607  10.033  0.00  0.00    +0.000 A 
ENDBRANCH  12  13
ENDBRANCH   8  12
ENDBRANCH   7   8
ENDBRANCH   1   7
BRANCH   4  19
ATOM     19  C   UNL     1      49.684   7.773  14.315  0.00  0.00    +0.000 C 
BRANCH  19  20
ATOM     20  N   UNL     1      50.025   6.624  15.147  0.00  0.00    +0.000 NA
ATOM     21  H   UNL     1      51.038   6.608  15.289  0.00  0.00    +0.000 HD
BRANCH  20  22
ATOM     22  C   UNL     1      49.390   6.712  16.465  0.00  0.00    +0.000 C 
BRANCH  22  23
ATOM     23  C   UNL     1      48.831   5.372  16.878  0.00  0.00    +0.000 A 
ATOM     24  C   UNL     1      48.995   4.908  18.180  0.00  0.00    +0.000 A 
ATOM     25  N   UNL     1      48.463   3.743  18.621  0.00  0.00    +0.000 NA
ATOM     26  C   UNL     1      47.732   3.066  17.707  0.00  0.00    +0.000 A 
ATOM     27  C   UNL     1      47.554   3.522  16.413  0.00  0.00    +0.000 A 
ATOM     28  N   UNL     1      48.096   4.677  15.967  0.00  0.00    +0.000 NA
ENDBRANCH  22  23
ENDBRANCH  20  22
ENDBRANCH  19  20
ENDBRANCH   4  19
TORSDOF 9
ENDMDL
MODEL 5
REMARK VINA RESULT:    -6.783      2.544      5.282
REMARK INTER + INTRA:         -10.964
REMARK INTER:                 -11.263
REMARK INTRA:                   0.298
REMARK UNBOUND:                -0.810
REMARK  Name = 
REMARK  9 active torsions:
REMARK  status: ('A' for Active; 'I' for Inactive)
REMARK    1  A    between atoms: N_1  and  C_2
REMARK    2  A    between atoms: C_2  and  C_3
REMARK    3  A    between atoms: C_2  and  C_10
REMARK    4  A    between atoms: C_3  and  C_4
REMARK    5  A    between atoms: C_10  and  C_11
REMARK    6  A    between atoms: C_14  and  C_15
REMARK    7  A    between atoms: C_15  and  N_16
REMARK    8  A    between atoms: N_16  and  C_17
REMARK    9  A    between atoms: C_17  and  C_18
REMARK                            x       y       z     vdW  Elec       q    Type
REMARK                         _______ _______ _______ _____ _____    ______ ____
ROOT
ATOM      1  C   UNL     1      45.957   2.307   7.976  0.00  0.00    +0.000 A 
ATOM      2  C   UNL     1      45.941   3.702   7.843  0.00  0.00    +0.000 A 
ATOM      3  C   UNL     1      45.126   4.483   8.663  0.00  0.00    +0.000 A 
ATOM      4  C   UNL     1      44.293   3.888   9.620  0.00  0.00    +0.000 A 
ATOM      5  C   UNL     1      44.284   2.491   9.728  0.00  0.00    +0.000 A 
ATOM      6  C   UNL     1      45.113   1.707   8.917  0.00  0.00    +0.000 A 
ENDROOT
BRANCH   1   7
ATOM      7  C   UNL     1      46.899   1.475   7.137  0.00  0.00    +0.000 C 
BRANCH   7   8
ATOM      8  C   UNL     1      47.507   2.231   5.929  0.00  0.00    +0.000 C 
BRANCH   8   9
ATOM      9  N   UNL     1      48.783   1.582   5.565  0.00  0.00    +0.000 NA
ATOM     10  H   UNL     1      48.792   1.409   4.559  0.00  0.00    +0.000 HD
ATOM     11  H   UNL     1      48.831   0.659   5.997  0.00  0.00    +0.000 HD
ENDBRANCH   8   9
BRANCH   8  12
ATOM     12  C   UNL     1      46.547   2.286   4.712  0.00  0.00    +0.000 C 
BRANCH  12  13
ATOM     13  C   UNL     1      46.418   0.986   3.949  0.00  0.00    +0.000 A 
ATOM     14  C   UNL     1      46.988  -0.192   4.440  0.00  0.00    +0.000 A 
ATOM     15  C   UNL     1      46.820  -1.364   3.718  0.00  0.00    +0.000 A 
ATOM     16  N   UNL     1      46.134  -1.442   2.558  0.00  0.00    +0.000 NA
ATOM     17  C   UNL     1      45.583  -0.296   2.104  0.00  0.00    +0.000 A 
ATOM     18  C   UNL     1      45.690   0.923   2.757  0.00  0.00    +0.000 A 
ENDBRANCH  12  13
ENDBRANCH   8  12
ENDBRANCH   7   8
ENDBRANCH   1   7
BRANCH   4  19
ATOM     19  C   UNL     1      43.450   4.741  10.539  0.00  0.00    +0.000 C 
BRANCH  19  20
ATOM     20  N   UNL     1      43.012   3.985  11.707  0.00  0.00    +0.000 NA
ATOM     21  H   UNL     1      43.536   3.108  11.749  0.00  0.00    +0.000 HD
BRANCH  20  22
ATOM     22  C   UNL     1      43.272   4.721  12.947  0.00  0.00    +0.000 C 
BRANCH  22  23
ATOM     23  C   UNL     1      44.750   4.984  13.112  0.00  0.00    +0.000 A 
ATOM     24  C   UNL     1      45.258   6.273  12.986  0.00  0.00    +0.000 A 
ATOM     25  N   UNL     1      46.564   6.574  13.185  0.00  0.00    +0.000 NA
ATOM     26  C   UNL     1      47.344   5.530  13.541  0.00  0.00    +0.000 A 
ATOM     27  C   UNL     1      46.848   4.245  13.679  0.00  0.00    +0.000 A 
ATOM     28  N   UNL     1      45.548   3.940  13.468  0.00  0.00    +0.000 NA
ENDBRANCH  22  23
ENDBRANCH  20  22
ENDBRANCH  19  20
ENDBRANCH   4  19
TORSDOF 9
ENDMDL
MODEL 6
REMARK VINA RESULT:    -6.571      3.789      7.352
REMARK INTER + INTRA:         -10.646
REMARK INTER:                  -9.808
REMARK INTRA:                  -0.839
REMARK UNBOUND:                -0.810
REMARK  Name = 
REMARK  9 active torsions:
REMARK  status: ('A' for Active; 'I' for Inactive)
REMARK    1  A    between atoms: N_1  and  C_2
REMARK    2  A    between atoms: C_2  and  C_3
REMARK    3  A    between atoms: C_2  and  C_10
REMARK    4  A    between atoms: C_3  and  C_4
REMARK    5  A    between atoms: C_10  and  C_11
REMARK    6  A    between atoms: C_14  and  C_15
REMARK    7  A    between atoms: C_15  and  N_16
REMARK    8  A    between atoms: N_16  and  C_17
REMARK    9  A    between atoms: C_17  and  C_18
REMARK                            x       y       z     vdW  Elec       q    Type
REMARK                         _______ _______ _______ _____ _____    ______ ____
ROOT
ATOM      1  C   UNL     1      47.217   1.460   5.312  0.00  0.00    +0.000 A 
ATOM      2  C   UNL     1      47.093   0.700   6.482  0.00  0.00    +0.000 A 
ATOM      3  C   UNL     1      46.602   1.277   7.654  0.00  0.00    +0.000 A 
ATOM      4  C   UNL     1      46.244   2.632   7.689  0.00  0.00    +0.000 A 
ATOM      5  C   UNL     1      46.402   3.399   6.527  0.00  0.00    +0.000 A 
ATOM      6  C   UNL     1      46.880   2.817   5.347  0.00  0.00    +0.000 A 
ENDROOT
BRANCH   1   7
ATOM      7  C   UNL     1      47.676   0.807   4.028  0.00  0.00    +0.000 C 
BRANCH   7   8
ATOM      8  C   UNL     1      46.577  -0.009   3.304  0.00  0.00    +0.000 C 
BRANCH   8   9
ATOM      9  N   UNL     1      45.754   0.922   2.505  0.00  0.00    +0.000 NA
ATOM     10  H   UNL     1      46.156   1.858   2.569  0.00  0.00    +0.000 HD
ATOM     11  H   UNL     1      44.826   1.000   2.921  0.00  0.00    +0.000 HD
ENDBRANCH   8   9
BRANCH   8  12
ATOM     12  C   UNL     1      47.157  -1.138   2.414  0.00  0.00    +0.000 C 
BRANCH  12  13
ATOM     13  C   UNL     1      47.254  -2.489   3.088  0.00  0.00    +0.000 A 
ATOM     14  C   UNL     1      46.510  -2.771   4.237  0.00  0.00    +0.000 A 
ATOM     15  C   UNL     1      46.612  -4.032   4.804  0.00  0.00    +0.000 A 
ATOM     16  N   UNL     1      47.394  -5.017   4.313  0.00  0.00    +0.000 NA
ATOM     17  C   UNL     1      48.098  -4.730   3.197  0.00  0.00    +0.000 A 
ATOM     18  C   UNL     1      48.057  -3.502   2.554  0.00  0.00    +0.000 A 
ENDBRANCH  12  13
ENDBRANCH   8  12
ENDBRANCH   7   8
ENDBRANCH   1   7
BRANCH   4  19
ATOM     19  C   UNL     1      45.667   3.239   8.946  0.00  0.00    +0.000 C 
BRANCH  19  20
ATOM     20  N   UNL     1      45.293   4.633   8.734  0.00  0.00    +0.000 NA
ATOM     21  H   UNL     1      44.283   4.685   8.582  0.00  0.00    +0.000 HD
BRANCH  20  22
ATOM     22  C   UNL     1      45.612   5.455   9.905  0.00  0.00    +0.000 C 
BRANCH  22  23
ATOM     23  C   UNL     1      44.672   5.146  11.046  0.00  0.00    +0.000 A 
ATOM     24  C   UNL     1      45.158   4.628  12.243  0.00  0.00    +0.000 A 
ATOM     25  N   UNL     1      44.370   4.391  13.319  0.00  0.00    +0.000 NA
ATOM     26  C   UNL     1      43.068   4.717  13.157  0.00  0.00    +0.000 A 
ATOM     27  C   UNL     1      42.575   5.241  11.975  0.00  0.00    +0.000 A 
ATOM     28  N   UNL     1      43.357   5.466  10.895  0.00  0.00    +0.000 NA
ENDBRANCH  22  23
ENDBRANCH  20  22
ENDBRANCH  19  20
ENDBRANCH   4  19
TORSDOF 9
ENDMDL
MODEL 7
REMARK VINA RESULT:    -6.440      1.541      8.327
REMARK INTER + INTRA:         -10.450
REMARK INTER:                  -9.314
REMARK INTRA:                  -1.137
REMARK UNBOUND:                -0.810
REMARK  Name = 
REMARK  9 active torsions:
REMARK  status: ('A' for Active; 'I' for Inactive)
REMARK    1  A    between atoms: N_1  and  C_2
REMARK    2  A    between atoms: C_2  and  C_3
REMARK    3  A    between atoms: C_2  and  C_10
REMARK    4  A    between atoms: C_3  and  C_4
REMARK    5  A    between atoms: C_10  and  C_11
REMARK    6  A    between atoms: C_14  and  C_15
REMARK    7  A    between atoms: C_15  and  N_16
REMARK    8  A    between atoms: N_16  and  C_17
REMARK    9  A    between atoms: C_17  and  C_18
REMARK                            x       y       z     vdW  Elec       q    Type
REMARK                         _______ _______ _______ _____ _____    ______ ____
ROOT
ATOM      1  C   UNL     1      47.553   7.252  13.323  0.00  0.00    +0.000 A 
ATOM      2  C   UNL     1      46.459   8.079  13.038  0.00  0.00    +0.000 A 
ATOM      3  C   UNL     1      45.264   7.536  12.565  0.00  0.00    +0.000 A 
ATOM      4  C   UNL     1      45.141   6.158  12.345  0.00  0.00    +0.000 A 
ATOM      5  C   UNL     1      46.248   5.336  12.597  0.00  0.00    +0.000 A 
ATOM      6  C   UNL     1      47.442   5.878  13.087  0.00  0.00    +0.000 A 
ENDROOT
BRANCH   1   7
ATOM      7  C   UNL     1      48.817   7.840  13.908  0.00  0.00    +0.000 C 
BRANCH   7   8
ATOM      8  C   UNL     1      49.526   6.922  14.935  0.00  0.00    +0.000 C 
BRANCH   8   9
ATOM      9  N   UNL     1      50.948   7.318  15.011  0.00  0.00    +0.000 NA
ATOM     10  H   UNL     1      51.484   6.551  15.421  0.00  0.00    +0.000 HD
ATOM     11  H   UNL     1      51.050   8.095  15.663  0.00  0.00    +0.000 HD
ENDBRANCH   8   9
BRANCH   8  12
ATOM     12  C   UNL     1      48.863   6.965  16.336  0.00  0.00    +0.000 C 
BRANCH  12  13
ATOM     13  C   UNL     1      48.662   5.611  16.982  0.00  0.00    +0.000 A 
ATOM     14  C   UNL     1      47.709   4.717  16.488  0.00  0.00    +0.000 A 
ATOM     15  C   UNL     1      47.580   3.478  17.098  0.00  0.00    +0.000 A 
ATOM     16  N   UNL     1      48.323   3.076  18.150  0.00  0.00    +0.000 NA
ATOM     17  C   UNL     1      49.245   3.950  18.607  0.00  0.00    +0.000 A 
ATOM     18  C   UNL     1      49.454   5.207  18.061  0.00  0.00    +0.000 A 
ENDBRANCH  12  13
ENDBRANCH   8  12
ENDBRANCH   7   8
ENDBRANCH   1   7
BRANCH   4  19
ATOM     19  C   UNL     1      43.830   5.570  11.880  0.00  0.00    +0.000 C 
BRANCH  19  20
ATOM     20  N   UNL     1      43.882   5.217  10.466  0.00  0.00    +0.000 NA
ATOM     21  H   UNL     1      44.733   5.610  10.057  0.00  0.00    +0.000 HD
BRANCH  20  22
ATOM     22  C   UNL     1      43.926   3.764  10.280  0.00  0.00    +0.000 C 
BRANCH  22  23
ATOM     23  C   UNL     1      44.907   3.394   9.193  0.00  0.00    +0.000 A 
ATOM     24  C   UNL     1      45.497   4.380   8.407  0.00  0.00    +0.000 A 
ATOM     25  N   UNL     1      46.428   4.110   7.461  0.00  0.00    +0.000 NA
ATOM     26  C   UNL     1      46.766   2.807   7.347  0.00  0.00    +0.000 A 
ATOM     27  C   UNL     1      46.194   1.819   8.129  0.00  0.00    +0.000 A 
ATOM     28  N   UNL     1      45.254   2.084   9.064  0.00  0.00    +0.000 NA
ENDBRANCH  22  23
ENDBRANCH  20  22
ENDBRANCH  19  20
ENDBRANCH   4  19
TORSDOF 9
ENDMDL
MODEL 8
REMARK VINA RESULT:    -6.429      3.601      6.919
REMARK INTER + INTRA:         -10.434
REMARK INTER:                  -9.708
REMARK INTRA:                  -0.726
REMARK UNBOUND:                -0.810
REMARK  Name = 
REMARK  9 active torsions:
REMARK  status: ('A' for Active; 'I' for Inactive)
REMARK    1  A    between atoms: N_1  and  C_2
REMARK    2  A    between atoms: C_2  and  C_3
REMARK    3  A    between atoms: C_2  and  C_10
REMARK    4  A    between atoms: C_3  and  C_4
REMARK    5  A    between atoms: C_10  and  C_11
REMARK    6  A    between atoms: C_14  and  C_15
REMARK    7  A    between atoms: C_15  and  N_16
REMARK    8  A    between atoms: N_16  and  C_17
REMARK    9  A    between atoms: C_17  and  C_18
REMARK                            x       y       z     vdW  Elec       q    Type
REMARK                         _______ _______ _______ _____ _____    ______ ____
ROOT
ATOM      1  C   UNL     1      47.158   1.555   5.555  0.00  0.00    +0.000 A 
ATOM      2  C   UNL     1      47.023   0.818   6.738  0.00  0.00    +0.000 A 
ATOM      3  C   UNL     1      46.484   1.406   7.882  0.00  0.00    +0.000 A 
ATOM      4  C   UNL     1      46.088   2.751   7.878  0.00  0.00    +0.000 A 
ATOM      5  C   UNL     1      46.257   3.496   6.703  0.00  0.00    +0.000 A 
ATOM      6  C   UNL     1      46.783   2.903   5.550  0.00  0.00    +0.000 A 
ENDROOT
BRANCH   1   7
ATOM      7  C   UNL     1      47.671   0.888   4.299  0.00  0.00    +0.000 C 
BRANCH   7   8
ATOM      8  C   UNL     1      46.615   0.025   3.564  0.00  0.00    +0.000 C 
BRANCH   8   9
ATOM      9  N   UNL     1      45.711   0.926   2.820  0.00  0.00    +0.000 NA
ATOM     10  H   UNL     1      44.749   0.607   2.944  0.00  0.00    +0.000 HD
ATOM     11  H   UNL     1      45.895   0.844   1.821  0.00  0.00    +0.000 HD
ENDBRANCH   8   9
BRANCH   8  12
ATOM     12  C   UNL     1      47.253  -1.024   2.617  0.00  0.00    +0.000 C 
BRANCH  12  13
ATOM     13  C   UNL     1      47.281  -2.436   3.163  0.00  0.00    +0.000 A 
ATOM     14  C   UNL     1      48.081  -3.416   2.572  0.00  0.00    +0.000 A 
ATOM     15  C   UNL     1      48.093  -4.688   3.124  0.00  0.00    +0.000 A 
ATOM     16  N   UNL     1      47.373  -5.044   4.208  0.00  0.00    +0.000 NA
ATOM     17  C   UNL     1      46.613  -4.081   4.772  0.00  0.00    +0.000 A 
ATOM     18  C   UNL     1      46.539  -2.780   4.297  0.00  0.00    +0.000 A 
ENDBRANCH  12  13
ENDBRANCH   8  12
ENDBRANCH   7   8
ENDBRANCH   1   7
BRANCH   4  19
ATOM     19  C   UNL     1      45.460   3.369   9.104  0.00  0.00    +0.000 C 
BRANCH  19  20
ATOM     20  N   UNL     1      44.980   2.343  10.024  0.00  0.00    +0.000 NA
ATOM     21  H   UNL     1      45.784   1.870  10.441  0.00  0.00    +0.000 HD
BRANCH  20  22
ATOM     22  C   UNL     1      44.191   2.929  11.112  0.00  0.00    +0.000 C 
BRANCH  22  23
ATOM     23  C   UNL     1      45.070   3.745  12.028  0.00  0.00    +0.000 A 
ATOM     24  C   UNL     1      44.946   5.131  12.079  0.00  0.00    +0.000 A 
ATOM     25  N   UNL     1      45.665   5.905  12.926  0.00  0.00    +0.000 NA
ATOM     26  C   UNL     1      46.503   5.232  13.745  0.00  0.00    +0.000 A 
ATOM     27  C   UNL     1      46.628   3.854  13.711  0.00  0.00    +0.000 A 
ATOM     28  N   UNL     1      45.922   3.080  12.856  0.00  0.00    +0.000 NA
ENDBRANCH  22  23
ENDBRANCH  20  22
ENDBRANCH  19  20
ENDBRANCH   4  19
TORSDOF 9
ENDMDL
MODEL 9
REMARK VINA RESULT:    -6.376      1.468      2.152
REMARK INTER + INTRA:         -10.355
REMARK INTER:                  -9.522
REMARK INTRA:                  -0.833
REMARK UNBOUND:                -0.810
REMARK  Name = 
REMARK  9 active torsions:
REMARK  status: ('A' for Active; 'I' for Inactive)
REMARK    1  A    between atoms: N_1  and  C_2
REMARK    2  A    between atoms: C_2  and  C_3
REMARK    3  A    between atoms: C_2  and  C_10
REMARK    4  A    between atoms: C_3  and  C_4
REMARK    5  A    between atoms: C_10  and  C_11
REMARK    6  A    between atoms: C_14  and  C_15
REMARK    7  A    between atoms: C_15  and  N_16
REMARK    8  A    between atoms: N_16  and  C_17
REMARK    9  A    between atoms: C_17  and  C_18
REMARK                            x       y       z     vdW  Elec       q    Type
REMARK                         _______ _______ _______ _____ _____    ______ ____
ROOT
ATOM      1  C   UNL     1      44.899   5.767  11.212  0.00  0.00    +0.000 A 
ATOM      2  C   UNL     1      46.235   5.898  10.811  0.00  0.00    +0.000 A 
ATOM      3  C   UNL     1      47.082   6.802  11.452  0.00  0.00    +0.000 A 
ATOM      4  C   UNL     1      46.609   7.612  12.495  0.00  0.00    +0.000 A 
ATOM      5  C   UNL     1      45.264   7.503  12.871  0.00  0.00    +0.000 A 
ATOM      6  C   UNL     1      44.417   6.586  12.238  0.00  0.00    +0.000 A 
ENDROOT
BRANCH   1   7
ATOM      7  C   UNL     1      44.010   4.731  10.563  0.00  0.00    +0.000 C 
BRANCH   7   8
ATOM      8  C   UNL     1      44.552   3.283  10.657  0.00  0.00    +0.000 C 
BRANCH   8   9
ATOM      9  N   UNL     1      43.919   2.621  11.816  0.00  0.00    +0.000 NA
ATOM     10  H   UNL     1      43.238   1.939  11.478  0.00  0.00    +0.000 HD
ATOM     11  H   UNL     1      43.375   3.304  12.343  0.00  0.00    +0.000 HD
ENDBRANCH   8   9
BRANCH   8  12
ATOM     12  C   UNL     1      44.317   2.469   9.358  0.00  0.00    +0.000 C 
BRANCH  12  13
ATOM     13  C   UNL     1      45.498   2.429   8.413  0.00  0.00    +0.000 A 
ATOM     14  C   UNL     1      45.950   3.591   7.784  0.00  0.00    +0.000 A 
ATOM     15  C   UNL     1      47.053   3.509   6.946  0.00  0.00    +0.000 A 
ATOM     16  N   UNL     1      47.725   2.365   6.698  0.00  0.00    +0.000 NA
ATOM     17  C   UNL     1      47.279   1.255   7.323  0.00  0.00    +0.000 A 
ATOM     18  C   UNL     1      46.191   1.237   8.182  0.00  0.00    +0.000 A 
ENDBRANCH  12  13
ENDBRANCH   8  12
ENDBRANCH   7   8
ENDBRANCH   1   7
BRANCH   4  19
ATOM     19  C   UNL     1      47.543   8.552  13.218  0.00  0.00    +0.000 C 
BRANCH  19  20
ATOM     20  N   UNL     1      47.773   8.115  14.590  0.00  0.00    +0.000 NA
ATOM     21  H   UNL     1      46.871   8.000  15.057  0.00  0.00    +0.000 HD
BRANCH  20  22
ATOM     22  C   UNL     1      48.465   6.823  14.630  0.00  0.00    +0.000 C 
BRANCH  22  23
ATOM     23  C   UNL     1      48.884   6.485  16.041  0.00  0.00    +0.000 A 
ATOM     24  C   UNL     1      48.449   5.310  16.646  0.00  0.00    +0.000 A 
ATOM     25  N   UNL     1      48.843   4.928  17.884  0.00  0.00    +0.000 NA
ATOM     26  C   UNL     1      49.716   5.763  18.490  0.00  0.00    +0.000 A 
ATOM     27  C   UNL     1      50.163   6.929  17.894  0.00  0.00    +0.000 A 
ATOM     28  N   UNL     1      49.760   7.320  16.664  0.00  0.00    +0.000 NA
ENDBRANCH  22  23
ENDBRANCH  20  22
ENDBRANCH  19  20
ENDBRANCH   4  19
TORSDOF 9
ENDMDL
