MODEL 1
REMARK VINA RESULT:    -8.457      0.000      0.000
REMARK INTER + INTRA:         -13.028
REMARK INTER:                 -11.917
REMARK INTRA:                  -1.111
REMARK UNBOUND:                -1.111
REMARK  Name = 
REMARK  8 active torsions:
REMARK  status: ('A' for Active; 'I' for Inactive)
REMARK    1  A    between atoms: C_1  and  O_2
REMARK    2  A    between atoms: O_2  and  C_3
REMARK    3  A    between atoms: C_6  and  C_7
REMARK    4  A    between atoms: C_11  and  C_12
REMARK    5  A    between atoms: C_12  and  C_13
REMARK    6  A    between atoms: C_13  and  N_14
REMARK    7  A    between atoms: N_14  and  C_15
REMARK    8  A    between atoms: C_18  and  C_19
REMARK                            x       y       z     vdW  Elec       q    Type
REMARK                         _______ _______ _______ _____ _____    ______ ____
ROOT
ATOM      1  C   UNL     1      43.491   5.545  12.016  0.00  0.00    +0.000 C 
ENDROOT
BRANCH   1   6
ATOM      2  C   UNL     1      46.957   5.610  13.700  0.00  0.00    +0.000 A 
ATOM      3  C   UNL     1      47.670   6.373  12.766  0.00  0.00    +0.000 A 
ATOM      4  C   UNL     1      47.043   6.887  11.630  0.00  0.00    +0.000 A 
ATOM      5  C   UNL     1      45.692   6.631  11.396  0.00  0.00    +0.000 A 
ATOM      6  C   UNL     1      44.946   5.873  12.305  0.00  0.00    +0.000 A 
ATOM      7  C   UNL     1      45.595   5.397  13.456  0.00  0.00    +0.000 A 
BRANCH   2  11
ATOM      8  C   UNL     1      48.715   4.009  17.122  0.00  0.00    +0.000 A 
ATOM      9  C   UNL     1      47.824   3.270  16.362  0.00  0.00    +0.000 A 
ATOM     10  N   UNL     1      47.241   3.765  15.242  0.00  0.00    +0.000 NA
ATOM     11  C   UNL     1      47.586   5.040  14.897  0.00  0.00    +0.000 A 
ATOM     12  C   UNL     1      48.485   5.758  15.675  0.00  0.00    +0.000 A 
ATOM     13  N   UNL     1      49.070   5.269  16.783  0.00  0.00    +0.000 NA
BRANCH   8  15
ATOM     14  C   UNL     1      48.786   4.171  19.434  0.00  0.00    +0.000 C 
ATOM     15  O   UNL     1      49.232   3.464  18.275  0.00  0.00    +0.000 OA
ENDBRANCH   8  15
ENDBRANCH   2  11
ENDBRANCH   1   6
BRANCH   1  16
ATOM     16  C   UNL     1      43.273   4.879  10.651  0.00  0.00    +0.000 C 
BRANCH  16  17
ATOM     17  N   UNL     1      43.872   3.558  10.552  0.00  0.00    +0.000 N 
ATOM     18  H   UNL     1      44.034   3.069  11.428  0.00  0.00    +0.000 HD
BRANCH  17  19
ATOM     19  C   UNL     1      44.815   3.312   9.551  0.00  0.00    +0.000 A 
ATOM     20  C   UNL     1      45.298   4.291   8.670  0.00  0.00    +0.000 A 
ATOM     21  C   UNL     1      46.150   3.963   7.604  0.00  0.00    +0.000 A 
ATOM     22  C   UNL     1      46.519   2.636   7.381  0.00  0.00    +0.000 A 
ATOM     23  C   UNL     1      46.032   1.658   8.243  0.00  0.00    +0.000 A 
ATOM     24  F   UNL     1      46.337   0.362   8.068  0.00  0.00    +0.000 F 
ATOM     25  C   UNL     1      45.193   1.986   9.313  0.00  0.00    +0.000 A 
BRANCH  22  26
ATOM     26  C   UNL     1      47.394   2.332   6.220  0.00  0.00    +0.000 C 
ATOM     27  N   UNL     1      48.744   2.491   6.366  0.00  0.00    +0.000 N 
ATOM     28  O   UNL     1      46.930   1.947   5.148  0.00  0.00    +0.000 OA
ATOM     29  H   UNL     1      49.170   2.786   7.236  0.00  0.00    +0.000 HD
ATOM     30  H   UNL     1      49.337   2.269   5.582  0.00  0.00    +0.000 HD
ENDBRANCH  22  26
ENDBRANCH  17  19
ENDBRANCH  16  17
ENDBRANCH   1  16
TORSDOF 7
ENDMDL
MODEL 2
REMARK VINA RESULT:    -7.599      3.680      5.433
REMARK INTER + INTRA:         -11.820
REMARK INTER:                 -10.904
REMARK INTRA:                  -0.916
REMARK UNBOUND:                -1.111
REMARK  Name = 
REMARK  8 active torsions:
REMARK  status: ('A' for Active; 'I' for Inactive)
REMARK    1  A    between atoms: C_1  and  O_2
REMARK    2  A    between atoms: O_2  and  C_3
REMARK    3  A    between atoms: C_6  and  C_7
REMARK    4  A    between atoms: C_11  and  C_12
REMARK    5  A    between atoms: C_12  and  C_13
REMARK    6  A    between atoms: C_13  and  N_14
REMARK    7  A    between atoms: N_14  and  C_15
REMARK    8  A    between atoms: C_18  and  C_19
REMARK                            x       y       z     vdW  Elec       q    Type
REMARK                         _______ _______ _______ _____ _____    ______ ____
ROOT
ATOM      1  C   UNL     1      45.555   3.651  12.203  0.00  0.00    +0.000 C 
ENDROOT
BRANCH   1   6
ATOM      2  C   UNL     1      45.803   7.490  12.430  0.00  0.00    +0.000 A 
ATOM      3  C   UNL     1      46.930   7.614  13.254  0.00  0.00    +0.000 A 
ATOM      4  C   UNL     1      47.620   6.488  13.703  0.00  0.00    +0.000 A 
ATOM      5  C   UNL     1      47.184   5.210  13.352  0.00  0.00    +0.000 A 
ATOM      6  C   UNL     1      46.062   5.044  12.532  0.00  0.00    +0.000 A 
ATOM      7  C   UNL     1      45.408   6.196  12.067  0.00  0.00    +0.000 A 
BRANCH   2  11
ATOM      8  C   UNL     1      43.671  10.790  11.042  0.00  0.00    +0.000 A 
ATOM      9  C   UNL     1      43.312   9.502  10.681  0.00  0.00    +0.000 A 
ATOM     10  N   UNL     1      43.986   8.410  11.122  0.00  0.00    +0.000 NA
ATOM     11  C   UNL     1      45.043   8.650  11.952  0.00  0.00    +0.000 A 
ATOM     12  C   UNL     1      45.380   9.952  12.301  0.00  0.00    +0.000 A 
ATOM     13  N   UNL     1      44.711  11.036  11.871  0.00  0.00    +0.000 NA
BRANCH   8  15
ATOM     14  C   UNL     1      41.995  11.426   9.572  0.00  0.00    +0.000 C 
ATOM     15  O   UNL     1      42.975  11.856  10.519  0.00  0.00    +0.000 OA
ENDBRANCH   8  15
ENDBRANCH   2  11
ENDBRANCH   1   6
BRANCH   1  16
ATOM     16  C   UNL     1      44.035   3.582  12.010  0.00  0.00    +0.000 C 
BRANCH  16  17
ATOM     17  N   UNL     1      43.631   3.558  10.613  0.00  0.00    +0.000 N 
ATOM     18  H   UNL     1      42.724   3.148  10.412  0.00  0.00    +0.000 HD
BRANCH  17  19
ATOM     19  C   UNL     1      44.602   3.364   9.628  0.00  0.00    +0.000 A 
ATOM     20  C   UNL     1      45.112   4.387   8.815  0.00  0.00    +0.000 A 
ATOM     21  C   UNL     1      45.994   4.114   7.759  0.00  0.00    +0.000 A 
ATOM     22  C   UNL     1      46.367   2.800   7.475  0.00  0.00    +0.000 A 
ATOM     23  C   UNL     1      45.854   1.778   8.269  0.00  0.00    +0.000 A 
ATOM     24  F   UNL     1      46.162   0.492   8.034  0.00  0.00    +0.000 F 
ATOM     25  C   UNL     1      44.984   2.051   9.330  0.00  0.00    +0.000 A 
BRANCH  22  26
ATOM     26  C   UNL     1      47.275   2.556   6.325  0.00  0.00    +0.000 C 
ATOM     27  N   UNL     1      48.616   2.450   6.568  0.00  0.00    +0.000 N 
ATOM     28  O   UNL     1      46.846   2.449   5.178  0.00  0.00    +0.000 OA
ATOM     29  H   UNL     1      49.010   2.510   7.499  0.00  0.00    +0.000 HD
ATOM     30  H   UNL     1      49.228   2.269   5.789  0.00  0.00    +0.000 HD
ENDBRANCH  22  26
ENDBRANCH  17  19
ENDBRANCH  16  17
ENDBRANCH   1  16
TORSDOF 7
ENDMDL
MODEL 3
REMARK VINA RESULT:    -7.329      2.604      8.461
REMARK INTER + INTRA:         -11.439
REMARK INTER:                 -10.367
REMARK INTRA:                  -1.072
REMARK UNBOUND:                -1.111
REMARK  Name = 
REMARK  8 active torsions:
REMARK  status: ('A' for Active; 'I' for Inactive)
REMARK    1  A    between atoms: C_1  and  O_2
REMARK    2  A    between atoms: O_2  and  C_3
REMARK    3  A    between atoms: C_6  and  C_7
REMARK    4  A    between atoms: C_11  and  C_12
REMARK    5  A    between atoms: C_12  and  C_13
REMARK    6  A    between atoms: C_13  and  N_14
REMARK    7  A    between atoms: N_14  and  C_15
REMARK    8  A    between atoms: C_18  and  C_19
REMARK                            x       y       z     vdW  Elec       q    Type
REMARK                         _______ _______ _______ _____ _____    ______ ____
ROOT
ATOM      1  C   UNL     1      44.570   6.871  11.243  0.00  0.00    +0.000 C 
ENDROOT
BRANCH   1   6
ATOM      2  C   UNL     1      45.059   3.496   9.447  0.00  0.00    +0.000 A 
ATOM      3  C   UNL     1      44.278   2.668  10.264  0.00  0.00    +0.000 A 
ATOM      4  C   UNL     1      43.577   3.187  11.354  0.00  0.00    +0.000 A 
ATOM      5  C   UNL     1      43.661   4.546  11.661  0.00  0.00    +0.000 A 
ATOM      6  C   UNL     1      44.433   5.405  10.870  0.00  0.00    +0.000 A 
ATOM      7  C   UNL     1      45.098   4.860   9.760  0.00  0.00    +0.000 A 
BRANCH   2  11
ATOM      8  C   UNL     1      47.188   2.028   6.180  0.00  0.00    +0.000 A 
ATOM      9  C   UNL     1      46.820   3.361   6.255  0.00  0.00    +0.000 A 
ATOM     10  N   UNL     1      46.131   3.865   7.309  0.00  0.00    +0.000 NA
ATOM     11  C   UNL     1      45.820   2.983   8.303  0.00  0.00    +0.000 A 
ATOM     12  C   UNL     1      46.204   1.652   8.204  0.00  0.00    +0.000 A 
ATOM     13  N   UNL     1      46.893   1.149   7.165  0.00  0.00    +0.000 NA
BRANCH   8  15
ATOM     14  C   UNL     1      47.140   0.486   4.449  0.00  0.00    +0.000 C 
ATOM     15  O   UNL     1      47.842   1.571   5.059  0.00  0.00    +0.000 OA
ENDBRANCH   8  15
ENDBRANCH   2  11
ENDBRANCH   1   6
BRANCH   1  16
ATOM     16  C   UNL     1      45.549   7.119  12.399  0.00  0.00    +0.000 C 
BRANCH  16  17
ATOM     17  N   UNL     1      46.753   6.309  12.319  0.00  0.00    +0.000 N 
ATOM     18  H   UNL     1      46.959   5.893  11.415  0.00  0.00    +0.000 HD
BRANCH  17  19
ATOM     19  C   UNL     1      47.132   5.542  13.424  0.00  0.00    +0.000 A 
ATOM     20  C   UNL     1      46.749   4.207  13.622  0.00  0.00    +0.000 A 
ATOM     21  C   UNL     1      47.055   3.525  14.809  0.00  0.00    +0.000 A 
ATOM     22  C   UNL     1      47.731   4.176  15.841  0.00  0.00    +0.000 A 
ATOM     23  C   UNL     1      48.102   5.504  15.657  0.00  0.00    +0.000 A 
ATOM     24  F   UNL     1      48.738   6.190  16.621  0.00  0.00    +0.000 F 
ATOM     25  C   UNL     1      47.808   6.182  14.468  0.00  0.00    +0.000 A 
BRANCH  22  26
ATOM     26  C   UNL     1      48.001   3.423  17.094  0.00  0.00    +0.000 C 
ATOM     27  N   UNL     1      46.983   2.700  17.648  0.00  0.00    +0.000 N 
ATOM     28  O   UNL     1      49.108   3.441  17.628  0.00  0.00    +0.000 OA
ATOM     29  H   UNL     1      46.063   2.641  17.230  0.00  0.00    +0.000 HD
ATOM     30  H   UNL     1      47.173   2.178  18.488  0.00  0.00    +0.000 HD
ENDBRANCH  22  26
ENDBRANCH  17  19
ENDBRANCH  16  17
ENDBRANCH   1  16
TORSDOF 7
ENDMDL
MODEL 4
REMARK VINA RESULT:    -7.150      3.408      4.475
REMARK INTER + INTRA:         -11.187
REMARK INTER:                  -9.459
REMARK INTRA:                  -1.729
REMARK UNBOUND:                -1.111
REMARK  Name = 
REMARK  8 active torsions:
REMARK  status: ('A' for Active; 'I' for Inactive)
REMARK    1  A    between atoms: C_1  and  O_2
REMARK    2  A    between atoms: O_2  and  C_3
REMARK    3  A    between atoms: C_6  and  C_7
REMARK    4  A    between atoms: C_11  and  C_12
REMARK    5  A    between atoms: C_12  and  C_13
REMARK    6  A    between atoms: C_13  and  N_14
REMARK    7  A    between atoms: N_14  and  C_15
REMARK    8  A    between atoms: C_18  and  C_19
REMARK                            x       y       z     vdW  Elec       q    Type
REMARK                         _______ _______ _______ _____ _____    ______ ____
ROOT
ATOM      1  C   UNL     1      46.453  10.198  11.982  0.00  0.00    +0.000 C 
ENDROOT
BRANCH   1   6
ATOM      2  C   UNL     1      48.175   7.063  13.417  0.00  0.00    +0.000 A 
ATOM      3  C   UNL     1      49.342   7.048  12.641  0.00  0.00    +0.000 A 
ATOM      4  C   UNL     1      49.590   8.044  11.696  0.00  0.00    +0.000 A 
ATOM      5  C   UNL     1      48.664   9.068  11.494  0.00  0.00    +0.000 A 
ATOM      6  C   UNL     1      47.486   9.117  12.248  0.00  0.00    +0.000 A 
ATOM      7  C   UNL     1      47.280   8.120  13.216  0.00  0.00    +0.000 A 
BRANCH   2  11
ATOM      8  C   UNL     1      47.347   4.091  16.218  0.00  0.00    +0.000 A 
ATOM      9  C   UNL     1      48.241   5.111  16.498  0.00  0.00    +0.000 A 
ATOM     10  N   UNL     1      48.525   6.093  15.606  0.00  0.00    +0.000 NA
ATOM     11  C   UNL     1      47.874   6.025  14.408  0.00  0.00    +0.000 A 
ATOM     12  C   UNL     1      46.980   4.993  14.154  0.00  0.00    +0.000 A 
ATOM     13  N   UNL     1      46.690   4.022  15.038  0.00  0.00    +0.000 NA
BRANCH   8  15
ATOM     14  C   UNL     1      48.344   2.788  17.855  0.00  0.00    +0.000 C 
ATOM     15  O   UNL     1      47.141   3.099  17.148  0.00  0.00    +0.000 OA
ENDBRANCH   8  15
ENDBRANCH   2  11
ENDBRANCH   1   6
BRANCH   1  16
ATOM     16  C   UNL     1      45.005   9.696  12.068  0.00  0.00    +0.000 C 
BRANCH  16  17
ATOM     17  N   UNL     1      44.653   8.770  11.004  0.00  0.00    +0.000 N 
ATOM     18  H   UNL     1      43.961   9.094  10.334  0.00  0.00    +0.000 HD
BRANCH  17  19
ATOM     19  C   UNL     1      44.617   7.401  11.278  0.00  0.00    +0.000 A 
ATOM     20  C   UNL     1      45.436   6.452  10.647  0.00  0.00    +0.000 A 
ATOM     21  C   UNL     1      45.273   5.077  10.871  0.00  0.00    +0.000 A 
ATOM     22  C   UNL     1      44.263   4.616  11.717  0.00  0.00    +0.000 A 
ATOM     23  C   UNL     1      43.438   5.551  12.335  0.00  0.00    +0.000 A 
ATOM     24  F   UNL     1      42.437   5.169  13.145  0.00  0.00    +0.000 F 
ATOM     25  C   UNL     1      43.609   6.924  12.122  0.00  0.00    +0.000 A 
BRANCH  22  26
ATOM     26  C   UNL     1      44.105   3.150  11.895  0.00  0.00    +0.000 C 
ATOM     27  N   UNL     1      45.070   2.474  12.586  0.00  0.00    +0.000 N 
ATOM     28  O   UNL     1      43.135   2.548  11.439  0.00  0.00    +0.000 OA
ATOM     29  H   UNL     1      45.874   2.933  12.997  0.00  0.00    +0.000 HD
ATOM     30  H   UNL     1      44.953   1.482  12.720  0.00  0.00    +0.000 HD
ENDBRANCH  22  26
ENDBRANCH  17  19
ENDBRANCH  16  17
ENDBRANCH   1  16
TORSDOF 7
ENDMDL
MODEL 5
REMARK VINA RESULT:    -7.075      2.261      2.871
REMARK INTER + INTRA:         -11.081
REMARK INTER:                 -10.578
REMARK INTRA:                  -0.503
REMARK UNBOUND:                -1.111
REMARK  Name = 
REMARK  8 active torsions:
REMARK  status: ('A' for Active; 'I' for Inactive)
REMARK    1  A    between atoms: C_1  and  O_2
REMARK    2  A    between atoms: O_2  and  C_3
REMARK    3  A    between atoms: C_6  and  C_7
REMARK    4  A    between atoms: C_11  and  C_12
REMARK    5  A    between atoms: C_12  and  C_13
REMARK    6  A    between atoms: C_13  and  N_14
REMARK    7  A    between atoms: N_14  and  C_15
REMARK    8  A    between atoms: C_18  and  C_19
REMARK                            x       y       z     vdW  Elec       q    Type
REMARK                         _______ _______ _______ _____ _____    ______ ____
ROOT
ATOM      1  C   UNL     1      45.314   3.360  12.425  0.00  0.00    +0.000 C 
ENDROOT
BRANCH   1   6
ATOM      2  C   UNL     1      47.135   6.637  13.320  0.00  0.00    +0.000 A 
ATOM      3  C   UNL     1      46.131   7.566  13.016  0.00  0.00    +0.000 A 
ATOM      4  C   UNL     1      44.878   7.149  12.563  0.00  0.00    +0.000 A 
ATOM      5  C   UNL     1      44.611   5.791  12.386  0.00  0.00    +0.000 A 
ATOM      6  C   UNL     1      45.588   4.832  12.677  0.00  0.00    +0.000 A 
ATOM      7  C   UNL     1      46.827   5.279  13.164  0.00  0.00    +0.000 A 
BRANCH   2  11
ATOM      8  C   UNL     1      50.934   7.746  14.624  0.00  0.00    +0.000 A 
ATOM      9  C   UNL     1      50.442   8.174  13.402  0.00  0.00    +0.000 A 
ATOM     10  N   UNL     1      49.208   7.832  12.956  0.00  0.00    +0.000 NA
ATOM     11  C   UNL     1      48.467   7.039  13.784  0.00  0.00    +0.000 A 
ATOM     12  C   UNL     1      48.983   6.626  15.006  0.00  0.00    +0.000 A 
ATOM     13  N   UNL     1      50.203   6.968  15.455  0.00  0.00    +0.000 NA
BRANCH   8  15
ATOM     14  C   UNL     1      52.214   8.981  16.110  0.00  0.00    +0.000 C 
ATOM     15  O   UNL     1      52.214   8.089  14.993  0.00  0.00    +0.000 OA
ENDBRANCH   8  15
ENDBRANCH   2  11
ENDBRANCH   1   6
BRANCH   1  16
ATOM     16  C   UNL     1      43.905   3.083  11.885  0.00  0.00    +0.000 C 
BRANCH  16  17
ATOM     17  N   UNL     1      43.695   3.589  10.537  0.00  0.00    +0.000 N 
ATOM     18  H   UNL     1      42.739   3.568  10.191  0.00  0.00    +0.000 HD
BRANCH  17  19
ATOM     19  C   UNL     1      44.681   3.379   9.571  0.00  0.00    +0.000 A 
ATOM     20  C   UNL     1      45.245   4.400   8.791  0.00  0.00    +0.000 A 
ATOM     21  C   UNL     1      46.142   4.117   7.749  0.00  0.00    +0.000 A 
ATOM     22  C   UNL     1      46.475   2.796   7.447  0.00  0.00    +0.000 A 
ATOM     23  C   UNL     1      45.908   1.778   8.207  0.00  0.00    +0.000 A 
ATOM     24  F   UNL     1      46.175   0.487   7.952  0.00  0.00    +0.000 F 
ATOM     25  C   UNL     1      45.023   2.060   9.254  0.00  0.00    +0.000 A 
BRANCH  22  26
ATOM     26  C   UNL     1      47.400   2.543   6.312  0.00  0.00    +0.000 C 
ATOM     27  N   UNL     1      48.619   1.986   6.581  0.00  0.00    +0.000 N 
ATOM     28  O   UNL     1      47.091   2.823   5.156  0.00  0.00    +0.000 OA
ATOM     29  H   UNL     1      48.905   1.720   7.516  0.00  0.00    +0.000 HD
ATOM     30  H   UNL     1      49.238   1.800   5.809  0.00  0.00    +0.000 HD
ENDBRANCH  22  26
ENDBRANCH  17  19
ENDBRANCH  16  17
ENDBRANCH   1  16
TORSDOF 7
ENDMDL
MODEL 6
REMARK VINA RESULT:    -6.866      3.241      4.505
REMARK INTER + INTRA:         -10.787
REMARK INTER:                  -9.984
REMARK INTRA:                  -0.803
REMARK UNBOUND:                -1.111
REMARK  Name = 
REMARK  8 active torsions:
REMARK  status: ('A' for Active; 'I' for Inactive)
REMARK    1  A    between atoms: C_1  and  O_2
REMARK    2  A    between atoms: O_2  and  C_3
REMARK    3  A    between atoms: C_6  and  C_7
REMARK    4  A    between atoms: C_11  and  C_12
REMARK    5  A    between atoms: C_12  and  C_13
REMARK    6  A    between atoms: C_13  and  N_14
REMARK    7  A    between atoms: N_14  and  C_15
REMARK    8  A    between atoms: C_18  and  C_19
REMARK                            x       y       z     vdW  Elec       q    Type
REMARK                         _______ _______ _______ _____ _____    ______ ____
ROOT
ATOM      1  C   UNL     1      43.731   5.166  12.225  0.00  0.00    +0.000 C 
ENDROOT
BRANCH   1   6
ATOM      2  C   UNL     1      46.981   7.068  13.047  0.00  0.00    +0.000 A 
ATOM      3  C   UNL     1      47.621   6.120  13.857  0.00  0.00    +0.000 A 
ATOM      4  C   UNL     1      47.037   4.878  14.109  0.00  0.00    +0.000 A 
ATOM      5  C   UNL     1      45.788   4.566  13.571  0.00  0.00    +0.000 A 
ATOM      6  C   UNL     1      45.116   5.486  12.758  0.00  0.00    +0.000 A 
ATOM      7  C   UNL     1      45.744   6.714  12.494  0.00  0.00    +0.000 A 
BRANCH   2  11
ATOM      8  C   UNL     1      48.631  10.806  12.232  0.00  0.00    +0.000 A 
ATOM      9  C   UNL     1      47.309  10.526  11.931  0.00  0.00    +0.000 A 
ATOM     10  N   UNL     1      46.746   9.319  12.190  0.00  0.00    +0.000 NA
ATOM     11  C   UNL     1      47.557   8.388  12.772  0.00  0.00    +0.000 A 
ATOM     12  C   UNL     1      48.878   8.697  13.067  0.00  0.00    +0.000 A 
ATOM     13  N   UNL     1      49.439   9.894  12.818  0.00  0.00    +0.000 NA
BRANCH   8  15
ATOM     14  C   UNL     1      49.018  12.297  10.500  0.00  0.00    +0.000 C 
ATOM     15  O   UNL     1      49.153  12.035  11.898  0.00  0.00    +0.000 OA
ENDBRANCH   8  15
ENDBRANCH   2  11
ENDBRANCH   1   6
BRANCH   1  16
ATOM     16  C   UNL     1      43.694   4.950  10.706  0.00  0.00    +0.000 C 
BRANCH  16  17
ATOM     17  N   UNL     1      43.876   3.561  10.317  0.00  0.00    +0.000 N 
ATOM     18  H   UNL     1      43.771   2.868  11.053  0.00  0.00    +0.000 HD
BRANCH  17  19
ATOM     19  C   UNL     1      44.820   3.247   9.336  0.00  0.00    +0.000 A 
ATOM     20  C   UNL     1      45.316   4.168   8.401  0.00  0.00    +0.000 A 
ATOM     21  C   UNL     1      46.169   3.769   7.361  0.00  0.00    +0.000 A 
ATOM     22  C   UNL     1      46.527   2.428   7.218  0.00  0.00    +0.000 A 
ATOM     23  C   UNL     1      46.027   1.507   8.135  0.00  0.00    +0.000 A 
ATOM     24  F   UNL     1      46.321   0.200   8.039  0.00  0.00    +0.000 F 
ATOM     25  C   UNL     1      45.186   1.906   9.180  0.00  0.00    +0.000 A 
BRANCH  22  26
ATOM     26  C   UNL     1      47.404   2.048   6.081  0.00  0.00    +0.000 C 
ATOM     27  N   UNL     1      47.005   2.377   4.817  0.00  0.00    +0.000 N 
ATOM     28  O   UNL     1      48.465   1.452   6.259  0.00  0.00    +0.000 OA
ATOM     29  H   UNL     1      46.150   2.886   4.626  0.00  0.00    +0.000 HD
ATOM     30  H   UNL     1      47.609   2.133   4.048  0.00  0.00    +0.000 HD
ENDBRANCH  22  26
ENDBRANCH  17  19
ENDBRANCH  16  17
ENDBRANCH   1  16
TORSDOF 7
ENDMDL
MODEL 7
REMARK VINA RESULT:    -6.853      1.586      2.139
REMARK INTER + INTRA:         -10.768
REMARK INTER:                 -10.636
REMARK INTRA:                  -0.132
REMARK UNBOUND:                -1.111
REMARK  Name = 
REMARK  8 active torsions:
REMARK  status: ('A' for Active; 'I' for Inactive)
REMARK    1  A    between atoms: C_1  and  O_2
REMARK    2  A    between atoms: O_2  and  C_3
REMARK    3  A    between atoms: C_6  and  C_7
REMARK    4  A    between atoms: C_11  and  C_12
REMARK    5  A    between atoms: C_12  and  C_13
REMARK    6  A    between atoms: C_13  and  N_14
REMARK    7  A    between atoms: N_14  and  C_15
REMARK    8  A    between atoms: C_18  and  C_19
REMARK                            x       y       z     vdW  Elec       q    Type
REMARK                         _______ _______ _______ _____ _____    ______ ____
ROOT
ATOM      1  C   UNL     1      45.720   6.158  10.723  0.00  0.00    +0.000 C 
ENDROOT
BRANCH   1   6
ATOM      2  C   UNL     1      47.565   6.514  14.088  0.00  0.00    +0.000 A 
ATOM      3  C   UNL     1      47.750   7.903  14.120  0.00  0.00    +0.000 A 
ATOM      4  C   UNL     1      47.262   8.717  13.096  0.00  0.00    +0.000 A 
ATOM      5  C   UNL     1      46.595   8.155  12.008  0.00  0.00    +0.000 A 
ATOM      6  C   UNL     1      46.392   6.772  11.939  0.00  0.00    +0.000 A 
ATOM      7  C   UNL     1      46.864   5.981  12.999  0.00  0.00    +0.000 A 
BRANCH   2  11
ATOM      8  C   UNL     1      49.043   3.975  17.043  0.00  0.00    +0.000 A 
ATOM      9  C   UNL     1      49.551   5.253  16.876  0.00  0.00    +0.000 A 
ATOM     10  N   UNL     1      49.085   6.101  15.925  0.00  0.00    +0.000 NA
ATOM     11  C   UNL     1      48.077   5.626  15.137  0.00  0.00    +0.000 A 
ATOM     12  C   UNL     1      47.583   4.342  15.328  0.00  0.00    +0.000 A 
ATOM     13  N   UNL     1      48.037   3.501  16.273  0.00  0.00    +0.000 NA
BRANCH   8  15
ATOM     14  C   UNL     1      50.302   2.062  17.395  0.00  0.00    +0.000 C 
ATOM     15  O   UNL     1      49.595   3.149  17.995  0.00  0.00    +0.000 OA
ENDBRANCH   8  15
ENDBRANCH   2  11
ENDBRANCH   1   6
BRANCH   1  16
ATOM     16  C   UNL     1      44.371   5.497  11.038  0.00  0.00    +0.000 C 
BRANCH  16  17
ATOM     17  N   UNL     1      43.764   4.850   9.886  0.00  0.00    +0.000 N 
ATOM     18  H   UNL     1      42.763   4.681   9.938  0.00  0.00    +0.000 HD
BRANCH  17  19
ATOM     19  C   UNL     1      44.492   3.885   9.185  0.00  0.00    +0.000 A 
ATOM     20  C   UNL     1      44.448   2.511   9.465  0.00  0.00    +0.000 A 
ATOM     21  C   UNL     1      45.293   1.602   8.812  0.00  0.00    +0.000 A 
ATOM     22  C   UNL     1      46.226   2.054   7.877  0.00  0.00    +0.000 A 
ATOM     23  C   UNL     1      46.285   3.418   7.606  0.00  0.00    +0.000 A 
ATOM     24  F   UNL     1      47.174   3.915   6.730  0.00  0.00    +0.000 F 
ATOM     25  C   UNL     1      45.433   4.323   8.247  0.00  0.00    +0.000 A 
BRANCH  22  26
ATOM     26  C   UNL     1      47.125   1.059   7.238  0.00  0.00    +0.000 C 
ATOM     27  N   UNL     1      46.926  -0.265   7.512  0.00  0.00    +0.000 N 
ATOM     28  O   UNL     1      48.028   1.404   6.479  0.00  0.00    +0.000 OA
ATOM     29  H   UNL     1      46.181  -0.594   8.114  0.00  0.00    +0.000 HD
ATOM     30  H   UNL     1      47.526  -0.939   7.065  0.00  0.00    +0.000 HD
ENDBRANCH  22  26
ENDBRANCH  17  19
ENDBRANCH  16  17
ENDBRANCH   1  16
TORSDOF 7
ENDMDL
MODEL 8
REMARK VINA RESULT:    -6.777      3.901      7.998
REMARK INTER + INTRA:         -10.661
REMARK INTER:                  -9.189
REMARK INTRA:                  -1.471
REMARK UNBOUND:                -1.111
REMARK  Name = 
REMARK  8 active torsions:
REMARK  status: ('A' for Active; 'I' for Inactive)
REMARK    1  A    between atoms: C_1  and  O_2
REMARK    2  A    between atoms: O_2  and  C_3
REMARK    3  A    between atoms: C_6  and  C_7
REMARK    4  A    between atoms: C_11  and  C_12
REMARK    5  A    between atoms: C_12  and  C_13
REMARK    6  A    between atoms: C_13  and  N_14
REMARK    7  A    between atoms: N_14  and  C_15
REMARK    8  A    between atoms: C_18  and  C_19
REMARK                            x       y       z     vdW  Elec       q    Type
REMARK                         _______ _______ _______ _____ _____    ______ ____
ROOT
ATOM      1  C   UNL     1      49.971   8.740  15.967  0.00  0.00    +0.000 C 
ENDROOT
BRANCH   1   6
ATOM      2  C   UNL     1      48.187   6.866  13.110  0.00  0.00    +0.000 A 
ATOM      3  C   UNL     1      48.787   7.480  12.002  0.00  0.00    +0.000 A 
ATOM      4  C   UNL     1      49.772   8.455  12.166  0.00  0.00    +0.000 A 
ATOM      5  C   UNL     1      50.163   8.851  13.446  0.00  0.00    +0.000 A 
ATOM      6  C   UNL     1      49.586   8.263  14.577  0.00  0.00    +0.000 A 
ATOM      7  C   UNL     1      48.623   7.260  14.381  0.00  0.00    +0.000 A 
BRANCH   2  11
ATOM      8  C   UNL     1      45.187   3.997  12.752  0.00  0.00    +0.000 A 
ATOM      9  C   UNL     1      45.350   4.986  11.796  0.00  0.00    +0.000 A 
ATOM     10  N   UNL     1      46.321   5.929  11.886  0.00  0.00    +0.000 NA
ATOM     11  C   UNL     1      47.139   5.848  12.976  0.00  0.00    +0.000 A 
ATOM     12  C   UNL     1      46.956   4.845  13.918  0.00  0.00    +0.000 A 
ATOM     13  N   UNL     1      45.999   3.904  13.829  0.00  0.00    +0.000 NA
BRANCH   8  15
ATOM     14  C   UNL     1      43.223   3.514  11.619  0.00  0.00    +0.000 C 
ATOM     15  O   UNL     1      44.150   3.101  12.625  0.00  0.00    +0.000 OA
ENDBRANCH   8  15
ENDBRANCH   2  11
ENDBRANCH   1   6
BRANCH   1  16
ATOM     16  C   UNL     1      48.891   8.477  17.025  0.00  0.00    +0.000 C 
BRANCH  16  17
ATOM     17  N   UNL     1      49.362   7.674  18.142  0.00  0.00    +0.000 N 
ATOM     18  H   UNL     1      50.006   8.127  18.784  0.00  0.00    +0.000 HD
BRANCH  17  19
ATOM     19  C   UNL     1      49.576   6.306  17.954  0.00  0.00    +0.000 A 
ATOM     20  C   UNL     1      50.842   5.725  17.787  0.00  0.00    +0.000 A 
ATOM     21  C   UNL     1      50.990   4.365  17.478  0.00  0.00    +0.000 A 
ATOM     22  C   UNL     1      49.866   3.556  17.302  0.00  0.00    +0.000 A 
ATOM     23  C   UNL     1      48.607   4.130  17.452  0.00  0.00    +0.000 A 
ATOM     24  F   UNL     1      47.488   3.408  17.276  0.00  0.00    +0.000 F 
ATOM     25  C   UNL     1      48.459   5.484  17.773  0.00  0.00    +0.000 A 
BRANCH  22  26
ATOM     26  C   UNL     1      50.071   2.130  16.940  0.00  0.00    +0.000 C 
ATOM     27  N   UNL     1      50.805   1.346  17.785  0.00  0.00    +0.000 N 
ATOM     28  O   UNL     1      49.598   1.654  15.910  0.00  0.00    +0.000 OA
ATOM     29  H   UNL     1      51.194   1.692  18.654  0.00  0.00    +0.000 HD
ATOM     30  H   UNL     1      50.929   0.375  17.546  0.00  0.00    +0.000 HD
ENDBRANCH  22  26
ENDBRANCH  17  19
ENDBRANCH  16  17
ENDBRANCH   1  16
TORSDOF 7
ENDMDL
MODEL 9
REMARK VINA RESULT:    -6.728      1.905      2.079
REMARK INTER + INTRA:         -10.591
REMARK INTER:                  -9.612
REMARK INTRA:                  -0.980
REMARK UNBOUND:                -1.111
REMARK  Name = 
REMARK  8 active torsions:
REMARK  status: ('A' for Active; 'I' for Inactive)
REMARK    1  A    between atoms: C_1  and  O_2
REMARK    2  A    between atoms: O_2  and  C_3
REMARK    3  A    between atoms: C_6  and  C_7
REMARK    4  A    between atoms: C_11  and  C_12
REMARK    5  A    between atoms: C_12  and  C_13
REMARK    6  A    between atoms: C_13  and  N_14
REMARK    7  A    between atoms: N_14  and  C_15
REMARK    8  A    between atoms: C_18  and  C_19
REMARK                            x       y       z     vdW  Elec       q    Type
REMARK                         _______ _______ _______ _____ _____    ______ ____
ROOT
ATOM      1  C   UNL     1      45.089   5.092  12.480  0.00  0.00    +0.000 C 
ENDROOT
BRANCH   1   6
ATOM      2  C   UNL     1      48.180   6.855  13.961  0.00  0.00    +0.000 A 
ATOM      3  C   UNL     1      48.684   7.474  12.810  0.00  0.00    +0.000 A 
ATOM      4  C   UNL     1      48.027   7.357  11.584  0.00  0.00    +0.000 A 
ATOM      5  C   UNL     1      46.860   6.600  11.481  0.00  0.00    +0.000 A 
ATOM      6  C   UNL     1      46.325   5.965  12.608  0.00  0.00    +0.000 A 
ATOM      7  C   UNL     1      46.989   6.129  13.835  0.00  0.00    +0.000 A 
BRANCH   2  11
ATOM      8  C   UNL     1      50.073   7.071  17.667  0.00  0.00    +0.000 A 
ATOM      9  C   UNL     1      50.748   6.623  16.543  0.00  0.00    +0.000 A 
ATOM     10  N   UNL     1      50.156   6.547  15.324  0.00  0.00    +0.000 NA
ATOM     11  C   UNL     1      48.851   6.943  15.262  0.00  0.00    +0.000 A 
ATOM     12  C   UNL     1      48.200   7.392  16.404  0.00  0.00    +0.000 A 
ATOM     13  N   UNL     1      48.784   7.475  17.613  0.00  0.00    +0.000 NA
BRANCH   8  15
ATOM     14  C   UNL     1      51.518   5.905  19.054  0.00  0.00    +0.000 C 
ATOM     15  O   UNL     1      50.718   7.076  18.882  0.00  0.00    +0.000 OA
ENDBRANCH   8  15
ENDBRANCH   2  11
ENDBRANCH   1   6
BRANCH   1  16
ATOM     16  C   UNL     1      44.219   5.437  11.264  0.00  0.00    +0.000 C 
BRANCH  16  17
ATOM     17  N   UNL     1      43.890   4.281  10.445  0.00  0.00    +0.000 N 
ATOM     18  H   UNL     1      43.316   3.566  10.883  0.00  0.00    +0.000 HD
BRANCH  17  19
ATOM     19  C   UNL     1      44.830   3.808   9.527  0.00  0.00    +0.000 A 
ATOM     20  C   UNL     1      45.543   4.628   8.640  0.00  0.00    +0.000 A 
ATOM     21  C   UNL     1      46.383   4.088   7.655  0.00  0.00    +0.000 A 
ATOM     22  C   UNL     1      46.509   2.705   7.518  0.00  0.00    +0.000 A 
ATOM     23  C   UNL     1      45.793   1.885   8.386  0.00  0.00    +0.000 A 
ATOM     24  F   UNL     1      45.859   0.547   8.291  0.00  0.00    +0.000 F 
ATOM     25  C   UNL     1      44.965   2.424   9.376  0.00  0.00    +0.000 A 
BRANCH  22  26
ATOM     26  C   UNL     1      47.382   2.178   6.438  0.00  0.00    +0.000 C 
ATOM     27  N   UNL     1      46.927   2.235   5.150  0.00  0.00    +0.000 N 
ATOM     28  O   UNL     1      48.489   1.701   6.681  0.00  0.00    +0.000 OA
ATOM     29  H   UNL     1      46.032   2.639   4.903  0.00  0.00    +0.000 HD
ATOM     30  H   UNL     1      47.527   1.892   4.418  0.00  0.00    +0.000 HD
ENDBRANCH  22  26
ENDBRANCH  17  19
ENDBRANCH  16  17
ENDBRANCH   1  16
TORSDOF 7
ENDMDL
