MODEL 1
REMARK VINA RESULT:    -6.842      0.000      0.000
REMARK INTER + INTRA:          -9.417
REMARK INTER:                  -8.442
REMARK INTRA:                  -0.976
REMARK UNBOUND:                -0.976
REMARK  Name = 
REMARK  6 active torsions:
REMARK  status: ('A' for Active; 'I' for Inactive)
REMARK    1  A    between atoms: C_1  and  C_2
REMARK    2  A    between atoms: C_5  and  O_6
REMARK    3  A    between atoms: O_6  and  C_7
REMARK    4  A    between atoms: C_7  and  C_8
REMARK    5  A    between atoms: C_12  and  C_13
REMARK    6  A    between atoms: C_22  and  C_23
REMARK                            x       y       z     vdW  Elec       q    Type
REMARK                         _______ _______ _______ _____ _____    ______ ____
ROOT
ATOM      1  C   UNL     1      43.769   5.352  11.049  0.00  0.00    +0.000 C 
ATOM      2  C   UNL     1      42.481   5.723  11.790  0.00  0.00    +0.000 C 
ATOM      3  C   UNL     1      43.173   6.745  10.959  0.00  0.00    +0.000 C 
ENDROOT
BRANCH   1   4
ATOM      4  C   UNL     1      44.995   5.088  11.909  0.00  0.00    +0.000 A 
ATOM      5  C   UNL     1      45.185   3.867  12.565  0.00  0.00    +0.000 A 
ATOM      6  C   UNL     1      46.334   3.628  13.319  0.00  0.00    +0.000 A 
ATOM      7  C   UNL     1      47.328   4.604  13.413  0.00  0.00    +0.000 A 
ATOM      8  C   UNL     1      47.190   5.844  12.772  0.00  0.00    +0.000 A 
ATOM      9  C   UNL     1      45.997   6.068  12.062  0.00  0.00    +0.000 A 
BRANCH   8  10
ATOM     10  C   UNL     1      48.267   6.856  12.773  0.00  0.00    +0.000 A 
ATOM     11  C   UNL     1      48.583   7.627  11.646  0.00  0.00    +0.000 A 
ATOM     12  C   UNL     1      49.655   8.521  11.671  0.00  0.00    +0.000 A 
ATOM     13  C   UNL     1      50.386   8.635  12.837  0.00  0.00    +0.000 A 
ATOM     14  N   UNL     1      50.125   7.926  13.952  0.00  0.00    +0.000 NA
ATOM     15  C   UNL     1      49.085   7.058  13.887  0.00  0.00    +0.000 A 
ENDBRANCH   8  10
ENDBRANCH   1   4
BRANCH   1  16
ATOM     16  O   UNL     1      43.555   4.428   9.950  0.00  0.00    +0.000 OA
BRANCH  16  21
ATOM     17  C   UNL     1      47.665   2.747   6.524  0.00  0.00    +0.000 C 
ATOM     18  C   UNL     1      46.664   3.162   7.553  0.00  0.00    +0.000 A 
ATOM     19  C   UNL     1      46.427   4.499   7.832  0.00  0.00    +0.000 A 
ATOM     20  N   UNL     1      45.462   4.937   8.666  0.00  0.00    +0.000 NA
ATOM     21  C   UNL     1      44.684   4.006   9.264  0.00  0.00    +0.000 A 
ATOM     22  C   UNL     1      44.886   2.635   9.119  0.00  0.00    +0.000 A 
ATOM     23  C   UNL     1      44.070   1.605   9.841  0.00  0.00    +0.000 C 
ATOM     24  C   UNL     1      45.890   2.219   8.233  0.00  0.00    +0.000 A 
ENDBRANCH  16  21
ENDBRANCH   1  16
TORSDOF 4
ENDMDL
MODEL 2
REMARK VINA RESULT:    -6.797      2.249      6.746
REMARK INTER + INTRA:          -9.362
REMARK INTER:                  -8.478
REMARK INTRA:                  -0.884
REMARK UNBOUND:                -0.976
REMARK  Name = 
REMARK  6 active torsions:
REMARK  status: ('A' for Active; 'I' for Inactive)
REMARK    1  A    between atoms: C_1  and  C_2
REMARK    2  A    between atoms: C_5  and  O_6
REMARK    3  A    between atoms: O_6  and  C_7
REMARK    4  A    between atoms: C_7  and  C_8
REMARK    5  A    between atoms: C_12  and  C_13
REMARK    6  A    between atoms: C_22  and  C_23
REMARK                            x       y       z     vdW  Elec       q    Type
REMARK                         _______ _______ _______ _____ _____    ______ ____
ROOT
ATOM      1  C   UNL     1      46.393   7.346  12.403  0.00  0.00    +0.000 C 
ATOM      2  C   UNL     1      46.407   8.795  11.907  0.00  0.00    +0.000 C 
ATOM      3  C   UNL     1      45.878   8.487  13.263  0.00  0.00    +0.000 C 
ENDROOT
BRANCH   1   4
ATOM      4  C   UNL     1      45.426   6.401  11.710  0.00  0.00    +0.000 A 
ATOM      5  C   UNL     1      44.054   6.419  11.984  0.00  0.00    +0.000 A 
ATOM      6  C   UNL     1      43.175   5.571  11.312  0.00  0.00    +0.000 A 
ATOM      7  C   UNL     1      43.652   4.698  10.331  0.00  0.00    +0.000 A 
ATOM      8  C   UNL     1      45.017   4.642  10.014  0.00  0.00    +0.000 A 
ATOM      9  C   UNL     1      45.880   5.476  10.747  0.00  0.00    +0.000 A 
BRANCH   8  10
ATOM     10  C   UNL     1      45.537   3.801   8.915  0.00  0.00    +0.000 A 
ATOM     11  C   UNL     1      45.583   2.402   8.989  0.00  0.00    +0.000 A 
ATOM     12  C   UNL     1      46.147   1.652   7.956  0.00  0.00    +0.000 A 
ATOM     13  C   UNL     1      46.645   2.322   6.856  0.00  0.00    +0.000 A 
ATOM     14  N   UNL     1      46.620   3.662   6.726  0.00  0.00    +0.000 NA
ATOM     15  C   UNL     1      46.076   4.359   7.754  0.00  0.00    +0.000 A 
ENDBRANCH   8  10
ENDBRANCH   1   4
BRANCH   1  16
ATOM     16  O   UNL     1      47.718   6.816  12.668  0.00  0.00    +0.000 OA
BRANCH  16  21
ATOM     17  C   UNL     1      47.665   4.216  17.637  0.00  0.00    +0.000 C 
ATOM     18  C   UNL     1      47.821   4.856  16.296  0.00  0.00    +0.000 A 
ATOM     19  C   UNL     1      47.242   4.307  15.163  0.00  0.00    +0.000 A 
ATOM     20  N   UNL     1      47.253   4.895  13.949  0.00  0.00    +0.000 NA
ATOM     21  C   UNL     1      47.875   6.091  13.840  0.00  0.00    +0.000 A 
ATOM     22  C   UNL     1      48.560   6.695  14.894  0.00  0.00    +0.000 A 
ATOM     23  C   UNL     1      49.310   7.984  14.752  0.00  0.00    +0.000 C 
ATOM     24  C   UNL     1      48.512   6.060  16.143  0.00  0.00    +0.000 A 
ENDBRANCH  16  21
ENDBRANCH   1  16
TORSDOF 4
ENDMDL
MODEL 3
REMARK VINA RESULT:    -6.510      2.952      7.445
REMARK INTER + INTRA:          -9.008
REMARK INTER:                  -8.125
REMARK INTRA:                  -0.884
REMARK UNBOUND:                -0.976
REMARK  Name = 
REMARK  6 active torsions:
REMARK  status: ('A' for Active; 'I' for Inactive)
REMARK    1  A    between atoms: C_1  and  C_2
REMARK    2  A    between atoms: C_5  and  O_6
REMARK    3  A    between atoms: O_6  and  C_7
REMARK    4  A    between atoms: C_7  and  C_8
REMARK    5  A    between atoms: C_12  and  C_13
REMARK    6  A    between atoms: C_22  and  C_23
REMARK                            x       y       z     vdW  Elec       q    Type
REMARK                         _______ _______ _______ _____ _____    ______ ____
ROOT
ATOM      1  C   UNL     1      48.699   7.307  13.617  0.00  0.00    +0.000 C 
ATOM      2  C   UNL     1      49.850   7.778  12.723  0.00  0.00    +0.000 C 
ATOM      3  C   UNL     1      49.415   8.623  13.868  0.00  0.00    +0.000 C 
ENDROOT
BRANCH   1   4
ATOM      4  C   UNL     1      47.315   7.286  12.988  0.00  0.00    +0.000 A 
ATOM      5  C   UNL     1      46.429   8.361  13.122  0.00  0.00    +0.000 A 
ATOM      6  C   UNL     1      45.178   8.341  12.507  0.00  0.00    +0.000 A 
ATOM      7  C   UNL     1      44.797   7.249  11.723  0.00  0.00    +0.000 A 
ATOM      8  C   UNL     1      45.649   6.149  11.551  0.00  0.00    +0.000 A 
ATOM      9  C   UNL     1      46.881   6.182  12.227  0.00  0.00    +0.000 A 
BRANCH   8  10
ATOM     10  C   UNL     1      45.314   5.026  10.650  0.00  0.00    +0.000 A 
ATOM     11  C   UNL     1      45.602   5.044   9.277  0.00  0.00    +0.000 A 
ATOM     12  C   UNL     1      45.204   3.993   8.451  0.00  0.00    +0.000 A 
ATOM     13  C   UNL     1      44.532   2.929   9.022  0.00  0.00    +0.000 A 
ATOM     14  N   UNL     1      44.235   2.853  10.333  0.00  0.00    +0.000 NA
ATOM     15  C   UNL     1      44.626   3.899  11.103  0.00  0.00    +0.000 A 
ENDBRANCH   8  10
ENDBRANCH   1   4
BRANCH   1  16
ATOM     16  O   UNL     1      49.040   6.159  14.437  0.00  0.00    +0.000 OA
BRANCH  16  21
ATOM     17  C   UNL     1      47.742   5.772  19.879  0.00  0.00    +0.000 C 
ATOM     18  C   UNL     1      47.945   5.924  18.407  0.00  0.00    +0.000 A 
ATOM     19  C   UNL     1      48.636   7.005  17.882  0.00  0.00    +0.000 A 
ATOM     20  N   UNL     1      48.947   7.140  16.576  0.00  0.00    +0.000 NA
ATOM     21  C   UNL     1      48.552   6.156  15.736  0.00  0.00    +0.000 A 
ATOM     22  C   UNL     1      47.783   5.068  16.141  0.00  0.00    +0.000 A 
ATOM     23  C   UNL     1      47.284   4.018  15.195  0.00  0.00    +0.000 C 
ATOM     24  C   UNL     1      47.493   4.955  17.508  0.00  0.00    +0.000 A 
ENDBRANCH  16  21
ENDBRANCH   1  16
TORSDOF 4
ENDMDL
MODEL 4
REMARK VINA RESULT:    -6.281      3.121      6.630
REMARK INTER + INTRA:          -8.725
REMARK INTER:                  -7.844
REMARK INTRA:                  -0.880
REMARK UNBOUND:                -0.976
REMARK  Name = 
REMARK  6 active torsions:
REMARK  status: ('A' for Active; 'I' for Inactive)
REMARK    1  A    between atoms: C_1  and  C_2
REMARK    2  A    between atoms: C_5  and  O_6
REMARK    3  A    between atoms: O_6  and  C_7
REMARK    4  A    between atoms: C_7  and  C_8
REMARK    5  A    between atoms: C_12  and  C_13
REMARK    6  A    between atoms: C_22  and  C_23
REMARK                            x       y       z     vdW  Elec       q    Type
REMARK                         _______ _______ _______ _____ _____    ______ ____
ROOT
ATOM      1  C   UNL     1      46.036   7.995  12.521  0.00  0.00    +0.000 C 
ATOM      2  C   UNL     1      47.239   7.820  13.451  0.00  0.00    +0.000 C 
ATOM      3  C   UNL     1      47.459   8.177  12.024  0.00  0.00    +0.000 C 
ENDROOT
BRANCH   1   4
ATOM      4  C   UNL     1      45.251   6.739  12.181  0.00  0.00    +0.000 A 
ATOM      5  C   UNL     1      44.094   6.381  12.881  0.00  0.00    +0.000 A 
ATOM      6  C   UNL     1      43.365   5.245  12.532  0.00  0.00    +0.000 A 
ATOM      7  C   UNL     1      43.771   4.453  11.455  0.00  0.00    +0.000 A 
ATOM      8  C   UNL     1      44.921   4.768  10.717  0.00  0.00    +0.000 A 
ATOM      9  C   UNL     1      45.658   5.892  11.129  0.00  0.00    +0.000 A 
BRANCH   8  10
ATOM     10  C   UNL     1      45.318   4.006   9.515  0.00  0.00    +0.000 A 
ATOM     11  C   UNL     1      45.250   2.607   9.448  0.00  0.00    +0.000 A 
ATOM     12  C   UNL     1      45.703   1.925   8.318  0.00  0.00    +0.000 A 
ATOM     13  C   UNL     1      46.206   2.662   7.264  0.00  0.00    +0.000 A 
ATOM     14  N   UNL     1      46.289   4.006   7.269  0.00  0.00    +0.000 NA
ATOM     15  C   UNL     1      45.851   4.636   8.388  0.00  0.00    +0.000 A 
ENDBRANCH   8  10
ENDBRANCH   1   4
BRANCH   1  16
ATOM     16  O   UNL     1      45.245   9.175  12.820  0.00  0.00    +0.000 OA
BRANCH  16  21
ATOM     17  C   UNL     1      43.767  11.606   7.987  0.00  0.00    +0.000 C 
ATOM     18  C   UNL     1      44.087  11.072   9.345  0.00  0.00    +0.000 A 
ATOM     19  C   UNL     1      43.395   9.997   9.879  0.00  0.00    +0.000 A 
ATOM     20  N   UNL     1      43.710   9.401  11.048  0.00  0.00    +0.000 NA
ATOM     21  C   UNL     1      44.767   9.894  11.735  0.00  0.00    +0.000 A 
ATOM     22  C   UNL     1      45.481  11.021  11.332  0.00  0.00    +0.000 A 
ATOM     23  C   UNL     1      46.604  11.608  12.132  0.00  0.00    +0.000 C 
ATOM     24  C   UNL     1      45.132  11.603  10.105  0.00  0.00    +0.000 A 
ENDBRANCH  16  21
ENDBRANCH   1  16
TORSDOF 4
ENDMDL
MODEL 5
REMARK VINA RESULT:    -5.847      3.050      7.827
REMARK INTER + INTRA:          -8.190
REMARK INTER:                  -7.089
REMARK INTRA:                  -1.101
REMARK UNBOUND:                -0.976
REMARK  Name = 
REMARK  6 active torsions:
REMARK  status: ('A' for Active; 'I' for Inactive)
REMARK    1  A    between atoms: C_1  and  C_2
REMARK    2  A    between atoms: C_5  and  O_6
REMARK    3  A    between atoms: O_6  and  C_7
REMARK    4  A    between atoms: C_7  and  C_8
REMARK    5  A    between atoms: C_12  and  C_13
REMARK    6  A    between atoms: C_22  and  C_23
REMARK                            x       y       z     vdW  Elec       q    Type
REMARK                         _______ _______ _______ _____ _____    ______ ____
ROOT
ATOM      1  C   UNL     1      49.154   7.654  13.175  0.00  0.00    +0.000 C 
ATOM      2  C   UNL     1      50.006   7.506  11.911  0.00  0.00    +0.000 C 
ATOM      3  C   UNL     1      50.012   8.794  12.655  0.00  0.00    +0.000 C 
ENDROOT
BRANCH   1   4
ATOM      4  C   UNL     1      47.647   7.668  12.980  0.00  0.00    +0.000 A 
ATOM      5  C   UNL     1      46.911   8.858  13.010  0.00  0.00    +0.000 A 
ATOM      6  C   UNL     1      45.534   8.857  12.792  0.00  0.00    +0.000 A 
ATOM      7  C   UNL     1      44.867   7.661  12.517  0.00  0.00    +0.000 A 
ATOM      8  C   UNL     1      45.557   6.440  12.471  0.00  0.00    +0.000 A 
ATOM      9  C   UNL     1      46.935   6.474  12.745  0.00  0.00    +0.000 A 
BRANCH   8  10
ATOM     10  C   UNL     1      44.895   5.176  12.086  0.00  0.00    +0.000 A 
ATOM     11  C   UNL     1      44.738   4.779  10.750  0.00  0.00    +0.000 A 
ATOM     12  C   UNL     1      44.045   3.611  10.430  0.00  0.00    +0.000 A 
ATOM     13  C   UNL     1      43.530   2.851  11.462  0.00  0.00    +0.000 A 
ATOM     14  N   UNL     1      43.656   3.177  12.762  0.00  0.00    +0.000 NA
ATOM     15  C   UNL     1      44.325   4.325  13.036  0.00  0.00    +0.000 A 
ENDBRANCH   8  10
ENDBRANCH   1   4
BRANCH   1  16
ATOM     16  O   UNL     1      49.642   6.867  14.293  0.00  0.00    +0.000 OA
BRANCH  16  21
ATOM     17  C   UNL     1      49.005   8.401  19.650  0.00  0.00    +0.000 C 
ATOM     18  C   UNL     1      49.028   8.032  18.202  0.00  0.00    +0.000 A 
ATOM     19  C   UNL     1      49.612   8.859  17.256  0.00  0.00    +0.000 A 
ATOM     20  N   UNL     1      49.762   8.530  15.956  0.00  0.00    +0.000 NA
ATOM     21  C   UNL     1      49.310   7.318  15.562  0.00  0.00    +0.000 A 
ATOM     22  C   UNL     1      48.635   6.442  16.410  0.00  0.00    +0.000 A 
ATOM     23  C   UNL     1      48.069   5.132  15.953  0.00  0.00    +0.000 C 
ATOM     24  C   UNL     1      48.511   6.813  17.756  0.00  0.00    +0.000 A 
ENDBRANCH  16  21
ENDBRANCH   1  16
TORSDOF 4
ENDMDL
MODEL 6
REMARK VINA RESULT:    -5.786      4.646      8.186
REMARK INTER + INTRA:          -8.115
REMARK INTER:                  -7.919
REMARK INTRA:                  -0.197
REMARK UNBOUND:                -0.976
REMARK  Name = 
REMARK  6 active torsions:
REMARK  status: ('A' for Active; 'I' for Inactive)
REMARK    1  A    between atoms: C_1  and  C_2
REMARK    2  A    between atoms: C_5  and  O_6
REMARK    3  A    between atoms: O_6  and  C_7
REMARK    4  A    between atoms: C_7  and  C_8
REMARK    5  A    between atoms: C_12  and  C_13
REMARK    6  A    between atoms: C_22  and  C_23
REMARK                            x       y       z     vdW  Elec       q    Type
REMARK                         _______ _______ _______ _____ _____    ______ ____
ROOT
ATOM      1  C   UNL     1      48.207   4.708  17.186  0.00  0.00    +0.000 C 
ATOM      2  C   UNL     1      46.993   4.817  18.112  0.00  0.00    +0.000 C 
ATOM      3  C   UNL     1      47.327   3.509  17.487  0.00  0.00    +0.000 C 
ENDROOT
BRANCH   1   4
ATOM      4  C   UNL     1      48.108   5.426  15.849  0.00  0.00    +0.000 A 
ATOM      5  C   UNL     1      48.932   6.512  15.533  0.00  0.00    +0.000 A 
ATOM      6  C   UNL     1      48.854   7.135  14.289  0.00  0.00    +0.000 A 
ATOM      7  C   UNL     1      47.960   6.666  13.323  0.00  0.00    +0.000 A 
ATOM      8  C   UNL     1      47.114   5.579  13.586  0.00  0.00    +0.000 A 
ATOM      9  C   UNL     1      47.185   5.008  14.868  0.00  0.00    +0.000 A 
BRANCH   8  10
ATOM     10  C   UNL     1      46.230   5.001  12.552  0.00  0.00    +0.000 A 
ATOM     11  C   UNL     1      45.852   5.703  11.399  0.00  0.00    +0.000 A 
ATOM     12  C   UNL     1      44.959   5.144  10.484  0.00  0.00    +0.000 A 
ATOM     13  C   UNL     1      44.468   3.878  10.737  0.00  0.00    +0.000 A 
ATOM     14  N   UNL     1      44.801   3.153  11.822  0.00  0.00    +0.000 NA
ATOM     15  C   UNL     1      45.662   3.733  12.695  0.00  0.00    +0.000 A 
ENDBRANCH   8  10
ENDBRANCH   1   4
BRANCH   1  16
ATOM     16  O   UNL     1      49.475   4.836  17.881  0.00  0.00    +0.000 OA
BRANCH  16  21
ATOM     17  C   UNL     1      53.038   0.511  17.658  0.00  0.00    +0.000 C 
ATOM     18  C   UNL     1      52.160   1.718  17.595  0.00  0.00    +0.000 A 
ATOM     19  C   UNL     1      50.873   1.649  17.087  0.00  0.00    +0.000 A 
ATOM     20  N   UNL     1      49.997   2.675  17.106  0.00  0.00    +0.000 NA
ATOM     21  C   UNL     1      50.413   3.840  17.652  0.00  0.00    +0.000 A 
ATOM     22  C   UNL     1      51.710   4.046  18.117  0.00  0.00    +0.000 A 
ATOM     23  C   UNL     1      52.190   5.360  18.654  0.00  0.00    +0.000 C 
ATOM     24  C   UNL     1      52.586   2.951  18.094  0.00  0.00    +0.000 A 
ENDBRANCH  16  21
ENDBRANCH   1  16
TORSDOF 4
ENDMDL
MODEL 7
REMARK VINA RESULT:    -5.695      3.764      8.179
REMARK INTER + INTRA:          -8.002
REMARK INTER:                  -7.162
REMARK INTRA:                  -0.840
REMARK UNBOUND:                -0.976
REMARK  Name = 
REMARK  6 active torsions:
REMARK  status: ('A' for Active; 'I' for Inactive)
REMARK    1  A    between atoms: C_1  and  C_2
REMARK    2  A    between atoms: C_5  and  O_6
REMARK    3  A    between atoms: O_6  and  C_7
REMARK    4  A    between atoms: C_7  and  C_8
REMARK    5  A    between atoms: C_12  and  C_13
REMARK    6  A    between atoms: C_22  and  C_23
REMARK                            x       y       z     vdW  Elec       q    Type
REMARK                         _______ _______ _______ _____ _____    ______ ____
ROOT
ATOM      1  C   UNL     1      49.044   7.149  15.078  0.00  0.00    +0.000 C 
ATOM      2  C   UNL     1      50.345   7.853  14.682  0.00  0.00    +0.000 C 
ATOM      3  C   UNL     1      49.627   8.275  15.915  0.00  0.00    +0.000 C 
ENDROOT
BRANCH   1   4
ATOM      4  C   UNL     1      47.840   7.393  14.184  0.00  0.00    +0.000 A 
ATOM      5  C   UNL     1      47.436   8.684  13.828  0.00  0.00    +0.000 A 
ATOM      6  C   UNL     1      46.351   8.889  12.976  0.00  0.00    +0.000 A 
ATOM      7  C   UNL     1      45.661   7.797  12.442  0.00  0.00    +0.000 A 
ATOM      8  C   UNL     1      46.027   6.482  12.762  0.00  0.00    +0.000 A 
ATOM      9  C   UNL     1      47.093   6.316  13.664  0.00  0.00    +0.000 A 
BRANCH   8  10
ATOM     10  C   UNL     1      45.379   5.310  12.137  0.00  0.00    +0.000 A 
ATOM     11  C   UNL     1      45.029   5.271  10.780  0.00  0.00    +0.000 A 
ATOM     12  C   UNL     1      44.354   4.171  10.249  0.00  0.00    +0.000 A 
ATOM     13  C   UNL     1      44.053   3.118  11.090  0.00  0.00    +0.000 A 
ATOM     14  N   UNL     1      44.371   3.095  12.398  0.00  0.00    +0.000 NA
ATOM     15  C   UNL     1      45.015   4.186  12.883  0.00  0.00    +0.000 A 
ENDBRANCH   8  10
ENDBRANCH   1   4
BRANCH   1  16
ATOM     16  O   UNL     1      49.242   5.779  15.516  0.00  0.00    +0.000 OA
BRANCH  16  21
ATOM     17  C   UNL     1      48.120   5.461  21.002  0.00  0.00    +0.000 C 
ATOM     18  C   UNL     1      48.437   5.394  19.543  0.00  0.00    +0.000 A 
ATOM     19  C   UNL     1      47.441   5.482  18.584  0.00  0.00    +0.000 A 
ATOM     20  N   UNL     1      47.674   5.539  17.257  0.00  0.00    +0.000 NA
ATOM     21  C   UNL     1      48.962   5.506  16.847  0.00  0.00    +0.000 A 
ATOM     22  C   UNL     1      50.037   5.337  17.718  0.00  0.00    +0.000 A 
ATOM     23  C   UNL     1      51.458   5.226  17.256  0.00  0.00    +0.000 C 
ATOM     24  C   UNL     1      49.755   5.295  19.091  0.00  0.00    +0.000 A 
ENDBRANCH  16  21
ENDBRANCH   1  16
TORSDOF 4
ENDMDL
MODEL 8
REMARK VINA RESULT:    -5.542      2.963      7.295
REMARK INTER + INTRA:          -7.813
REMARK INTER:                  -7.262
REMARK INTRA:                  -0.551
REMARK UNBOUND:                -0.976
REMARK  Name = 
REMARK  6 active torsions:
REMARK  status: ('A' for Active; 'I' for Inactive)
REMARK    1  A    between atoms: C_1  and  C_2
REMARK    2  A    between atoms: C_5  and  O_6
REMARK    3  A    between atoms: O_6  and  C_7
REMARK    4  A    between atoms: C_7  and  C_8
REMARK    5  A    between atoms: C_12  and  C_13
REMARK    6  A    between atoms: C_22  and  C_23
REMARK                            x       y       z     vdW  Elec       q    Type
REMARK                         _______ _______ _______ _____ _____    ______ ____
ROOT
ATOM      1  C   UNL     1      48.583   8.215  12.476  0.00  0.00    +0.000 C 
ATOM      2  C   UNL     1      49.321   7.393  13.536  0.00  0.00    +0.000 C 
ATOM      3  C   UNL     1      49.725   7.285  12.108  0.00  0.00    +0.000 C 
ENDROOT
BRANCH   1   4
ATOM      4  C   UNL     1      47.142   7.822  12.194  0.00  0.00    +0.000 A 
ATOM      5  C   UNL     1      46.068   8.620  12.602  0.00  0.00    +0.000 A 
ATOM      6  C   UNL     1      44.753   8.264  12.301  0.00  0.00    +0.000 A 
ATOM      7  C   UNL     1      44.490   7.107  11.563  0.00  0.00    +0.000 A 
ATOM      8  C   UNL     1      45.530   6.274  11.126  0.00  0.00    +0.000 A 
ATOM      9  C   UNL     1      46.838   6.639  11.490  0.00  0.00    +0.000 A 
BRANCH   8  10
ATOM     10  C   UNL     1      45.288   5.100  10.261  0.00  0.00    +0.000 A 
ATOM     11  C   UNL     1      45.777   5.011   8.950  0.00  0.00    +0.000 A 
ATOM     12  C   UNL     1      45.465   3.914   8.146  0.00  0.00    +0.000 A 
ATOM     13  C   UNL     1      44.674   2.915   8.678  0.00  0.00    +0.000 A 
ATOM     14  N   UNL     1      44.184   2.942   9.932  0.00  0.00    +0.000 NA
ATOM     15  C   UNL     1      44.497   4.028  10.681  0.00  0.00    +0.000 A 
ENDBRANCH   8  10
ENDBRANCH   1   4
BRANCH   1  16
ATOM     16  O   UNL     1      48.845   9.640  12.569  0.00  0.00    +0.000 OA
BRANCH  16  21
ATOM     17  C   UNL     1      51.394  12.629   8.566  0.00  0.00    +0.000 C 
ATOM     18  C   UNL     1      50.654  11.750   9.520  0.00  0.00    +0.000 A 
ATOM     19  C   UNL     1      51.296  10.740  10.218  0.00  0.00    +0.000 A 
ATOM     20  N   UNL     1      50.708   9.988  11.172  0.00  0.00    +0.000 NA
ATOM     21  C   UNL     1      49.410  10.242  11.454  0.00  0.00    +0.000 A 
ATOM     22  C   UNL     1      48.646  11.177  10.758  0.00  0.00    +0.000 A 
ATOM     23  C   UNL     1      47.188  11.404  11.023  0.00  0.00    +0.000 C 
ATOM     24  C   UNL     1      49.296  11.947   9.785  0.00  0.00    +0.000 A 
ENDBRANCH  16  21
ENDBRANCH   1  16
TORSDOF 4
ENDMDL
MODEL 9
REMARK VINA RESULT:    -5.526      4.080      5.555
REMARK INTER + INTRA:          -7.793
REMARK INTER:                  -7.091
REMARK INTRA:                  -0.702
REMARK UNBOUND:                -0.976
REMARK  Name = 
REMARK  6 active torsions:
REMARK  status: ('A' for Active; 'I' for Inactive)
REMARK    1  A    between atoms: C_1  and  C_2
REMARK    2  A    between atoms: C_5  and  O_6
REMARK    3  A    between atoms: O_6  and  C_7
REMARK    4  A    between atoms: C_7  and  C_8
REMARK    5  A    between atoms: C_12  and  C_13
REMARK    6  A    between atoms: C_22  and  C_23
REMARK                            x       y       z     vdW  Elec       q    Type
REMARK                         _______ _______ _______ _____ _____    ______ ____
ROOT
ATOM      1  C   UNL     1      47.048   5.506  14.113  0.00  0.00    +0.000 C 
ATOM      2  C   UNL     1      47.772   6.851  14.018  0.00  0.00    +0.000 C 
ATOM      3  C   UNL     1      48.055   5.791  13.014  0.00  0.00    +0.000 C 
ENDROOT
BRANCH   1   4
ATOM      4  C   UNL     1      47.416   4.617  15.290  0.00  0.00    +0.000 A 
ATOM      5  C   UNL     1      47.742   3.267  15.120  0.00  0.00    +0.000 A 
ATOM      6  C   UNL     1      48.115   2.476  16.205  0.00  0.00    +0.000 A 
ATOM      7  C   UNL     1      48.190   3.029  17.486  0.00  0.00    +0.000 A 
ATOM      8  C   UNL     1      47.878   4.378  17.712  0.00  0.00    +0.000 A 
ATOM      9  C   UNL     1      47.459   5.132  16.602  0.00  0.00    +0.000 A 
BRANCH   8  10
ATOM     10  C   UNL     1      48.044   5.013  19.036  0.00  0.00    +0.000 A 
ATOM     11  C   UNL     1      47.302   6.134  19.436  0.00  0.00    +0.000 A 
ATOM     12  C   UNL     1      47.541   6.744  20.668  0.00  0.00    +0.000 A 
ATOM     13  C   UNL     1      48.516   6.209  21.487  0.00  0.00    +0.000 A 
ATOM     14  N   UNL     1      49.254   5.130  21.159  0.00  0.00    +0.000 NA
ATOM     15  C   UNL     1      49.003   4.571  19.949  0.00  0.00    +0.000 A 
ENDBRANCH   8  10
ENDBRANCH   1   4
BRANCH   1  16
ATOM     16  O   UNL     1      45.632   5.592  13.803  0.00  0.00    +0.000 OA
BRANCH  16  21
ATOM     17  C   UNL     1      44.649   2.716   9.089  0.00  0.00    +0.000 C 
ATOM     18  C   UNL     1      44.761   3.507  10.352  0.00  0.00    +0.000 A 
ATOM     19  C   UNL     1      44.934   2.888  11.579  0.00  0.00    +0.000 A 
ATOM     20  N   UNL     1      45.152   3.549  12.735  0.00  0.00    +0.000 NA
ATOM     21  C   UNL     1      45.199   4.899  12.682  0.00  0.00    +0.000 A 
ATOM     22  C   UNL     1      44.957   5.627  11.518  0.00  0.00    +0.000 A 
ATOM     23  C   UNL     1      44.936   7.125  11.478  0.00  0.00    +0.000 C 
ATOM     24  C   UNL     1      44.749   4.904  10.335  0.00  0.00    +0.000 A 
ENDBRANCH  16  21
ENDBRANCH   1  16
TORSDOF 4
ENDMDL
