MODEL 1
REMARK VINA RESULT:    -8.290      0.000      0.000
REMARK INTER + INTRA:         -12.710
REMARK INTER:                 -11.683
REMARK INTRA:                  -1.027
REMARK UNBOUND:                -1.027
REMARK  Name = 
REMARK  7 active torsions:
REMARK  status: ('A' for Active; 'I' for Inactive)
REMARK    1  A    between atoms: C_2  and  C_20
REMARK    2  A    between atoms: N_3  and  C_4
REMARK    3  A    between atoms: C_4  and  C_5
REMARK    4  A    between atoms: C_8  and  C_9
REMARK    5  A    between atoms: C_9  and  C_10
REMARK    6  A    between atoms: C_10  and  O_11
REMARK    7  A    between atoms: O_11  and  C_12
REMARK                            x       y       z     vdW  Elec       q    Type
REMARK                         _______ _______ _______ _____ _____    ______ ____
ROOT
ATOM      1  C   UNL     1      46.445   7.611  12.873  0.00  0.00    +0.000 C 
ENDROOT
BRANCH   1   2
ATOM      2  C   UNL     1      45.796   6.404  12.265  0.00  0.00    +0.000 A 
ATOM      3  C   UNL     1      45.836   6.166  10.890  0.00  0.00    +0.000 A 
ATOM      4  C   UNL     1      45.243   5.018  10.364  0.00  0.00    +0.000 A 
ATOM      5  C   UNL     1      44.609   4.131  11.227  0.00  0.00    +0.000 A 
ATOM      6  N   UNL     1      44.536   4.362  12.560  0.00  0.00    +0.000 NA
ATOM      7  C   UNL     1      45.117   5.482  13.046  0.00  0.00    +0.000 A 
BRANCH   5   8
ATOM      8  C   UNL     1      43.988   2.861  10.687  0.00  0.00    +0.000 C 
BRANCH   8   9
ATOM      9  C   UNL     1      44.374   2.603   9.231  0.00  0.00    +0.000 C 
BRANCH   9  10
ATOM     10  O   UNL     1      45.524   1.748   9.152  0.00  0.00    +0.000 OA
BRANCH  10  11
ATOM     11  C   UNL     1      46.204   1.940   7.959  0.00  0.00    +0.000 A 
ATOM     12  C   UNL     1      46.029   3.151   7.311  0.00  0.00    +0.000 A 
ATOM     13  C   UNL     1      46.707   3.360   6.112  0.00  0.00    +0.000 A 
ATOM     14  C   UNL     1      47.532   2.360   5.609  0.00  0.00    +0.000 A 
ATOM     15  C   UNL     1      47.647   1.185   6.329  0.00  0.00    +0.000 A 
ATOM     16  N   UNL     1      47.001   0.954   7.485  0.00  0.00    +0.000 NA
ENDBRANCH  10  11
ENDBRANCH   9  10
ENDBRANCH   8   9
ENDBRANCH   5   8
ENDBRANCH   1   2
BRANCH   1  19
ATOM     17  O   UNL     1      48.854   6.191  13.237  0.00  0.00    +0.000 OA
ATOM     18  C   UNL     1      48.267   6.633  14.222  0.00  0.00    +0.000 C 
ATOM     19  N   UNL     1      47.076   7.303  14.128  0.00  0.00    +0.000 N 
ATOM     20  H   UNL     1      46.717   7.790  14.942  0.00  0.00    +0.000 HD
BRANCH  18  21
ATOM     21  C   UNL     1      48.780   6.415  15.582  0.00  0.00    +0.000 A 
ATOM     22  C   UNL     1      49.705   7.299  16.122  0.00  0.00    +0.000 A 
ATOM     23  S   UNL     1      50.209   6.883  17.698  0.00  0.00    +0.000 S 
ATOM     24  C   UNL     1      49.176   5.532  17.731  0.00  0.00    +0.000 A 
ATOM     25  N   UNL     1      49.098   4.737  18.833  0.00  0.00    +0.000 NA
ATOM     26  C   UNL     1      48.243   3.774  18.737  0.00  0.00    +0.000 A 
ATOM     27  N   UNL     1      47.470   3.523  17.635  0.00  0.00    +0.000 N 
ATOM     28  C   UNL     1      47.574   4.247  16.473  0.00  0.00    +0.000 A 
ATOM     29  O   UNL     1      46.975   3.908  15.458  0.00  0.00    +0.000 OA
ATOM     30  C   UNL     1      48.479   5.380  16.546  0.00  0.00    +0.000 A 
ATOM     31  H   UNL     1      46.846   2.730  17.610  0.00  0.00    +0.000 HD
ENDBRANCH  18  21
ENDBRANCH   1  19
TORSDOF 7
ENDMDL
MODEL 2
REMARK VINA RESULT:    -8.045      1.870      2.209
REMARK INTER + INTRA:         -12.363
REMARK INTER:                 -11.414
REMARK INTRA:                  -0.950
REMARK UNBOUND:                -1.027
REMARK  Name = 
REMARK  7 active torsions:
REMARK  status: ('A' for Active; 'I' for Inactive)
REMARK    1  A    between atoms: C_2  and  C_20
REMARK    2  A    between atoms: N_3  and  C_4
REMARK    3  A    between atoms: C_4  and  C_5
REMARK    4  A    between atoms: C_8  and  C_9
REMARK    5  A    between atoms: C_9  and  C_10
REMARK    6  A    between atoms: C_10  and  O_11
REMARK    7  A    between atoms: O_11  and  C_12
REMARK                            x       y       z     vdW  Elec       q    Type
REMARK                         _______ _______ _______ _____ _____    ______ ____
ROOT
ATOM      1  C   UNL     1      48.356   6.576  14.049  0.00  0.00    +0.000 C 
ENDROOT
BRANCH   1   2
ATOM      2  C   UNL     1      47.237   5.782  13.446  0.00  0.00    +0.000 A 
ATOM      3  C   UNL     1      46.653   6.145  12.231  0.00  0.00    +0.000 A 
ATOM      4  C   UNL     1      45.632   5.367  11.689  0.00  0.00    +0.000 A 
ATOM      5  C   UNL     1      45.202   4.240  12.381  0.00  0.00    +0.000 A 
ATOM      6  N   UNL     1      45.737   3.891  13.576  0.00  0.00    +0.000 NA
ATOM      7  C   UNL     1      46.725   4.662  14.083  0.00  0.00    +0.000 A 
BRANCH   5   8
ATOM      8  C   UNL     1      44.118   3.359  11.799  0.00  0.00    +0.000 C 
BRANCH   8   9
ATOM      9  C   UNL     1      43.959   3.558  10.292  0.00  0.00    +0.000 C 
BRANCH   9  10
ATOM     10  O   UNL     1      44.111   2.313   9.595  0.00  0.00    +0.000 OA
BRANCH  10  11
ATOM     11  C   UNL     1      45.183   2.364   8.715  0.00  0.00    +0.000 A 
ATOM     12  C   UNL     1      45.477   3.587   8.137  0.00  0.00    +0.000 A 
ATOM     13  C   UNL     1      46.551   3.656   7.253  0.00  0.00    +0.000 A 
ATOM     14  C   UNL     1      47.289   2.508   6.982  0.00  0.00    +0.000 A 
ATOM     15  C   UNL     1      46.922   1.333   7.610  0.00  0.00    +0.000 A 
ATOM     16  N   UNL     1      45.887   1.236   8.464  0.00  0.00    +0.000 NA
ENDBRANCH  10  11
ENDBRANCH   9  10
ENDBRANCH   8   9
ENDBRANCH   5   8
ENDBRANCH   1   2
BRANCH   1  19
ATOM     17  O   UNL     1      50.268   6.140  16.075  0.00  0.00    +0.000 OA
ATOM     18  C   UNL     1      49.160   6.572  16.383  0.00  0.00    +0.000 C 
ATOM     19  N   UNL     1      48.169   6.777  15.461  0.00  0.00    +0.000 N 
ATOM     20  H   UNL     1      47.336   7.287  15.734  0.00  0.00    +0.000 HD
BRANCH  18  21
ATOM     21  C   UNL     1      48.805   6.841  17.784  0.00  0.00    +0.000 A 
ATOM     22  C   UNL     1      48.464   8.128  18.177  0.00  0.00    +0.000 A 
ATOM     23  S   UNL     1      48.102   8.264  19.839  0.00  0.00    +0.000 S 
ATOM     24  C   UNL     1      48.345   6.597  20.083  0.00  0.00    +0.000 A 
ATOM     25  N   UNL     1      48.163   6.036  21.309  0.00  0.00    +0.000 NA
ATOM     26  C   UNL     1      48.339   4.757  21.343  0.00  0.00    +0.000 A 
ATOM     27  N   UNL     1      48.693   3.989  20.266  0.00  0.00    +0.000 N 
ATOM     28  C   UNL     1      48.966   4.523  19.030  0.00  0.00    +0.000 A 
ATOM     29  O   UNL     1      49.420   3.830  18.125  0.00  0.00    +0.000 OA
ATOM     30  C   UNL     1      48.727   5.951  18.922  0.00  0.00    +0.000 A 
ATOM     31  H   UNL     1      48.850   2.997  20.366  0.00  0.00    +0.000 HD
ENDBRANCH  18  21
ENDBRANCH   1  19
TORSDOF 7
ENDMDL
MODEL 3
REMARK VINA RESULT:    -7.860      2.445      2.928
REMARK INTER + INTRA:         -12.103
REMARK INTER:                 -11.018
REMARK INTRA:                  -1.085
REMARK UNBOUND:                -1.027
REMARK  Name = 
REMARK  7 active torsions:
REMARK  status: ('A' for Active; 'I' for Inactive)
REMARK    1  A    between atoms: C_2  and  C_20
REMARK    2  A    between atoms: N_3  and  C_4
REMARK    3  A    between atoms: C_4  and  C_5
REMARK    4  A    between atoms: C_8  and  C_9
REMARK    5  A    between atoms: C_9  and  C_10
REMARK    6  A    between atoms: C_10  and  O_11
REMARK    7  A    between atoms: O_11  and  C_12
REMARK                            x       y       z     vdW  Elec       q    Type
REMARK                         _______ _______ _______ _____ _____    ______ ____
ROOT
ATOM      1  C   UNL     1      48.237   6.603  14.060  0.00  0.00    +0.000 C 
ENDROOT
BRANCH   1   2
ATOM      2  C   UNL     1      47.198   5.753  13.394  0.00  0.00    +0.000 A 
ATOM      3  C   UNL     1      46.518   6.186  12.254  0.00  0.00    +0.000 A 
ATOM      4  C   UNL     1      45.577   5.356  11.647  0.00  0.00    +0.000 A 
ATOM      5  C   UNL     1      45.322   4.106  12.201  0.00  0.00    +0.000 A 
ATOM      6  N   UNL     1      45.952   3.683  13.324  0.00  0.00    +0.000 NA
ATOM      7  C   UNL     1      46.859   4.505  13.895  0.00  0.00    +0.000 A 
BRANCH   5   8
ATOM      8  C   UNL     1      44.330   3.172  11.543  0.00  0.00    +0.000 C 
BRANCH   8   9
ATOM      9  C   UNL     1      44.275   3.362  10.028  0.00  0.00    +0.000 C 
BRANCH   9  10
ATOM     10  O   UNL     1      44.449   2.109   9.350  0.00  0.00    +0.000 OA
BRANCH  10  11
ATOM     11  C   UNL     1      45.509   2.170   8.457  0.00  0.00    +0.000 A 
ATOM     12  C   UNL     1      45.780   3.394   7.870  0.00  0.00    +0.000 A 
ATOM     13  C   UNL     1      46.843   3.473   6.973  0.00  0.00    +0.000 A 
ATOM     14  C   UNL     1      47.593   2.334   6.699  0.00  0.00    +0.000 A 
ATOM     15  C   UNL     1      47.249   1.157   7.337  0.00  0.00    +0.000 A 
ATOM     16  N   UNL     1      46.225   1.050   8.203  0.00  0.00    +0.000 NA
ENDBRANCH  10  11
ENDBRANCH   9  10
ENDBRANCH   8   9
ENDBRANCH   5   8
ENDBRANCH   1   2
BRANCH   1  19
ATOM     17  O   UNL     1      50.217   6.156  16.017  0.00  0.00    +0.000 OA
ATOM     18  C   UNL     1      49.079   6.450  16.376  0.00  0.00    +0.000 C 
ATOM     19  N   UNL     1      48.057   6.648  15.486  0.00  0.00    +0.000 N 
ATOM     20  H   UNL     1      47.185   7.048  15.815  0.00  0.00    +0.000 HD
BRANCH  18  21
ATOM     21  C   UNL     1      48.724   6.547  17.799  0.00  0.00    +0.000 A 
ATOM     22  C   UNL     1      48.922   5.457  18.637  0.00  0.00    +0.000 A 
ATOM     23  S   UNL     1      48.437   5.736  20.249  0.00  0.00    +0.000 S 
ATOM     24  C   UNL     1      47.986   7.338  19.893  0.00  0.00    +0.000 A 
ATOM     25  N   UNL     1      47.505   8.161  20.864  0.00  0.00    +0.000 NA
ATOM     26  C   UNL     1      47.242   9.361  20.465  0.00  0.00    +0.000 A 
ATOM     27  N   UNL     1      47.405   9.810  19.181  0.00  0.00    +0.000 N 
ATOM     28  C   UNL     1      47.809   8.993  18.154  0.00  0.00    +0.000 A 
ATOM     29  O   UNL     1      47.804   9.386  16.991  0.00  0.00    +0.000 OA
ATOM     30  C   UNL     1      48.173   7.647  18.558  0.00  0.00    +0.000 A 
ATOM     31  H   UNL     1      47.147  10.752  18.926  0.00  0.00    +0.000 HD
ENDBRANCH  18  21
ENDBRANCH   1  19
TORSDOF 7
ENDMDL
MODEL 4
REMARK VINA RESULT:    -7.188      2.288      3.387
REMARK INTER + INTRA:         -11.157
REMARK INTER:                 -10.052
REMARK INTRA:                  -1.104
REMARK UNBOUND:                -1.027
REMARK  Name = 
REMARK  7 active torsions:
REMARK  status: ('A' for Active; 'I' for Inactive)
REMARK    1  A    between atoms: C_2  and  C_20
REMARK    2  A    between atoms: N_3  and  C_4
REMARK    3  A    between atoms: C_4  and  C_5
REMARK    4  A    between atoms: C_8  and  C_9
REMARK    5  A    between atoms: C_9  and  C_10
REMARK    6  A    between atoms: C_10  and  O_11
REMARK    7  A    between atoms: O_11  and  C_12
REMARK                            x       y       z     vdW  Elec       q    Type
REMARK                         _______ _______ _______ _____ _____    ______ ____
ROOT
ATOM      1  C   UNL     1      47.456   3.959  15.224  0.00  0.00    +0.000 C 
ENDROOT
BRANCH   1   2
ATOM      2  C   UNL     1      46.641   4.256  14.002  0.00  0.00    +0.000 A 
ATOM      3  C   UNL     1      46.186   3.239  13.160  0.00  0.00    +0.000 A 
ATOM      4  C   UNL     1      45.408   3.553  12.046  0.00  0.00    +0.000 A 
ATOM      5  C   UNL     1      45.106   4.886  11.787  0.00  0.00    +0.000 A 
ATOM      6  N   UNL     1      45.565   5.887  12.578  0.00  0.00    +0.000 NA
ATOM      7  C   UNL     1      46.319   5.558  13.651  0.00  0.00    +0.000 A 
BRANCH   5   8
ATOM      8  C   UNL     1      44.235   5.252  10.605  0.00  0.00    +0.000 C 
BRANCH   8   9
ATOM      9  C   UNL     1      44.194   4.143   9.554  0.00  0.00    +0.000 C 
BRANCH   9  10
ATOM     10  O   UNL     1      44.992   4.491   8.413  0.00  0.00    +0.000 OA
BRANCH  10  11
ATOM     11  C   UNL     1      45.765   3.416   8.001  0.00  0.00    +0.000 A 
ATOM     12  C   UNL     1      46.759   3.665   7.069  0.00  0.00    +0.000 A 
ATOM     13  C   UNL     1      47.546   2.597   6.646  0.00  0.00    +0.000 A 
ATOM     14  C   UNL     1      47.316   1.328   7.168  0.00  0.00    +0.000 A 
ATOM     15  C   UNL     1      46.303   1.178   8.096  0.00  0.00    +0.000 A 
ATOM     16  N   UNL     1      45.524   2.190   8.519  0.00  0.00    +0.000 NA
ENDBRANCH  10  11
ENDBRANCH   9  10
ENDBRANCH   8   9
ENDBRANCH   5   8
ENDBRANCH   1   2
BRANCH   1  19
ATOM     17  O   UNL     1      49.622   4.717  16.862  0.00  0.00    +0.000 OA
ATOM     18  C   UNL     1      48.602   5.403  16.866  0.00  0.00    +0.000 C 
ATOM     19  N   UNL     1      47.498   5.080  16.124  0.00  0.00    +0.000 N 
ATOM     20  H   UNL     1      46.749   5.758  16.031  0.00  0.00    +0.000 HD
BRANCH  18  21
ATOM     21  C   UNL     1      48.480   6.590  17.724  0.00  0.00    +0.000 A 
ATOM     22  C   UNL     1      48.452   6.446  19.104  0.00  0.00    +0.000 A 
ATOM     23  S   UNL     1      48.285   7.922  19.944  0.00  0.00    +0.000 S 
ATOM     24  C   UNL     1      48.288   8.810  18.492  0.00  0.00    +0.000 A 
ATOM     25  N   UNL     1      48.203  10.168  18.503  0.00  0.00    +0.000 NA
ATOM     26  C   UNL     1      48.260  10.716  17.335  0.00  0.00    +0.000 A 
ATOM     27  N   UNL     1      48.381  10.030  16.156  0.00  0.00    +0.000 N 
ATOM     28  C   UNL     1      48.388   8.658  16.091  0.00  0.00    +0.000 A 
ATOM     29  O   UNL     1      48.349   8.073  15.014  0.00  0.00    +0.000 OA
ATOM     30  C   UNL     1      48.384   7.992  17.382  0.00  0.00    +0.000 A 
ATOM     31  H   UNL     1      48.384  10.517  15.271  0.00  0.00    +0.000 HD
ENDBRANCH  18  21
ENDBRANCH   1  19
TORSDOF 7
ENDMDL
MODEL 5
REMARK VINA RESULT:    -7.108      3.410      4.800
REMARK INTER + INTRA:         -11.044
REMARK INTER:                  -9.930
REMARK INTRA:                  -1.114
REMARK UNBOUND:                -1.027
REMARK  Name = 
REMARK  7 active torsions:
REMARK  status: ('A' for Active; 'I' for Inactive)
REMARK    1  A    between atoms: C_2  and  C_20
REMARK    2  A    between atoms: N_3  and  C_4
REMARK    3  A    between atoms: C_4  and  C_5
REMARK    4  A    between atoms: C_8  and  C_9
REMARK    5  A    between atoms: C_9  and  C_10
REMARK    6  A    between atoms: C_10  and  O_11
REMARK    7  A    between atoms: O_11  and  C_12
REMARK                            x       y       z     vdW  Elec       q    Type
REMARK                         _______ _______ _______ _____ _____    ______ ____
ROOT
ATOM      1  C   UNL     1      45.991   8.636  13.256  0.00  0.00    +0.000 C 
ENDROOT
BRANCH   1   2
ATOM      2  C   UNL     1      45.643   7.266  12.759  0.00  0.00    +0.000 A 
ATOM      3  C   UNL     1      44.688   7.069  11.760  0.00  0.00    +0.000 A 
ATOM      4  C   UNL     1      44.411   5.781  11.304  0.00  0.00    +0.000 A 
ATOM      5  C   UNL     1      45.090   4.705  11.868  0.00  0.00    +0.000 A 
ATOM      6  N   UNL     1      45.999   4.877  12.859  0.00  0.00    +0.000 NA
ATOM      7  C   UNL     1      46.249   6.135  13.285  0.00  0.00    +0.000 A 
BRANCH   5   8
ATOM      8  C   UNL     1      44.833   3.300  11.369  0.00  0.00    +0.000 C 
BRANCH   8   9
ATOM      9  C   UNL     1      44.337   3.282   9.923  0.00  0.00    +0.000 C 
BRANCH   9  10
ATOM     10  O   UNL     1      44.567   2.000   9.321  0.00  0.00    +0.000 OA
BRANCH  10  11
ATOM     11  C   UNL     1      45.600   2.063   8.398  0.00  0.00    +0.000 A 
ATOM     12  C   UNL     1      45.828   3.279   7.777  0.00  0.00    +0.000 A 
ATOM     13  C   UNL     1      46.863   3.359   6.848  0.00  0.00    +0.000 A 
ATOM     14  C   UNL     1      47.630   2.231   6.577  0.00  0.00    +0.000 A 
ATOM     15  C   UNL     1      47.329   1.061   7.251  0.00  0.00    +0.000 A 
ATOM     16  N   UNL     1      46.333   0.953   8.148  0.00  0.00    +0.000 NA
ENDBRANCH  10  11
ENDBRANCH   9  10
ENDBRANCH   8   9
ENDBRANCH   5   8
ENDBRANCH   1   2
BRANCH   1  19
ATOM     17  O   UNL     1      46.613  10.667  11.401  0.00  0.00    +0.000 OA
ATOM     18  C   UNL     1      47.529  10.060  11.952  0.00  0.00    +0.000 C 
ATOM     19  N   UNL     1      47.306   9.039  12.837  0.00  0.00    +0.000 N 
ATOM     20  H   UNL     1      48.080   8.683  13.387  0.00  0.00    +0.000 HD
BRANCH  18  21
ATOM     21  C   UNL     1      48.936  10.353  11.644  0.00  0.00    +0.000 A 
ATOM     22  C   UNL     1      49.359  11.670  11.529  0.00  0.00    +0.000 A 
ATOM     23  S   UNL     1      51.015  11.827  11.148  0.00  0.00    +0.000 S 
ATOM     24  C   UNL     1      51.234  10.140  11.165  0.00  0.00    +0.000 A 
ATOM     25  N   UNL     1      52.459   9.591  10.939  0.00  0.00    +0.000 NA
ATOM     26  C   UNL     1      52.491   8.303  11.024  0.00  0.00    +0.000 A 
ATOM     27  N   UNL     1      51.408   7.512  11.302  0.00  0.00    +0.000 N 
ATOM     28  C   UNL     1      50.139   8.015  11.457  0.00  0.00    +0.000 A 
ATOM     29  O   UNL     1      49.169   7.271  11.559  0.00  0.00    +0.000 OA
ATOM     30  C   UNL     1      50.056   9.464  11.428  0.00  0.00    +0.000 A 
ATOM     31  H   UNL     1      51.492   6.506  11.319  0.00  0.00    +0.000 HD
ENDBRANCH  18  21
ENDBRANCH   1  19
TORSDOF 7
ENDMDL
MODEL 6
REMARK VINA RESULT:    -7.079      3.572      5.662
REMARK INTER + INTRA:         -11.003
REMARK INTER:                  -9.823
REMARK INTRA:                  -1.180
REMARK UNBOUND:                -1.027
REMARK  Name = 
REMARK  7 active torsions:
REMARK  status: ('A' for Active; 'I' for Inactive)
REMARK    1  A    between atoms: C_2  and  C_20
REMARK    2  A    between atoms: N_3  and  C_4
REMARK    3  A    between atoms: C_4  and  C_5
REMARK    4  A    between atoms: C_8  and  C_9
REMARK    5  A    between atoms: C_9  and  C_10
REMARK    6  A    between atoms: C_10  and  O_11
REMARK    7  A    between atoms: O_11  and  C_12
REMARK                            x       y       z     vdW  Elec       q    Type
REMARK                         _______ _______ _______ _____ _____    ______ ____
ROOT
ATOM      1  C   UNL     1      48.351   6.679  13.391  0.00  0.00    +0.000 C 
ENDROOT
BRANCH   1   2
ATOM      2  C   UNL     1      47.051   5.946  13.254  0.00  0.00    +0.000 A 
ATOM      3  C   UNL     1      45.881   6.597  12.857  0.00  0.00    +0.000 A 
ATOM      4  C   UNL     1      44.697   5.875  12.715  0.00  0.00    +0.000 A 
ATOM      5  C   UNL     1      44.700   4.511  12.985  0.00  0.00    +0.000 A 
ATOM      6  N   UNL     1      45.821   3.870  13.400  0.00  0.00    +0.000 NA
ATOM      7  C   UNL     1      46.956   4.591  13.532  0.00  0.00    +0.000 A 
BRANCH   5   8
ATOM      8  C   UNL     1      43.437   3.698  12.807  0.00  0.00    +0.000 C 
BRANCH   8   9
ATOM      9  C   UNL     1      43.458   2.874  11.520  0.00  0.00    +0.000 C 
BRANCH   9  10
ATOM     10  O   UNL     1      43.488   3.728  10.368  0.00  0.00    +0.000 OA
BRANCH  10  11
ATOM     11  C   UNL     1      44.446   3.303   9.459  0.00  0.00    +0.000 A 
ATOM     12  C   UNL     1      45.017   4.261   8.638  0.00  0.00    +0.000 A 
ATOM     13  C   UNL     1      45.983   3.851   7.721  0.00  0.00    +0.000 A 
ATOM     14  C   UNL     1      46.343   2.509   7.661  0.00  0.00    +0.000 A 
ATOM     15  C   UNL     1      45.721   1.627   8.524  0.00  0.00    +0.000 A 
ATOM     16  N   UNL     1      44.782   1.993   9.415  0.00  0.00    +0.000 NA
ENDBRANCH  10  11
ENDBRANCH   9  10
ENDBRANCH   8   9
ENDBRANCH   5   8
ENDBRANCH   1   2
BRANCH   1  19
ATOM     17  O   UNL     1      50.078   8.892  13.659  0.00  0.00    +0.000 OA
ATOM     18  C   UNL     1      49.301   8.853  12.708  0.00  0.00    +0.000 C 
ATOM     19  N   UNL     1      48.409   7.830  12.529  0.00  0.00    +0.000 N 
ATOM     20  H   UNL     1      47.909   7.757  11.650  0.00  0.00    +0.000 HD
BRANCH  18  21
ATOM     21  C   UNL     1      49.236   9.946  11.727  0.00  0.00    +0.000 A 
ATOM     22  C   UNL     1      50.397  10.390  11.108  0.00  0.00    +0.000 A 
ATOM     23  S   UNL     1      50.142  11.676  10.016  0.00  0.00    +0.000 S 
ATOM     24  C   UNL     1      48.464  11.656  10.299  0.00  0.00    +0.000 A 
ATOM     25  N   UNL     1      47.633  12.508   9.641  0.00  0.00    +0.000 NA
ATOM     26  C   UNL     1      46.381  12.356   9.919  0.00  0.00    +0.000 A 
ATOM     27  N   UNL     1      45.885  11.437  10.805  0.00  0.00    +0.000 N 
ATOM     28  C   UNL     1      46.692  10.613  11.552  0.00  0.00    +0.000 A 
ATOM     29  O   UNL     1      46.228   9.906  12.440  0.00  0.00    +0.000 OA
ATOM     30  C   UNL     1      48.106  10.703  11.236  0.00  0.00    +0.000 A 
ATOM     31  H   UNL     1      44.897  11.392  11.006  0.00  0.00    +0.000 HD
ENDBRANCH  18  21
ENDBRANCH   1  19
TORSDOF 7
ENDMDL
MODEL 7
REMARK VINA RESULT:    -7.000      4.559      9.182
REMARK INTER + INTRA:         -10.891
REMARK INTER:                 -10.065
REMARK INTRA:                  -0.826
REMARK UNBOUND:                -1.027
REMARK  Name = 
REMARK  7 active torsions:
REMARK  status: ('A' for Active; 'I' for Inactive)
REMARK    1  A    between atoms: C_2  and  C_20
REMARK    2  A    between atoms: N_3  and  C_4
REMARK    3  A    between atoms: C_4  and  C_5
REMARK    4  A    between atoms: C_8  and  C_9
REMARK    5  A    between atoms: C_9  and  C_10
REMARK    6  A    between atoms: C_10  and  O_11
REMARK    7  A    between atoms: O_11  and  C_12
REMARK                            x       y       z     vdW  Elec       q    Type
REMARK                         _______ _______ _______ _____ _____    ______ ____
ROOT
ATOM      1  C   UNL     1      47.187   3.410  17.025  0.00  0.00    +0.000 C 
ENDROOT
BRANCH   1   2
ATOM      2  C   UNL     1      48.644   3.450  17.375  0.00  0.00    +0.000 A 
ATOM      3  C   UNL     1      49.504   2.400  17.047  0.00  0.00    +0.000 A 
ATOM      4  C   UNL     1      50.859   2.485  17.365  0.00  0.00    +0.000 A 
ATOM      5  C   UNL     1      51.329   3.619  18.019  0.00  0.00    +0.000 A 
ATOM      6  N   UNL     1      50.501   4.633  18.371  0.00  0.00    +0.000 NA
ATOM      7  C   UNL     1      49.192   4.528  18.053  0.00  0.00    +0.000 A 
BRANCH   5   8
ATOM      8  C   UNL     1      52.801   3.752  18.346  0.00  0.00    +0.000 C 
BRANCH   8   9
ATOM      9  C   UNL     1      53.610   2.547  17.865  0.00  0.00    +0.000 C 
BRANCH   9  10
ATOM     10  O   UNL     1      53.533   1.471  18.812  0.00  0.00    +0.000 OA
BRANCH  10  11
ATOM     11  C   UNL     1      54.035   0.297  18.271  0.00  0.00    +0.000 A 
ATOM     12  C   UNL     1      54.219   0.254  16.899  0.00  0.00    +0.000 A 
ATOM     13  C   UNL     1      54.725  -0.918  16.340  0.00  0.00    +0.000 A 
ATOM     14  C   UNL     1      55.030  -1.995  17.166  0.00  0.00    +0.000 A 
ATOM     15  C   UNL     1      54.816  -1.856  18.524  0.00  0.00    +0.000 A 
ATOM     16  N   UNL     1      54.324  -0.740  19.091  0.00  0.00    +0.000 NA
ENDBRANCH  10  11
ENDBRANCH   9  10
ENDBRANCH   8   9
ENDBRANCH   5   8
ENDBRANCH   1   2
BRANCH   1  19
ATOM     17  O   UNL     1      47.349   3.058  14.233  0.00  0.00    +0.000 OA
ATOM     18  C   UNL     1      46.927   4.124  14.676  0.00  0.00    +0.000 C 
ATOM     19  N   UNL     1      46.852   4.382  16.019  0.00  0.00    +0.000 N 
ATOM     20  H   UNL     1      46.348   5.202  16.338  0.00  0.00    +0.000 HD
BRANCH  18  21
ATOM     21  C   UNL     1      46.533   5.223  13.784  0.00  0.00    +0.000 A 
ATOM     22  C   UNL     1      47.385   6.305  13.601  0.00  0.00    +0.000 A 
ATOM     23  S   UNL     1      46.761   7.497  12.552  0.00  0.00    +0.000 S 
ATOM     24  C   UNL     1      45.349   6.590  12.272  0.00  0.00    +0.000 A 
ATOM     25  N   UNL     1      44.386   7.040  11.422  0.00  0.00    +0.000 NA
ATOM     26  C   UNL     1      43.389   6.232  11.270  0.00  0.00    +0.000 A 
ATOM     27  N   UNL     1      43.262   5.022  11.898  0.00  0.00    +0.000 N 
ATOM     28  C   UNL     1      44.168   4.566  12.824  0.00  0.00    +0.000 A 
ATOM     29  O   UNL     1      43.952   3.549  13.476  0.00  0.00    +0.000 OA
ATOM     30  C   UNL     1      45.338   5.409  12.991  0.00  0.00    +0.000 A 
ATOM     31  H   UNL     1      42.439   4.453  11.763  0.00  0.00    +0.000 HD
ENDBRANCH  18  21
ENDBRANCH   1  19
TORSDOF 7
ENDMDL
MODEL 8
REMARK VINA RESULT:    -6.982      2.925      8.356
REMARK INTER + INTRA:         -10.866
REMARK INTER:                  -9.514
REMARK INTRA:                  -1.352
REMARK UNBOUND:                -1.027
REMARK  Name = 
REMARK  7 active torsions:
REMARK  status: ('A' for Active; 'I' for Inactive)
REMARK    1  A    between atoms: C_2  and  C_20
REMARK    2  A    between atoms: N_3  and  C_4
REMARK    3  A    between atoms: C_4  and  C_5
REMARK    4  A    between atoms: C_8  and  C_9
REMARK    5  A    between atoms: C_9  and  C_10
REMARK    6  A    between atoms: C_10  and  O_11
REMARK    7  A    between atoms: O_11  and  C_12
REMARK                            x       y       z     vdW  Elec       q    Type
REMARK                         _______ _______ _______ _____ _____    ______ ____
ROOT
ATOM      1  C   UNL     1      47.524   7.871  11.821  0.00  0.00    +0.000 C 
ENDROOT
BRANCH   1   2
ATOM      2  C   UNL     1      48.186   7.940  13.163  0.00  0.00    +0.000 A 
ATOM      3  C   UNL     1      47.844   8.919  14.099  0.00  0.00    +0.000 A 
ATOM      4  C   UNL     1      48.463   8.935  15.348  0.00  0.00    +0.000 A 
ATOM      5  C   UNL     1      49.426   7.974  15.636  0.00  0.00    +0.000 A 
ATOM      6  N   UNL     1      49.791   7.036  14.728  0.00  0.00    +0.000 NA
ATOM      7  C   UNL     1      49.178   7.041  13.524  0.00  0.00    +0.000 A 
BRANCH   5   8
ATOM      8  C   UNL     1      50.090   7.948  16.996  0.00  0.00    +0.000 C 
BRANCH   8   9
ATOM      9  C   UNL     1      50.598   6.554  17.364  0.00  0.00    +0.000 C 
BRANCH   9  10
ATOM     10  O   UNL     1      49.640   5.860  18.175  0.00  0.00    +0.000 OA
BRANCH  10  11
ATOM     11  C   UNL     1      49.275   4.655  17.592  0.00  0.00    +0.000 A 
ATOM     12  C   UNL     1      50.163   3.599  17.700  0.00  0.00    +0.000 A 
ATOM     13  C   UNL     1      49.811   2.381  17.121  0.00  0.00    +0.000 A 
ATOM     14  C   UNL     1      48.591   2.263  16.463  0.00  0.00    +0.000 A 
ATOM     15  C   UNL     1      47.769   3.373  16.410  0.00  0.00    +0.000 A 
ATOM     16  N   UNL     1      48.085   4.562  16.954  0.00  0.00    +0.000 NA
ENDBRANCH  10  11
ENDBRANCH   9  10
ENDBRANCH   8   9
ENDBRANCH   5   8
ENDBRANCH   1   2
BRANCH   1  19
ATOM     17  O   UNL     1      44.738   7.497  12.039  0.00  0.00    +0.000 OA
ATOM     18  C   UNL     1      45.446   6.540  11.733  0.00  0.00    +0.000 C 
ATOM     19  N   UNL     1      46.809   6.635  11.641  0.00  0.00    +0.000 N 
ATOM     20  H   UNL     1      47.332   5.871  11.226  0.00  0.00    +0.000 HD
BRANCH  18  21
ATOM     21  C   UNL     1      44.875   5.205  11.505  0.00  0.00    +0.000 A 
ATOM     22  C   UNL     1      44.155   4.579  12.514  0.00  0.00    +0.000 A 
ATOM     23  S   UNL     1      43.584   3.030  12.087  0.00  0.00    +0.000 S 
ATOM     24  C   UNL     1      44.241   3.158  10.523  0.00  0.00    +0.000 A 
ATOM     25  N   UNL     1      44.082   2.159   9.613  0.00  0.00    +0.000 NA
ATOM     26  C   UNL     1      44.594   2.406   8.453  0.00  0.00    +0.000 A 
ATOM     27  N   UNL     1      45.263   3.555   8.124  0.00  0.00    +0.000 N 
ATOM     28  C   UNL     1      45.518   4.553   9.033  0.00  0.00    +0.000 A 
ATOM     29  O   UNL     1      46.244   5.500   8.748  0.00  0.00    +0.000 OA
ATOM     30  C   UNL     1      44.914   4.352  10.338  0.00  0.00    +0.000 A 
ATOM     31  H   UNL     1      45.672   3.672   7.209  0.00  0.00    +0.000 HD
ENDBRANCH  18  21
ENDBRANCH   1  19
TORSDOF 7
ENDMDL
MODEL 9
REMARK VINA RESULT:    -6.854      3.361      8.179
REMARK INTER + INTRA:         -10.685
REMARK INTER:                  -9.477
REMARK INTRA:                  -1.209
REMARK UNBOUND:                -1.027
REMARK  Name = 
REMARK  7 active torsions:
REMARK  status: ('A' for Active; 'I' for Inactive)
REMARK    1  A    between atoms: C_2  and  C_20
REMARK    2  A    between atoms: N_3  and  C_4
REMARK    3  A    between atoms: C_4  and  C_5
REMARK    4  A    between atoms: C_8  and  C_9
REMARK    5  A    between atoms: C_9  and  C_10
REMARK    6  A    between atoms: C_10  and  O_11
REMARK    7  A    between atoms: O_11  and  C_12
REMARK                            x       y       z     vdW  Elec       q    Type
REMARK                         _______ _______ _______ _____ _____    ______ ____
ROOT
ATOM      1  C   UNL     1      48.331   7.994  12.077  0.00  0.00    +0.000 C 
ENDROOT
BRANCH   1   2
ATOM      2  C   UNL     1      48.960   7.629  13.387  0.00  0.00    +0.000 A 
ATOM      3  C   UNL     1      48.274   6.882  14.346  0.00  0.00    +0.000 A 
ATOM      4  C   UNL     1      48.902   6.539  15.543  0.00  0.00    +0.000 A 
ATOM      5  C   UNL     1      50.208   6.962  15.765  0.00  0.00    +0.000 A 
ATOM      6  N   UNL     1      50.878   7.714  14.857  0.00  0.00    +0.000 NA
ATOM      7  C   UNL     1      50.248   8.034  13.705  0.00  0.00    +0.000 A 
BRANCH   5   8
ATOM      8  C   UNL     1      50.925   6.576  17.040  0.00  0.00    +0.000 C 
BRANCH   8   9
ATOM      9  C   UNL     1      49.960   6.394  18.212  0.00  0.00    +0.000 C 
BRANCH   9  10
ATOM     10  O   UNL     1      50.210   5.154  18.889  0.00  0.00    +0.000 OA
BRANCH  10  11
ATOM     11  C   UNL     1      49.793   4.076  18.122  0.00  0.00    +0.000 A 
ATOM     12  C   UNL     1      50.759   3.172  17.712  0.00  0.00    +0.000 A 
ATOM     13  C   UNL     1      50.357   2.083  16.942  0.00  0.00    +0.000 A 
ATOM     14  C   UNL     1      49.013   1.935  16.615  0.00  0.00    +0.000 A 
ATOM     15  C   UNL     1      48.122   2.887  17.073  0.00  0.00    +0.000 A 
ATOM     16  N   UNL     1      48.482   3.951  17.812  0.00  0.00    +0.000 NA
ENDBRANCH  10  11
ENDBRANCH   9  10
ENDBRANCH   8   9
ENDBRANCH   5   8
ENDBRANCH   1   2
BRANCH   1  19
ATOM     17  O   UNL     1      45.534   7.858  11.752  0.00  0.00    +0.000 OA
ATOM     18  C   UNL     1      46.226   6.919  11.364  0.00  0.00    +0.000 C 
ATOM     19  N   UNL     1      47.586   6.897  11.518  0.00  0.00    +0.000 N 
ATOM     20  H   UNL     1      48.127   6.186  11.038  0.00  0.00    +0.000 HD
BRANCH  18  21
ATOM     21  C   UNL     1      45.624   5.721  10.761  0.00  0.00    +0.000 A 
ATOM     22  C   UNL     1      45.829   5.448   9.415  0.00  0.00    +0.000 A 
ATOM     23  S   UNL     1      45.042   4.033   8.877  0.00  0.00    +0.000 S 
ATOM     24  C   UNL     1      44.436   3.712  10.434  0.00  0.00    +0.000 A 
ATOM     25  N   UNL     1      43.686   2.604  10.678  0.00  0.00    +0.000 NA
ATOM     26  C   UNL     1      43.328   2.462  11.911  0.00  0.00    +0.000 A 
ATOM     27  N   UNL     1      43.641   3.333  12.920  0.00  0.00    +0.000 N 
ATOM     28  C   UNL     1      44.326   4.505  12.705  0.00  0.00    +0.000 A 
ATOM     29  O   UNL     1      44.463   5.333  13.599  0.00  0.00    +0.000 OA
ATOM     30  C   UNL     1      44.802   4.686  11.345  0.00  0.00    +0.000 A 
ATOM     31  H   UNL     1      43.300   3.183  13.858  0.00  0.00    +0.000 HD
ENDBRANCH  18  21
ENDBRANCH   1  19
TORSDOF 7
ENDMDL
