MODEL 1
REMARK VINA RESULT:    -7.913      0.000      0.000
REMARK INTER + INTRA:         -13.657
REMARK INTER:                 -12.076
REMARK INTRA:                  -1.581
REMARK UNBOUND:                -1.581
REMARK  Name = 
REMARK  10 active torsions:
REMARK  status: ('A' for Active; 'I' for Inactive)
REMARK    1  A    between atoms: C_1  and  C_2
REMARK    2  A    between atoms: C_2  and  S_3
REMARK    3  A    between atoms: S_3  and  C_6
REMARK    4  A    between atoms: C_13  and  C_14
REMARK    5  A    between atoms: N_16  and  C_17
REMARK    6  A    between atoms: C_17  and  C_18
REMARK    7  A    between atoms: C_21  and  N_22
REMARK    8  A    between atoms: N_22  and  C_23
REMARK    9  A    between atoms: C_23  and  C_24
REMARK   10  A    between atoms: C_24  and  C_25
REMARK                            x       y       z     vdW  Elec       q    Type
REMARK                         _______ _______ _______ _____ _____    ______ ____
ROOT
ATOM      1  C   UNL     1      48.728   8.220  15.594  0.00  0.00    +0.000 C 
ATOM      2  O   UNL     1      49.449   9.013  14.995  0.00  0.00    +0.000 OA
ATOM      3  N   UNL     1      48.046   7.223  14.926  0.00  0.00    +0.000 N 
ATOM      4  H   UNL     1      47.838   6.406  15.477  0.00  0.00    +0.000 HD
ENDROOT
BRANCH   1  12
ATOM      5  C   UNL     1      48.346   6.126  18.475  0.00  0.00    +0.000 A 
ATOM      6  C   UNL     1      48.021   5.652  19.749  0.00  0.00    +0.000 A 
ATOM      7  N   UNL     1      47.698   6.428  20.794  0.00  0.00    +0.000 NA
ATOM      8  C   UNL     1      47.666   7.759  20.614  0.00  0.00    +0.000 A 
ATOM      9  C   UNL     1      47.954   8.309  19.356  0.00  0.00    +0.000 A 
ATOM     10  S   UNL     1      47.973   9.997  19.050  0.00  0.00    +0.000 S 
ATOM     11  C   UNL     1      48.369   9.752  17.431  0.00  0.00    +0.000 A 
ATOM     12  C   UNL     1      48.446   8.422  17.040  0.00  0.00    +0.000 A 
ATOM     13  C   UNL     1      48.267   7.531  18.220  0.00  0.00    +0.000 A 
BRANCH   5  14
ATOM     14  S   UNL     1      48.755   4.858  17.326  0.00  0.00    +0.000 S 
ATOM     15  O   UNL     1      49.984   5.263  16.671  0.00  0.00    +0.000 OA
ATOM     16  O   UNL     1      47.567   4.615  16.541  0.00  0.00    +0.000 OA
BRANCH  14  18
ATOM     17  C   UNL     1      49.815   2.399  17.212  0.00  0.00    +0.000 C 
ATOM     18  C   UNL     1      49.188   3.380  18.198  0.00  0.00    +0.000 C 
ENDBRANCH  14  18
ENDBRANCH   5  14
ENDBRANCH   1  12
BRANCH   3  19
ATOM     19  C   UNL     1      48.386   6.928  13.541  0.00  0.00    +0.000 C 
BRANCH  19  20
ATOM     20  C   UNL     1      47.287   6.156  12.852  0.00  0.00    +0.000 A 
ATOM     21  C   UNL     1      46.872   6.546  11.575  0.00  0.00    +0.000 A 
ATOM     22  C   UNL     1      45.801   5.906  10.939  0.00  0.00    +0.000 A 
ATOM     23  C   UNL     1      45.127   4.834  11.533  0.00  0.00    +0.000 A 
ATOM     24  C   UNL     1      45.553   4.441  12.811  0.00  0.00    +0.000 A 
ATOM     25  C   UNL     1      46.625   5.083  13.460  0.00  0.00    +0.000 A 
BRANCH  23  26
ATOM     26  N   UNL     1      43.988   4.243  10.962  0.00  0.00    +0.000 N 
ATOM     27  H   UNL     1      43.513   3.600  11.588  0.00  0.00    +0.000 HD
BRANCH  26  28
ATOM     28  C   UNL     1      44.068   3.806   9.561  0.00  0.00    +0.000 C 
BRANCH  28  29
ATOM     29  C   UNL     1      44.729   2.428   9.426  0.00  0.00    +0.000 C 
BRANCH  29  30
ATOM     30  C   UNL     1      45.706   2.399   8.270  0.00  0.00    +0.000 A 
ATOM     31  C   UNL     1      46.469   1.249   8.017  0.00  0.00    +0.000 A 
ATOM     32  C   UNL     1      47.399   1.227   6.973  0.00  0.00    +0.000 A 
ATOM     33  C   UNL     1      47.577   2.354   6.175  0.00  0.00    +0.000 A 
ATOM     34  C   UNL     1      46.828   3.505   6.420  0.00  0.00    +0.000 A 
ATOM     35  C   UNL     1      45.899   3.529   7.464  0.00  0.00    +0.000 A 
ENDBRANCH  29  30
ENDBRANCH  28  29
ENDBRANCH  26  28
ENDBRANCH  23  26
ENDBRANCH  19  20
ENDBRANCH   3  19
TORSDOF 9
ENDMDL
MODEL 2
REMARK VINA RESULT:    -7.411      1.876      2.571
REMARK INTER + INTRA:         -12.891
REMARK INTER:                 -11.671
REMARK INTRA:                  -1.220
REMARK UNBOUND:                -1.581
REMARK  Name = 
REMARK  10 active torsions:
REMARK  status: ('A' for Active; 'I' for Inactive)
REMARK    1  A    between atoms: C_1  and  C_2
REMARK    2  A    between atoms: C_2  and  S_3
REMARK    3  A    between atoms: S_3  and  C_6
REMARK    4  A    between atoms: C_13  and  C_14
REMARK    5  A    between atoms: N_16  and  C_17
REMARK    6  A    between atoms: C_17  and  C_18
REMARK    7  A    between atoms: C_21  and  N_22
REMARK    8  A    between atoms: N_22  and  C_23
REMARK    9  A    between atoms: C_23  and  C_24
REMARK   10  A    between atoms: C_24  and  C_25
REMARK                            x       y       z     vdW  Elec       q    Type
REMARK                         _______ _______ _______ _____ _____    ______ ____
ROOT
ATOM      1  C   UNL     1      48.403   6.489  14.509  0.00  0.00    +0.000 C 
ATOM      2  O   UNL     1      49.019   6.170  13.496  0.00  0.00    +0.000 OA
ATOM      3  N   UNL     1      47.301   5.773  14.935  0.00  0.00    +0.000 N 
ATOM      4  H   UNL     1      47.121   5.817  15.925  0.00  0.00    +0.000 HD
ENDROOT
BRANCH   1  12
ATOM      5  C   UNL     1      49.603   7.417  17.753  0.00  0.00    +0.000 A 
ATOM      6  C   UNL     1      49.925   8.148  18.900  0.00  0.00    +0.000 A 
ATOM      7  N   UNL     1      49.964   9.488  18.967  0.00  0.00    +0.000 NA
ATOM      8  C   UNL     1      49.658  10.190  17.865  0.00  0.00    +0.000 A 
ATOM      9  C   UNL     1      49.297   9.528  16.682  0.00  0.00    +0.000 A 
ATOM     10  S   UNL     1      48.928  10.347  15.220  0.00  0.00    +0.000 S 
ATOM     11  C   UNL     1      48.631   8.895  14.421  0.00  0.00    +0.000 A 
ATOM     12  C   UNL     1      48.735   7.758  15.210  0.00  0.00    +0.000 A 
ATOM     13  C   UNL     1      49.211   8.122  16.573  0.00  0.00    +0.000 A 
BRANCH   5  14
ATOM     14  S   UNL     1      49.671   5.674  17.978  0.00  0.00    +0.000 S 
ATOM     15  O   UNL     1      50.685   5.172  17.070  0.00  0.00    +0.000 OA
ATOM     16  O   UNL     1      48.313   5.192  17.878  0.00  0.00    +0.000 OA
BRANCH  14  18
ATOM     17  C   UNL     1      49.147   4.838  20.470  0.00  0.00    +0.000 C 
ATOM     18  C   UNL     1      50.303   5.304  19.590  0.00  0.00    +0.000 C 
ENDBRANCH  14  18
ENDBRANCH   5  14
ENDBRANCH   1  12
BRANCH   3  19
ATOM     19  C   UNL     1      47.021   4.472  14.344  0.00  0.00    +0.000 C 
BRANCH  19  20
ATOM     20  C   UNL     1      46.141   4.594  13.124  0.00  0.00    +0.000 A 
ATOM     21  C   UNL     1      45.587   3.441  12.560  0.00  0.00    +0.000 A 
ATOM     22  C   UNL     1      44.834   3.505  11.382  0.00  0.00    +0.000 A 
ATOM     23  C   UNL     1      44.575   4.721  10.740  0.00  0.00    +0.000 A 
ATOM     24  C   UNL     1      45.127   5.876  11.314  0.00  0.00    +0.000 A 
ATOM     25  C   UNL     1      45.891   5.819  12.496  0.00  0.00    +0.000 A 
BRANCH  23  26
ATOM     26  N   UNL     1      43.910   4.802   9.506  0.00  0.00    +0.000 N 
ATOM     27  H   UNL     1      42.903   4.899   9.598  0.00  0.00    +0.000 HD
BRANCH  26  28
ATOM     28  C   UNL     1      44.356   3.915   8.423  0.00  0.00    +0.000 C 
BRANCH  28  29
ATOM     29  C   UNL     1      45.813   4.183   8.025  0.00  0.00    +0.000 C 
BRANCH  29  30
ATOM     30  C   UNL     1      46.389   3.025   7.238  0.00  0.00    +0.000 A 
ATOM     31  C   UNL     1      46.704   3.178   5.879  0.00  0.00    +0.000 A 
ATOM     32  C   UNL     1      47.203   2.104   5.138  0.00  0.00    +0.000 A 
ATOM     33  C   UNL     1      47.389   0.864   5.746  0.00  0.00    +0.000 A 
ATOM     34  C   UNL     1      47.075   0.697   7.094  0.00  0.00    +0.000 A 
ATOM     35  C   UNL     1      46.574   1.771   7.837  0.00  0.00    +0.000 A 
ENDBRANCH  29  30
ENDBRANCH  28  29
ENDBRANCH  26  28
ENDBRANCH  23  26
ENDBRANCH  19  20
ENDBRANCH   3  19
TORSDOF 9
ENDMDL
MODEL 3
REMARK VINA RESULT:    -7.208      2.564      4.208
REMARK INTER + INTRA:         -12.581
REMARK INTER:                 -11.093
REMARK INTRA:                  -1.488
REMARK UNBOUND:                -1.581
REMARK  Name = 
REMARK  10 active torsions:
REMARK  status: ('A' for Active; 'I' for Inactive)
REMARK    1  A    between atoms: C_1  and  C_2
REMARK    2  A    between atoms: C_2  and  S_3
REMARK    3  A    between atoms: S_3  and  C_6
REMARK    4  A    between atoms: C_13  and  C_14
REMARK    5  A    between atoms: N_16  and  C_17
REMARK    6  A    between atoms: C_17  and  C_18
REMARK    7  A    between atoms: C_21  and  N_22
REMARK    8  A    between atoms: N_22  and  C_23
REMARK    9  A    between atoms: C_23  and  C_24
REMARK   10  A    between atoms: C_24  and  C_25
REMARK                            x       y       z     vdW  Elec       q    Type
REMARK                         _______ _______ _______ _____ _____    ______ ____
ROOT
ATOM      1  C   UNL     1      48.237   5.375  16.420  0.00  0.00    +0.000 C 
ATOM      2  O   UNL     1      47.668   4.990  17.437  0.00  0.00    +0.000 OA
ATOM      3  N   UNL     1      47.719   5.119  15.165  0.00  0.00    +0.000 N 
ATOM      4  H   UNL     1      47.979   5.781  14.453  0.00  0.00    +0.000 HD
ENDROOT
BRANCH   1  12
ATOM      5  C   UNL     1      50.212   7.606  14.433  0.00  0.00    +0.000 A 
ATOM      6  C   UNL     1      51.285   8.323  13.894  0.00  0.00    +0.000 A 
ATOM      7  N   UNL     1      52.484   8.459  14.480  0.00  0.00    +0.000 NA
ATOM      8  C   UNL     1      52.688   7.855  15.662  0.00  0.00    +0.000 A 
ATOM      9  C   UNL     1      51.668   7.095  16.254  0.00  0.00    +0.000 A 
ATOM     10  S   UNL     1      51.831   6.324  17.778  0.00  0.00    +0.000 S 
ATOM     11  C   UNL     1      50.269   5.701  17.689  0.00  0.00    +0.000 A 
ATOM     12  C   UNL     1      49.589   5.988  16.514  0.00  0.00    +0.000 A 
ATOM     13  C   UNL     1      50.402   6.897  15.660  0.00  0.00    +0.000 A 
BRANCH   5  14
ATOM     14  S   UNL     1      48.762   7.643  13.438  0.00  0.00    +0.000 S 
ATOM     15  O   UNL     1      47.670   8.056  14.300  0.00  0.00    +0.000 OA
ATOM     16  O   UNL     1      48.698   6.371  12.756  0.00  0.00    +0.000 OA
BRANCH  14  18
ATOM     17  C   UNL     1      47.508   9.548  12.030  0.00  0.00    +0.000 C 
ATOM     18  C   UNL     1      48.891   8.940  12.240  0.00  0.00    +0.000 C 
ENDBRANCH  14  18
ENDBRANCH   5  14
ENDBRANCH   1  12
BRANCH   3  19
ATOM     19  C   UNL     1      46.353   4.628  15.042  0.00  0.00    +0.000 C 
BRANCH  19  20
ATOM     20  C   UNL     1      45.866   4.695  13.614  0.00  0.00    +0.000 A 
ATOM     21  C   UNL     1      45.497   5.930  13.073  0.00  0.00    +0.000 A 
ATOM     22  C   UNL     1      44.963   6.020  11.782  0.00  0.00    +0.000 A 
ATOM     23  C   UNL     1      44.811   4.892  10.968  0.00  0.00    +0.000 A 
ATOM     24  C   UNL     1      45.191   3.656  11.513  0.00  0.00    +0.000 A 
ATOM     25  C   UNL     1      45.722   3.556  12.814  0.00  0.00    +0.000 A 
BRANCH  23  26
ATOM     26  N   UNL     1      44.186   4.940   9.711  0.00  0.00    +0.000 N 
ATOM     27  H   UNL     1      43.195   5.153   9.764  0.00  0.00    +0.000 HD
BRANCH  26  28
ATOM     28  C   UNL     1      44.555   3.921   8.719  0.00  0.00    +0.000 C 
BRANCH  28  29
ATOM     29  C   UNL     1      45.881   4.253   8.021  0.00  0.00    +0.000 C 
BRANCH  29  30
ATOM     30  C   UNL     1      46.395   3.071   7.228  0.00  0.00    +0.000 A 
ATOM     31  C   UNL     1      46.579   1.826   7.850  0.00  0.00    +0.000 A 
ATOM     32  C   UNL     1      47.086   0.740   7.133  0.00  0.00    +0.000 A 
ATOM     33  C   UNL     1      47.417   0.886   5.787  0.00  0.00    +0.000 A 
ATOM     34  C   UNL     1      47.244   2.119   5.159  0.00  0.00    +0.000 A 
ATOM     35  C   UNL     1      46.738   3.207   5.876  0.00  0.00    +0.000 A 
ENDBRANCH  29  30
ENDBRANCH  28  29
ENDBRANCH  26  28
ENDBRANCH  23  26
ENDBRANCH  19  20
ENDBRANCH   3  19
TORSDOF 9
ENDMDL
MODEL 4
REMARK VINA RESULT:    -7.152      2.424      3.042
REMARK INTER + INTRA:         -12.496
REMARK INTER:                 -10.947
REMARK INTRA:                  -1.548
REMARK UNBOUND:                -1.581
REMARK  Name = 
REMARK  10 active torsions:
REMARK  status: ('A' for Active; 'I' for Inactive)
REMARK    1  A    between atoms: C_1  and  C_2
REMARK    2  A    between atoms: C_2  and  S_3
REMARK    3  A    between atoms: S_3  and  C_6
REMARK    4  A    between atoms: C_13  and  C_14
REMARK    5  A    between atoms: N_16  and  C_17
REMARK    6  A    between atoms: C_17  and  C_18
REMARK    7  A    between atoms: C_21  and  N_22
REMARK    8  A    between atoms: N_22  and  C_23
REMARK    9  A    between atoms: C_23  and  C_24
REMARK   10  A    between atoms: C_24  and  C_25
REMARK                            x       y       z     vdW  Elec       q    Type
REMARK                         _______ _______ _______ _____ _____    ______ ____
ROOT
ATOM      1  C   UNL     1      50.184   7.735  15.199  0.00  0.00    +0.000 C 
ATOM      2  O   UNL     1      49.611   8.652  15.780  0.00  0.00    +0.000 OA
ATOM      3  N   UNL     1      49.723   7.249  13.991  0.00  0.00    +0.000 N 
ATOM      4  H   UNL     1      50.426   6.830  13.404  0.00  0.00    +0.000 HD
ENDROOT
BRANCH   1  12
ATOM      5  C   UNL     1      50.488   5.020  17.516  0.00  0.00    +0.000 A 
ATOM      6  C   UNL     1      50.985   4.121  18.464  0.00  0.00    +0.000 A 
ATOM      7  N   UNL     1      52.284   3.965  18.762  0.00  0.00    +0.000 NA
ATOM      8  C   UNL     1      53.182   4.733  18.122  0.00  0.00    +0.000 A 
ATOM      9  C   UNL     1      52.757   5.678  17.176  0.00  0.00    +0.000 A 
ATOM     10  S   UNL     1      53.838   6.671  16.287  0.00  0.00    +0.000 S 
ATOM     11  C   UNL     1      52.566   7.422  15.480  0.00  0.00    +0.000 A 
ATOM     12  C   UNL     1      51.298   7.015  15.871  0.00  0.00    +0.000 A 
ATOM     13  C   UNL     1      51.400   5.900  16.854  0.00  0.00    +0.000 A 
BRANCH   5  14
ATOM     14  S   UNL     1      48.739   4.964  17.331  0.00  0.00    +0.000 S 
ATOM     15  O   UNL     1      48.462   5.092  15.913  0.00  0.00    +0.000 OA
ATOM     16  O   UNL     1      48.196   5.927  18.261  0.00  0.00    +0.000 OA
BRANCH  14  18
ATOM     17  C   UNL     1      48.512   2.388  16.625  0.00  0.00    +0.000 C 
ATOM     18  C   UNL     1      48.146   3.351  17.751  0.00  0.00    +0.000 C 
ENDBRANCH  14  18
ENDBRANCH   5  14
ENDBRANCH   1  12
BRANCH   3  19
ATOM     19  C   UNL     1      48.714   7.999  13.257  0.00  0.00    +0.000 C 
BRANCH  19  20
ATOM     20  C   UNL     1      47.473   7.173  13.019  0.00  0.00    +0.000 A 
ATOM     21  C   UNL     1      46.248   7.818  12.818  0.00  0.00    +0.000 A 
ATOM     22  C   UNL     1      45.064   7.086  12.676  0.00  0.00    +0.000 A 
ATOM     23  C   UNL     1      45.057   5.687  12.693  0.00  0.00    +0.000 A 
ATOM     24  C   UNL     1      46.289   5.045  12.887  0.00  0.00    +0.000 A 
ATOM     25  C   UNL     1      47.485   5.774  13.037  0.00  0.00    +0.000 A 
BRANCH  23  26
ATOM     26  N   UNL     1      43.873   4.933  12.654  0.00  0.00    +0.000 N 
ATOM     27  H   UNL     1      43.838   4.205  13.363  0.00  0.00    +0.000 HD
BRANCH  26  28
ATOM     28  C   UNL     1      43.342   4.551  11.339  0.00  0.00    +0.000 C 
BRANCH  28  29
ATOM     29  C   UNL     1      43.802   3.148  10.919  0.00  0.00    +0.000 C 
BRANCH  29  30
ATOM     30  C   UNL     1      44.705   3.207   9.705  0.00  0.00    +0.000 A 
ATOM     31  C   UNL     1      45.178   2.025   9.116  0.00  0.00    +0.000 A 
ATOM     32  C   UNL     1      46.039   2.073   8.017  0.00  0.00    +0.000 A 
ATOM     33  C   UNL     1      46.439   3.302   7.497  0.00  0.00    +0.000 A 
ATOM     34  C   UNL     1      45.980   4.484   8.077  0.00  0.00    +0.000 A 
ATOM     35  C   UNL     1      45.120   4.438   9.178  0.00  0.00    +0.000 A 
ENDBRANCH  29  30
ENDBRANCH  28  29
ENDBRANCH  26  28
ENDBRANCH  23  26
ENDBRANCH  19  20
ENDBRANCH   3  19
TORSDOF 9
ENDMDL
MODEL 5
REMARK VINA RESULT:    -6.914      2.510      4.409
REMARK INTER + INTRA:         -12.133
REMARK INTER:                 -10.933
REMARK INTRA:                  -1.201
REMARK UNBOUND:                -1.581
REMARK  Name = 
REMARK  10 active torsions:
REMARK  status: ('A' for Active; 'I' for Inactive)
REMARK    1  A    between atoms: C_1  and  C_2
REMARK    2  A    between atoms: C_2  and  S_3
REMARK    3  A    between atoms: S_3  and  C_6
REMARK    4  A    between atoms: C_13  and  C_14
REMARK    5  A    between atoms: N_16  and  C_17
REMARK    6  A    between atoms: C_17  and  C_18
REMARK    7  A    between atoms: C_21  and  N_22
REMARK    8  A    between atoms: N_22  and  C_23
REMARK    9  A    between atoms: C_23  and  C_24
REMARK   10  A    between atoms: C_24  and  C_25
REMARK                            x       y       z     vdW  Elec       q    Type
REMARK                         _______ _______ _______ _____ _____    ______ ____
ROOT
ATOM      1  C   UNL     1      48.751   7.308  15.410  0.00  0.00    +0.000 C 
ATOM      2  O   UNL     1      49.574   6.482  15.795  0.00  0.00    +0.000 OA
ATOM      3  N   UNL     1      47.811   6.992  14.449  0.00  0.00    +0.000 N 
ATOM      4  H   UNL     1      46.961   7.530  14.491  0.00  0.00    +0.000 HD
ENDROOT
BRANCH   1  12
ATOM      5  C   UNL     1      49.970  10.377  14.025  0.00  0.00    +0.000 A 
ATOM      6  C   UNL     1      50.436  11.688  13.882  0.00  0.00    +0.000 A 
ATOM      7  N   UNL     1      50.321  12.645  14.815  0.00  0.00    +0.000 NA
ATOM      8  C   UNL     1      49.733  12.333  15.981  0.00  0.00    +0.000 A 
ATOM      9  C   UNL     1      49.264  11.030  16.209  0.00  0.00    +0.000 A 
ATOM     10  S   UNL     1      48.468  10.556  17.653  0.00  0.00    +0.000 S 
ATOM     11  C   UNL     1      48.289   8.977  17.099  0.00  0.00    +0.000 A 
ATOM     12  C   UNL     1      48.856   8.722  15.858  0.00  0.00    +0.000 A 
ATOM     13  C   UNL     1      49.392   9.982  15.271  0.00  0.00    +0.000 A 
BRANCH   5  14
ATOM     14  S   UNL     1      50.242   9.368  12.610  0.00  0.00    +0.000 S 
ATOM     15  O   UNL     1      50.687   8.075  13.095  0.00  0.00    +0.000 OA
ATOM     16  O   UNL     1      51.083  10.130  11.716  0.00  0.00    +0.000 OA
BRANCH  14  18
ATOM     17  C   UNL     1      47.940  10.343  11.646  0.00  0.00    +0.000 C 
ATOM     18  C   UNL     1      48.699   9.031  11.811  0.00  0.00    +0.000 C 
ENDBRANCH  14  18
ENDBRANCH   5  14
ENDBRANCH   1  12
BRANCH   3  19
ATOM     19  C   UNL     1      47.608   5.599  14.077  0.00  0.00    +0.000 C 
BRANCH  19  20
ATOM     20  C   UNL     1      46.567   5.460  12.992  0.00  0.00    +0.000 A 
ATOM     21  C   UNL     1      45.872   4.254  12.859  0.00  0.00    +0.000 A 
ATOM     22  C   UNL     1      44.960   4.060  11.815  0.00  0.00    +0.000 A 
ATOM     23  C   UNL     1      44.679   5.068  10.887  0.00  0.00    +0.000 A 
ATOM     24  C   UNL     1      45.373   6.279  11.030  0.00  0.00    +0.000 A 
ATOM     25  C   UNL     1      46.297   6.480  12.074  0.00  0.00    +0.000 A 
BRANCH  23  26
ATOM     26  N   UNL     1      43.846   4.866   9.774  0.00  0.00    +0.000 N 
ATOM     27  H   UNL     1      42.862   4.798  10.017  0.00  0.00    +0.000 HD
BRANCH  26  28
ATOM     28  C   UNL     1      44.299   3.931   8.735  0.00  0.00    +0.000 C 
BRANCH  28  29
ATOM     29  C   UNL     1      45.706   4.274   8.228  0.00  0.00    +0.000 C 
BRANCH  29  30
ATOM     30  C   UNL     1      46.286   3.141   7.410  0.00  0.00    +0.000 A 
ATOM     31  C   UNL     1      46.471   1.874   7.984  0.00  0.00    +0.000 A 
ATOM     32  C   UNL     1      47.038   0.833   7.245  0.00  0.00    +0.000 A 
ATOM     33  C   UNL     1      47.430   1.048   5.925  0.00  0.00    +0.000 A 
ATOM     34  C   UNL     1      47.257   2.303   5.345  0.00  0.00    +0.000 A 
ATOM     35  C   UNL     1      46.691   3.347   6.084  0.00  0.00    +0.000 A 
ENDBRANCH  29  30
ENDBRANCH  28  29
ENDBRANCH  26  28
ENDBRANCH  23  26
ENDBRANCH  19  20
ENDBRANCH   3  19
TORSDOF 9
ENDMDL
MODEL 6
REMARK VINA RESULT:    -6.698      3.669      8.944
REMARK INTER + INTRA:         -11.803
REMARK INTER:                  -8.797
REMARK INTRA:                  -3.006
REMARK UNBOUND:                -1.581
REMARK  Name = 
REMARK  10 active torsions:
REMARK  status: ('A' for Active; 'I' for Inactive)
REMARK    1  A    between atoms: C_1  and  C_2
REMARK    2  A    between atoms: C_2  and  S_3
REMARK    3  A    between atoms: S_3  and  C_6
REMARK    4  A    between atoms: C_13  and  C_14
REMARK    5  A    between atoms: N_16  and  C_17
REMARK    6  A    between atoms: C_17  and  C_18
REMARK    7  A    between atoms: C_21  and  N_22
REMARK    8  A    between atoms: N_22  and  C_23
REMARK    9  A    between atoms: C_23  and  C_24
REMARK   10  A    between atoms: C_24  and  C_25
REMARK                            x       y       z     vdW  Elec       q    Type
REMARK                         _______ _______ _______ _____ _____    ______ ____
ROOT
ATOM      1  C   UNL     1      46.864   4.304  14.233  0.00  0.00    +0.000 C 
ATOM      2  O   UNL     1      47.604   3.497  13.677  0.00  0.00    +0.000 OA
ATOM      3  N   UNL     1      46.703   4.305  15.604  0.00  0.00    +0.000 N 
ATOM      4  H   UNL     1      46.447   5.194  16.003  0.00  0.00    +0.000 HD
ENDROOT
BRANCH   1  12
ATOM      5  C   UNL     1      47.057   7.641  12.946  0.00  0.00    +0.000 A 
ATOM      6  C   UNL     1      46.724   8.886  12.404  0.00  0.00    +0.000 A 
ATOM      7  N   UNL     1      45.568   9.165  11.783  0.00  0.00    +0.000 NA
ATOM      8  C   UNL     1      44.648   8.193  11.681  0.00  0.00    +0.000 A 
ATOM      9  C   UNL     1      44.898   6.923  12.224  0.00  0.00    +0.000 A 
ATOM     10  S   UNL     1      43.794   5.615  12.106  0.00  0.00    +0.000 S 
ATOM     11  C   UNL     1      44.826   4.598  12.963  0.00  0.00    +0.000 A 
ATOM     12  C   UNL     1      45.994   5.194  13.419  0.00  0.00    +0.000 A 
ATOM     13  C   UNL     1      46.085   6.593  12.914  0.00  0.00    +0.000 A 
BRANCH   5  14
ATOM     14  S   UNL     1      48.661   7.584  13.666  0.00  0.00    +0.000 S 
ATOM     15  O   UNL     1      49.228   8.913  13.536  0.00  0.00    +0.000 OA
ATOM     16  O   UNL     1      49.337   6.451  13.076  0.00  0.00    +0.000 OA
BRANCH  14  18
ATOM     17  C   UNL     1      49.837   6.752  15.926  0.00  0.00    +0.000 C 
ATOM     18  C   UNL     1      48.523   7.333  15.413  0.00  0.00    +0.000 C 
ENDBRANCH  14  18
ENDBRANCH   5  14
ENDBRANCH   1  12
BRANCH   3  19
ATOM     19  C   UNL     1      47.618   3.532  16.433  0.00  0.00    +0.000 C 
BRANCH  19  20
ATOM     20  C   UNL     1      47.905   4.227  17.742  0.00  0.00    +0.000 A 
ATOM     21  C   UNL     1      47.050   5.243  18.181  0.00  0.00    +0.000 A 
ATOM     22  C   UNL     1      47.329   5.965  19.347  0.00  0.00    +0.000 A 
ATOM     23  C   UNL     1      48.448   5.681  20.138  0.00  0.00    +0.000 A 
ATOM     24  C   UNL     1      49.297   4.655  19.698  0.00  0.00    +0.000 A 
ATOM     25  C   UNL     1      49.027   3.928  18.522  0.00  0.00    +0.000 A 
BRANCH  23  26
ATOM     26  N   UNL     1      48.804   6.455  21.255  0.00  0.00    +0.000 N 
ATOM     27  H   UNL     1      48.290   6.207  22.095  0.00  0.00    +0.000 HD
BRANCH  26  28
ATOM     28  C   UNL     1      49.020   7.895  21.055  0.00  0.00    +0.000 C 
BRANCH  28  29
ATOM     29  C   UNL     1      50.141   8.173  20.045  0.00  0.00    +0.000 C 
BRANCH  29  30
ATOM     30  C   UNL     1      49.669   9.093  18.940  0.00  0.00    +0.000 A 
ATOM     31  C   UNL     1      48.301   9.349  18.768  0.00  0.00    +0.000 A 
ATOM     32  C   UNL     1      47.855  10.170  17.729  0.00  0.00    +0.000 A 
ATOM     33  C   UNL     1      48.772  10.740  16.848  0.00  0.00    +0.000 A 
ATOM     34  C   UNL     1      50.134  10.488  17.005  0.00  0.00    +0.000 A 
ATOM     35  C   UNL     1      50.582   9.666  18.044  0.00  0.00    +0.000 A 
ENDBRANCH  29  30
ENDBRANCH  28  29
ENDBRANCH  26  28
ENDBRANCH  23  26
ENDBRANCH  19  20
ENDBRANCH   3  19
TORSDOF 9
ENDMDL
MODEL 7
REMARK VINA RESULT:    -6.563      3.664      8.903
REMARK INTER + INTRA:         -11.597
REMARK INTER:                  -8.769
REMARK INTRA:                  -2.828
REMARK UNBOUND:                -1.581
REMARK  Name = 
REMARK  10 active torsions:
REMARK  status: ('A' for Active; 'I' for Inactive)
REMARK    1  A    between atoms: C_1  and  C_2
REMARK    2  A    between atoms: C_2  and  S_3
REMARK    3  A    between atoms: S_3  and  C_6
REMARK    4  A    between atoms: C_13  and  C_14
REMARK    5  A    between atoms: N_16  and  C_17
REMARK    6  A    between atoms: C_17  and  C_18
REMARK    7  A    between atoms: C_21  and  N_22
REMARK    8  A    between atoms: N_22  and  C_23
REMARK    9  A    between atoms: C_23  and  C_24
REMARK   10  A    between atoms: C_24  and  C_25
REMARK                            x       y       z     vdW  Elec       q    Type
REMARK                         _______ _______ _______ _____ _____    ______ ____
ROOT
ATOM      1  C   UNL     1      46.661   4.134  14.276  0.00  0.00    +0.000 C 
ATOM      2  O   UNL     1      47.216   3.163  13.769  0.00  0.00    +0.000 OA
ATOM      3  N   UNL     1      46.628   4.309  15.646  0.00  0.00    +0.000 N 
ATOM      4  H   UNL     1      46.547   5.265  15.952  0.00  0.00    +0.000 HD
ENDROOT
BRANCH   1  12
ATOM      5  C   UNL     1      47.031   7.477  13.045  0.00  0.00    +0.000 A 
ATOM      6  C   UNL     1      46.769   8.738  12.502  0.00  0.00    +0.000 A 
ATOM      7  N   UNL     1      45.659   9.061  11.821  0.00  0.00    +0.000 NA
ATOM      8  C   UNL     1      44.716   8.119  11.655  0.00  0.00    +0.000 A 
ATOM      9  C   UNL     1      44.895   6.837  12.195  0.00  0.00    +0.000 A 
ATOM     10  S   UNL     1      43.759   5.566  11.997  0.00  0.00    +0.000 S 
ATOM     11  C   UNL     1      44.709   4.507  12.898  0.00  0.00    +0.000 A 
ATOM     12  C   UNL     1      45.867   5.060  13.426  0.00  0.00    +0.000 A 
ATOM     13  C   UNL     1      46.030   6.461  12.946  0.00  0.00    +0.000 A 
BRANCH   5  14
ATOM     14  S   UNL     1      48.589   7.361  13.853  0.00  0.00    +0.000 S 
ATOM     15  O   UNL     1      49.465   6.611  12.972  0.00  0.00    +0.000 OA
ATOM     16  O   UNL     1      48.326   6.877  15.188  0.00  0.00    +0.000 OA
BRANCH  14  18
ATOM     17  C   UNL     1      49.096   9.525  15.351  0.00  0.00    +0.000 C 
ATOM     18  C   UNL     1      49.332   8.964  13.951  0.00  0.00    +0.000 C 
ENDBRANCH  14  18
ENDBRANCH   5  14
ENDBRANCH   1  12
BRANCH   3  19
ATOM     19  C   UNL     1      47.485   3.491  16.492  0.00  0.00    +0.000 C 
BRANCH  19  20
ATOM     20  C   UNL     1      47.746   4.154  17.824  0.00  0.00    +0.000 A 
ATOM     21  C   UNL     1      47.099   5.355  18.131  0.00  0.00    +0.000 A 
ATOM     22  C   UNL     1      47.377   6.039  19.319  0.00  0.00    +0.000 A 
ATOM     23  C   UNL     1      48.283   5.540  20.262  0.00  0.00    +0.000 A 
ATOM     24  C   UNL     1      48.923   4.331  19.953  0.00  0.00    +0.000 A 
ATOM     25  C   UNL     1      48.653   3.638  18.756  0.00  0.00    +0.000 A 
BRANCH  23  26
ATOM     26  N   UNL     1      48.655   6.255  21.411  0.00  0.00    +0.000 N 
ATOM     27  H   UNL     1      47.969   6.952  21.689  0.00  0.00    +0.000 HD
BRANCH  26  28
ATOM     28  C   UNL     1      50.058   6.672  21.540  0.00  0.00    +0.000 C 
BRANCH  28  29
ATOM     29  C   UNL     1      50.461   7.672  20.448  0.00  0.00    +0.000 C 
BRANCH  29  30
ATOM     30  C   UNL     1      51.110   6.970  19.274  0.00  0.00    +0.000 A 
ATOM     31  C   UNL     1      50.654   7.205  17.968  0.00  0.00    +0.000 A 
ATOM     32  C   UNL     1      51.224   6.534  16.883  0.00  0.00    +0.000 A 
ATOM     33  C   UNL     1      52.253   5.618  17.092  0.00  0.00    +0.000 A 
ATOM     34  C   UNL     1      52.711   5.371  18.385  0.00  0.00    +0.000 A 
ATOM     35  C   UNL     1      52.140   6.041  19.472  0.00  0.00    +0.000 A 
ENDBRANCH  29  30
ENDBRANCH  28  29
ENDBRANCH  26  28
ENDBRANCH  23  26
ENDBRANCH  19  20
ENDBRANCH   3  19
TORSDOF 9
ENDMDL
MODEL 8
REMARK VINA RESULT:    -6.550      1.455      1.867
REMARK INTER + INTRA:         -11.578
REMARK INTER:                 -10.220
REMARK INTRA:                  -1.358
REMARK UNBOUND:                -1.581
REMARK  Name = 
REMARK  10 active torsions:
REMARK  status: ('A' for Active; 'I' for Inactive)
REMARK    1  A    between atoms: C_1  and  C_2
REMARK    2  A    between atoms: C_2  and  S_3
REMARK    3  A    between atoms: S_3  and  C_6
REMARK    4  A    between atoms: C_13  and  C_14
REMARK    5  A    between atoms: N_16  and  C_17
REMARK    6  A    between atoms: C_17  and  C_18
REMARK    7  A    between atoms: C_21  and  N_22
REMARK    8  A    between atoms: N_22  and  C_23
REMARK    9  A    between atoms: C_23  and  C_24
REMARK   10  A    between atoms: C_24  and  C_25
REMARK                            x       y       z     vdW  Elec       q    Type
REMARK                         _______ _______ _______ _____ _____    ______ ____
ROOT
ATOM      1  C   UNL     1      49.406   8.283  15.891  0.00  0.00    +0.000 C 
ATOM      2  O   UNL     1      49.742   9.214  15.164  0.00  0.00    +0.000 OA
ATOM      3  N   UNL     1      48.754   7.176  15.385  0.00  0.00    +0.000 N 
ATOM      4  H   UNL     1      48.885   6.327  15.910  0.00  0.00    +0.000 HD
ENDROOT
BRANCH   1  12
ATOM      5  C   UNL     1      50.255   6.098  18.599  0.00  0.00    +0.000 A 
ATOM      6  C   UNL     1      50.413   5.550  19.875  0.00  0.00    +0.000 A 
ATOM      7  N   UNL     1      50.306   6.239  21.021  0.00  0.00    +0.000 NA
ATOM      8  C   UNL     1      50.012   7.547  20.954  0.00  0.00    +0.000 A 
ATOM      9  C   UNL     1      49.812   8.164  19.709  0.00  0.00    +0.000 A 
ATOM     10  S   UNL     1      49.470   9.836  19.531  0.00  0.00    +0.000 S 
ATOM     11  C   UNL     1      49.387   9.694  17.855  0.00  0.00    +0.000 A 
ATOM     12  C   UNL     1      49.550   8.405  17.366  0.00  0.00    +0.000 A 
ATOM     13  C   UNL     1      49.882   7.473  18.479  0.00  0.00    +0.000 A 
BRANCH   5  14
ATOM     14  S   UNL     1      50.489   4.941  17.294  0.00  0.00    +0.000 S 
ATOM     15  O   UNL     1      51.440   5.533  16.372  0.00  0.00    +0.000 OA
ATOM     16  O   UNL     1      49.172   4.572  16.830  0.00  0.00    +0.000 OA
BRANCH  14  18
ATOM     17  C   UNL     1      50.622   2.265  17.345  0.00  0.00    +0.000 C 
ATOM     18  C   UNL     1      51.312   3.502  17.912  0.00  0.00    +0.000 C 
ENDBRANCH  14  18
ENDBRANCH   5  14
ENDBRANCH   1  12
BRANCH   3  19
ATOM     19  C   UNL     1      48.701   6.973  13.944  0.00  0.00    +0.000 C 
BRANCH  19  20
ATOM     20  C   UNL     1      47.430   6.272  13.528  0.00  0.00    +0.000 A 
ATOM     21  C   UNL     1      46.361   7.026  13.034  0.00  0.00    +0.000 A 
ATOM     22  C   UNL     1      45.140   6.421  12.716  0.00  0.00    +0.000 A 
ATOM     23  C   UNL     1      44.947   5.041  12.843  0.00  0.00    +0.000 A 
ATOM     24  C   UNL     1      46.025   4.288  13.331  0.00  0.00    +0.000 A 
ATOM     25  C   UNL     1      47.256   4.890  13.660  0.00  0.00    +0.000 A 
BRANCH  23  26
ATOM     26  N   UNL     1      43.703   4.425  12.628  0.00  0.00    +0.000 N 
ATOM     27  H   UNL     1      43.529   3.644  13.254  0.00  0.00    +0.000 HD
BRANCH  26  28
ATOM     28  C   UNL     1      43.265   4.223  11.240  0.00  0.00    +0.000 C 
BRANCH  28  29
ATOM     29  C   UNL     1      44.156   4.975  10.242  0.00  0.00    +0.000 C 
BRANCH  29  30
ATOM     30  C   UNL     1      44.924   4.014   9.360  0.00  0.00    +0.000 A 
ATOM     31  C   UNL     1      45.647   4.489   8.256  0.00  0.00    +0.000 A 
ATOM     32  C   UNL     1      46.330   3.604   7.417  0.00  0.00    +0.000 A 
ATOM     33  C   UNL     1      46.295   2.235   7.672  0.00  0.00    +0.000 A 
ATOM     34  C   UNL     1      45.576   1.749   8.763  0.00  0.00    +0.000 A 
ATOM     35  C   UNL     1      44.891   2.633   9.602  0.00  0.00    +0.000 A 
ENDBRANCH  29  30
ENDBRANCH  28  29
ENDBRANCH  26  28
ENDBRANCH  23  26
ENDBRANCH  19  20
ENDBRANCH   3  19
TORSDOF 9
ENDMDL
MODEL 9
REMARK VINA RESULT:    -6.473      3.296      9.201
REMARK INTER + INTRA:         -11.460
REMARK INTER:                  -9.405
REMARK INTRA:                  -2.055
REMARK UNBOUND:                -1.581
REMARK  Name = 
REMARK  10 active torsions:
REMARK  status: ('A' for Active; 'I' for Inactive)
REMARK    1  A    between atoms: C_1  and  C_2
REMARK    2  A    between atoms: C_2  and  S_3
REMARK    3  A    between atoms: S_3  and  C_6
REMARK    4  A    between atoms: C_13  and  C_14
REMARK    5  A    between atoms: N_16  and  C_17
REMARK    6  A    between atoms: C_17  and  C_18
REMARK    7  A    between atoms: C_21  and  N_22
REMARK    8  A    between atoms: N_22  and  C_23
REMARK    9  A    between atoms: C_23  and  C_24
REMARK   10  A    between atoms: C_24  and  C_25
REMARK                            x       y       z     vdW  Elec       q    Type
REMARK                         _______ _______ _______ _____ _____    ______ ____
ROOT
ATOM      1  C   UNL     1      47.506   6.056  13.501  0.00  0.00    +0.000 C 
ATOM      2  O   UNL     1      48.448   5.483  12.960  0.00  0.00    +0.000 OA
ATOM      3  N   UNL     1      46.669   5.392  14.376  0.00  0.00    +0.000 N 
ATOM      4  H   UNL     1      46.221   5.976  15.063  0.00  0.00    +0.000 HD
ENDROOT
BRANCH   1  12
ATOM      5  C   UNL     1      44.753   7.641  11.848  0.00  0.00    +0.000 A 
ATOM      6  C   UNL     1      43.958   8.561  11.158  0.00  0.00    +0.000 A 
ATOM      7  N   UNL     1      44.247   9.863  11.012  0.00  0.00    +0.000 NA
ATOM      8  C   UNL     1      45.388  10.327  11.549  0.00  0.00    +0.000 A 
ATOM      9  C   UNL     1      46.251   9.458  12.234  0.00  0.00    +0.000 A 
ATOM     10  S   UNL     1      47.707   9.974  12.981  0.00  0.00    +0.000 S 
ATOM     11  C   UNL     1      48.057   8.411  13.499  0.00  0.00    +0.000 A 
ATOM     12  C   UNL     1      47.150   7.441  13.095  0.00  0.00    +0.000 A 
ATOM     13  C   UNL     1      46.005   8.075  12.384  0.00  0.00    +0.000 A 
BRANCH   5  14
ATOM     14  S   UNL     1      44.085   6.014  11.889  0.00  0.00    +0.000 S 
ATOM     15  O   UNL     1      42.892   6.028  11.063  0.00  0.00    +0.000 OA
ATOM     16  O   UNL     1      43.991   5.643  13.282  0.00  0.00    +0.000 OA
BRANCH  14  18
ATOM     17  C   UNL     1      44.904   3.483  11.565  0.00  0.00    +0.000 C 
ATOM     18  C   UNL     1      45.180   4.897  11.062  0.00  0.00    +0.000 C 
ENDBRANCH  14  18
ENDBRANCH   5  14
ENDBRANCH   1  12
BRANCH   3  19
ATOM     19  C   UNL     1      47.053   4.081  14.880  0.00  0.00    +0.000 C 
BRANCH  19  20
ATOM     20  C   UNL     1      47.633   4.169  16.271  0.00  0.00    +0.000 A 
ATOM     21  C   UNL     1      48.362   5.303  16.640  0.00  0.00    +0.000 A 
ATOM     22  C   UNL     1      48.983   5.384  17.892  0.00  0.00    +0.000 A 
ATOM     23  C   UNL     1      48.874   4.357  18.835  0.00  0.00    +0.000 A 
ATOM     24  C   UNL     1      48.135   3.224  18.463  0.00  0.00    +0.000 A 
ATOM     25  C   UNL     1      47.512   3.132  17.203  0.00  0.00    +0.000 A 
BRANCH  23  26
ATOM     26  N   UNL     1      49.569   4.370  20.056  0.00  0.00    +0.000 N 
ATOM     27  H   UNL     1      50.149   3.548  20.195  0.00  0.00    +0.000 HD
BRANCH  26  28
ATOM     28  C   UNL     1      48.856   4.842  21.250  0.00  0.00    +0.000 C 
BRANCH  28  29
ATOM     29  C   UNL     1      49.390   6.195  21.740  0.00  0.00    +0.000 C 
BRANCH  29  30
ATOM     30  C   UNL     1      49.002   7.312  20.794  0.00  0.00    +0.000 A 
ATOM     31  C   UNL     1      49.988   8.130  20.222  0.00  0.00    +0.000 A 
ATOM     32  C   UNL     1      49.636   9.185  19.376  0.00  0.00    +0.000 A 
ATOM     33  C   UNL     1      48.294   9.436  19.097  0.00  0.00    +0.000 A 
ATOM     34  C   UNL     1      47.305   8.634  19.664  0.00  0.00    +0.000 A 
ATOM     35  C   UNL     1      47.656   7.579  20.512  0.00  0.00    +0.000 A 
ENDBRANCH  29  30
ENDBRANCH  28  29
ENDBRANCH  26  28
ENDBRANCH  23  26
ENDBRANCH  19  20
ENDBRANCH   3  19
TORSDOF 9
ENDMDL
