MODEL 1
REMARK VINA RESULT:    -7.912      0.000      0.000
REMARK INTER + INTRA:         -11.208
REMARK INTER:                 -10.225
REMARK INTRA:                  -0.983
REMARK UNBOUND:                -0.983
REMARK  Name = 
REMARK  5 active torsions:
REMARK  status: ('A' for Active; 'I' for Inactive)
REMARK    1  A    between atoms: C_2  and  C_3
REMARK    2  A    between atoms: C_6  and  O_7
REMARK    3  A    between atoms: O_7  and  C_8
REMARK    4  A    between atoms: C_8  and  C_9
REMARK    5  A    between atoms: C_14  and  C_15
REMARK                            x       y       z     vdW  Elec       q    Type
REMARK                         _______ _______ _______ _____ _____    ______ ____
ROOT
ATOM      1  C   UNL     1      44.630   4.200  12.097  0.00  0.00    +0.000 A 
ATOM      2  C   UNL     1      45.529   3.483  12.891  0.00  0.00    +0.000 A 
ATOM      3  C   UNL     1      46.553   4.154  13.551  0.00  0.00    +0.000 A 
ATOM      4  F   UNL     1      47.413   3.457  14.306  0.00  0.00    +0.000 F 
ATOM      5  C   UNL     1      46.701   5.533  13.449  0.00  0.00    +0.000 A 
ATOM      6  C   UNL     1      45.809   6.282  12.670  0.00  0.00    +0.000 A 
ATOM      7  C   UNL     1      44.783   5.594  11.995  0.00  0.00    +0.000 A 
ENDROOT
BRANCH   6   8
ATOM      8  C   UNL     1      45.970   7.746  12.526  0.00  0.00    +0.000 C 
ATOM      9  C   UNL     1      45.040   8.513  11.922  0.00  0.00    +0.000 C 
ATOM     10  C   UNL     1      45.177   9.993  11.720  0.00  0.00    +0.000 C 
ATOM     11  N   UNL     1      46.279  10.610  12.459  0.00  0.00    +0.000 NA
ATOM     12  C   UNL     1      47.478   9.764  12.405  0.00  0.00    +0.000 C 
ATOM     13  C   UNL     1      47.230   8.394  13.054  0.00  0.00    +0.000 C 
ATOM     14  H   UNL     1      45.991  10.704  13.432  0.00  0.00    +0.000 HD
ENDBRANCH   6   8
BRANCH   1  15
ATOM     15  C   UNL     1      43.498   3.504  11.378  0.00  0.00    +0.000 C 
BRANCH  15  16
ATOM     16  O   UNL     1      43.520   3.872   9.998  0.00  0.00    +0.000 OA
BRANCH  16  20
ATOM     17  C   UNL     1      46.510   2.360   7.503  0.00  0.00    +0.000 A 
ATOM     18  C   UNL     1      45.827   1.473   8.340  0.00  0.00    +0.000 A 
ATOM     19  C   UNL     1      44.816   1.937   9.193  0.00  0.00    +0.000 A 
ATOM     20  C   UNL     1      44.483   3.293   9.217  0.00  0.00    +0.000 A 
ATOM     21  C   UNL     1      45.172   4.178   8.380  0.00  0.00    +0.000 A 
ATOM     22  C   UNL     1      46.180   3.718   7.527  0.00  0.00    +0.000 A 
BRANCH  17  24
ATOM     23  N   UNL     1      48.369   1.493   5.915  0.00  0.00    +0.000 NA
ATOM     24  C   UNL     1      47.537   1.877   6.624  0.00  0.00    +0.000 C 
ENDBRANCH  17  24
ENDBRANCH  16  20
ENDBRANCH  15  16
ENDBRANCH   1  15
TORSDOF 5
ENDMDL
MODEL 2
REMARK VINA RESULT:    -7.680      2.429      3.603
REMARK INTER + INTRA:         -10.908
REMARK INTER:                 -10.142
REMARK INTRA:                  -0.766
REMARK UNBOUND:                -0.983
REMARK  Name = 
REMARK  5 active torsions:
REMARK  status: ('A' for Active; 'I' for Inactive)
REMARK    1  A    between atoms: C_2  and  C_3
REMARK    2  A    between atoms: C_6  and  O_7
REMARK    3  A    between atoms: O_7  and  C_8
REMARK    4  A    between atoms: C_8  and  C_9
REMARK    5  A    between atoms: C_14  and  C_15
REMARK                            x       y       z     vdW  Elec       q    Type
REMARK                         _______ _______ _______ _____ _____    ______ ____
ROOT
ATOM      1  C   UNL     1      44.609   4.643  11.989  0.00  0.00    +0.000 A 
ATOM      2  C   UNL     1      44.431   5.918  11.445  0.00  0.00    +0.000 A 
ATOM      3  C   UNL     1      45.182   6.984  11.926  0.00  0.00    +0.000 A 
ATOM      4  F   UNL     1      45.001   8.203  11.401  0.00  0.00    +0.000 F 
ATOM      5  C   UNL     1      46.120   6.813  12.938  0.00  0.00    +0.000 A 
ATOM      6  C   UNL     1      46.330   5.546  13.498  0.00  0.00    +0.000 A 
ATOM      7  C   UNL     1      45.558   4.473  13.013  0.00  0.00    +0.000 A 
ENDROOT
BRANCH   6   8
ATOM      8  C   UNL     1      47.303   5.352  14.596  0.00  0.00    +0.000 C 
ATOM      9  C   UNL     1      47.230   4.304  15.442  0.00  0.00    +0.000 C 
ATOM     10  C   UNL     1      48.169   4.086  16.590  0.00  0.00    +0.000 C 
ATOM     11  N   UNL     1      49.349   4.952  16.585  0.00  0.00    +0.000 NA
ATOM     12  C   UNL     1      48.986   6.322  16.204  0.00  0.00    +0.000 C 
ATOM     13  C   UNL     1      48.399   6.376  14.786  0.00  0.00    +0.000 C 
ATOM     14  H   UNL     1      50.004   4.586  15.895  0.00  0.00    +0.000 HD
ENDBRANCH   6   8
BRANCH   1  15
ATOM     15  C   UNL     1      43.820   3.459  11.480  0.00  0.00    +0.000 C 
BRANCH  15  16
ATOM     16  O   UNL     1      43.529   3.648  10.095  0.00  0.00    +0.000 OA
BRANCH  16  20
ATOM     17  C   UNL     1      46.490   2.305   7.472  0.00  0.00    +0.000 A 
ATOM     18  C   UNL     1      46.133   3.656   7.441  0.00  0.00    +0.000 A 
ATOM     19  C   UNL     1      45.145   4.150   8.304  0.00  0.00    +0.000 A 
ATOM     20  C   UNL     1      44.504   3.294   9.202  0.00  0.00    +0.000 A 
ATOM     21  C   UNL     1      44.861   1.942   9.227  0.00  0.00    +0.000 A 
ATOM     22  C   UNL     1      45.847   1.446   8.368  0.00  0.00    +0.000 A 
BRANCH  17  24
ATOM     23  N   UNL     1      48.329   1.407   5.878  0.00  0.00    +0.000 NA
ATOM     24  C   UNL     1      47.509   1.807   6.593  0.00  0.00    +0.000 C 
ENDBRANCH  17  24
ENDBRANCH  16  20
ENDBRANCH  15  16
ENDBRANCH   1  15
TORSDOF 5
ENDMDL
MODEL 3
REMARK VINA RESULT:    -7.607      1.252      1.999
REMARK INTER + INTRA:         -10.814
REMARK INTER:                 -10.059
REMARK INTRA:                  -0.755
REMARK UNBOUND:                -0.983
REMARK  Name = 
REMARK  5 active torsions:
REMARK  status: ('A' for Active; 'I' for Inactive)
REMARK    1  A    between atoms: C_2  and  C_3
REMARK    2  A    between atoms: C_6  and  O_7
REMARK    3  A    between atoms: O_7  and  C_8
REMARK    4  A    between atoms: C_8  and  C_9
REMARK    5  A    between atoms: C_14  and  C_15
REMARK                            x       y       z     vdW  Elec       q    Type
REMARK                         _______ _______ _______ _____ _____    ______ ____
ROOT
ATOM      1  C   UNL     1      45.008   5.192  11.630  0.00  0.00    +0.000 A 
ATOM      2  C   UNL     1      45.372   4.253  12.599  0.00  0.00    +0.000 A 
ATOM      3  C   UNL     1      46.516   4.458  13.362  0.00  0.00    +0.000 A 
ATOM      4  F   UNL     1      46.859   3.550  14.285  0.00  0.00    +0.000 F 
ATOM      5  C   UNL     1      47.311   5.586  13.191  0.00  0.00    +0.000 A 
ATOM      6  C   UNL     1      46.967   6.552  12.236  0.00  0.00    +0.000 A 
ATOM      7  C   UNL     1      45.814   6.332  11.459  0.00  0.00    +0.000 A 
ENDROOT
BRANCH   6   8
ATOM      8  C   UNL     1      47.818   7.744  12.020  0.00  0.00    +0.000 C 
ATOM      9  C   UNL     1      49.134   7.646  11.746  0.00  0.00    +0.000 C 
ATOM     10  C   UNL     1      50.041   8.825  11.558  0.00  0.00    +0.000 C 
ATOM     11  N   UNL     1      49.352  10.110  11.428  0.00  0.00    +0.000 NA
ATOM     12  C   UNL     1      48.243  10.202  12.385  0.00  0.00    +0.000 C 
ATOM     13  C   UNL     1      47.189   9.115  12.134  0.00  0.00    +0.000 C 
ATOM     14  H   UNL     1      48.972  10.169  10.484  0.00  0.00    +0.000 HD
ENDBRANCH   6   8
BRANCH   1  15
ATOM     15  C   UNL     1      43.764   5.008  10.793  0.00  0.00    +0.000 C 
BRANCH  15  16
ATOM     16  O   UNL     1      43.732   3.675  10.283  0.00  0.00    +0.000 OA
BRANCH  16  20
ATOM     17  C   UNL     1      46.539   2.432   7.450  0.00  0.00    +0.000 A 
ATOM     18  C   UNL     1      46.172   3.780   7.480  0.00  0.00    +0.000 A 
ATOM     19  C   UNL     1      45.233   4.241   8.414  0.00  0.00    +0.000 A 
ATOM     20  C   UNL     1      44.654   3.355   9.324  0.00  0.00    +0.000 A 
ATOM     21  C   UNL     1      45.021   2.005   9.289  0.00  0.00    +0.000 A 
ATOM     22  C   UNL     1      45.957   1.543   8.359  0.00  0.00    +0.000 A 
BRANCH  17  24
ATOM     23  N   UNL     1      48.294   1.595   5.732  0.00  0.00    +0.000 NA
ATOM     24  C   UNL     1      47.507   1.968   6.498  0.00  0.00    +0.000 C 
ENDBRANCH  17  24
ENDBRANCH  16  20
ENDBRANCH  15  16
ENDBRANCH   1  15
TORSDOF 5
ENDMDL
MODEL 4
REMARK VINA RESULT:    -7.432      2.239      3.064
REMARK INTER + INTRA:         -10.588
REMARK INTER:                  -9.763
REMARK INTRA:                  -0.825
REMARK UNBOUND:                -0.983
REMARK  Name = 
REMARK  5 active torsions:
REMARK  status: ('A' for Active; 'I' for Inactive)
REMARK    1  A    between atoms: C_2  and  C_3
REMARK    2  A    between atoms: C_6  and  O_7
REMARK    3  A    between atoms: O_7  and  C_8
REMARK    4  A    between atoms: C_8  and  C_9
REMARK    5  A    between atoms: C_14  and  C_15
REMARK                            x       y       z     vdW  Elec       q    Type
REMARK                         _______ _______ _______ _____ _____    ______ ____
ROOT
ATOM      1  C   UNL     1      44.653   4.794  11.631  0.00  0.00    +0.000 A 
ATOM      2  C   UNL     1      43.815   5.842  11.241  0.00  0.00    +0.000 A 
ATOM      3  C   UNL     1      44.229   7.158  11.413  0.00  0.00    +0.000 A 
ATOM      4  F   UNL     1      43.416   8.156  11.040  0.00  0.00    +0.000 F 
ATOM      5  C   UNL     1      45.471   7.462  11.959  0.00  0.00    +0.000 A 
ATOM      6  C   UNL     1      46.340   6.435  12.350  0.00  0.00    +0.000 A 
ATOM      7  C   UNL     1      45.908   5.105  12.184  0.00  0.00    +0.000 A 
ENDROOT
BRANCH   6   8
ATOM      8  C   UNL     1      47.653   6.740  12.960  0.00  0.00    +0.000 C 
ATOM      9  C   UNL     1      47.917   6.487  14.258  0.00  0.00    +0.000 C 
ATOM     10  C   UNL     1      49.218   6.814  14.929  0.00  0.00    +0.000 C 
ATOM     11  N   UNL     1      50.296   7.192  14.015  0.00  0.00    +0.000 NA
ATOM     12  C   UNL     1      49.793   8.075  12.955  0.00  0.00    +0.000 C 
ATOM     13  C   UNL     1      48.723   7.378  12.102  0.00  0.00    +0.000 C 
ATOM     14  H   UNL     1      50.657   6.341  13.585  0.00  0.00    +0.000 HD
ENDBRANCH   6   8
BRANCH   1  15
ATOM     15  C   UNL     1      44.240   3.353  11.445  0.00  0.00    +0.000 C 
BRANCH  15  16
ATOM     16  O   UNL     1      43.754   3.170  10.115  0.00  0.00    +0.000 OA
BRANCH  16  20
ATOM     17  C   UNL     1      46.611   2.216   7.222  0.00  0.00    +0.000 A 
ATOM     18  C   UNL     1      46.153   3.534   7.298  0.00  0.00    +0.000 A 
ATOM     19  C   UNL     1      45.195   3.898   8.254  0.00  0.00    +0.000 A 
ATOM     20  C   UNL     1      44.686   2.946   9.139  0.00  0.00    +0.000 A 
ATOM     21  C   UNL     1      45.144   1.626   9.056  0.00  0.00    +0.000 A 
ATOM     22  C   UNL     1      46.101   1.260   8.104  0.00  0.00    +0.000 A 
BRANCH  17  24
ATOM     23  N   UNL     1      48.395   1.558   5.456  0.00  0.00    +0.000 NA
ATOM     24  C   UNL     1      47.600   1.851   6.247  0.00  0.00    +0.000 C 
ENDBRANCH  17  24
ENDBRANCH  16  20
ENDBRANCH  15  16
ENDBRANCH   1  15
TORSDOF 5
ENDMDL
MODEL 5
REMARK VINA RESULT:    -6.467      2.250      7.042
REMARK INTER + INTRA:          -9.340
REMARK INTER:                  -8.602
REMARK INTRA:                  -0.738
REMARK UNBOUND:                -0.983
REMARK  Name = 
REMARK  5 active torsions:
REMARK  status: ('A' for Active; 'I' for Inactive)
REMARK    1  A    between atoms: C_2  and  C_3
REMARK    2  A    between atoms: C_6  and  O_7
REMARK    3  A    between atoms: O_7  and  C_8
REMARK    4  A    between atoms: C_8  and  C_9
REMARK    5  A    between atoms: C_14  and  C_15
REMARK                            x       y       z     vdW  Elec       q    Type
REMARK                         _______ _______ _______ _____ _____    ______ ____
ROOT
ATOM      1  C   UNL     1      44.664   5.144  10.666  0.00  0.00    +0.000 A 
ATOM      2  C   UNL     1      43.822   4.322  11.420  0.00  0.00    +0.000 A 
ATOM      3  C   UNL     1      43.680   2.982  11.079  0.00  0.00    +0.000 A 
ATOM      4  F   UNL     1      42.866   2.204  11.805  0.00  0.00    +0.000 F 
ATOM      5  C   UNL     1      44.367   2.430  10.004  0.00  0.00    +0.000 A 
ATOM      6  C   UNL     1      45.228   3.224   9.235  0.00  0.00    +0.000 A 
ATOM      7  C   UNL     1      45.357   4.583   9.579  0.00  0.00    +0.000 A 
ENDROOT
BRANCH   6   8
ATOM      8  C   UNL     1      45.945   2.660   8.069  0.00  0.00    +0.000 C 
ATOM      9  C   UNL     1      46.380   1.384   8.044  0.00  0.00    +0.000 C 
ATOM     10  C   UNL     1      47.143   0.781   6.902  0.00  0.00    +0.000 C 
ATOM     11  N   UNL     1      47.162   1.595   5.684  0.00  0.00    +0.000 NA
ATOM     12  C   UNL     1      47.358   3.012   6.011  0.00  0.00    +0.000 C 
ATOM     13  C   UNL     1      46.214   3.555   6.880  0.00  0.00    +0.000 C 
ATOM     14  H   UNL     1      46.259   1.489   5.222  0.00  0.00    +0.000 HD
ENDBRANCH   6   8
BRANCH   1  15
ATOM     15  C   UNL     1      44.853   6.601  11.017  0.00  0.00    +0.000 C 
BRANCH  15  16
ATOM     16  O   UNL     1      45.496   6.700  12.289  0.00  0.00    +0.000 OA
BRANCH  16  20
ATOM     17  C   UNL     1      49.266   8.498  12.267  0.00  0.00    +0.000 A 
ATOM     18  C   UNL     1      49.181   7.128  12.527  0.00  0.00    +0.000 A 
ATOM     19  C   UNL     1      47.936   6.483  12.543  0.00  0.00    +0.000 A 
ATOM     20  C   UNL     1      46.767   7.207  12.303  0.00  0.00    +0.000 A 
ATOM     21  C   UNL     1      46.855   8.579  12.047  0.00  0.00    +0.000 A 
ATOM     22  C   UNL     1      48.096   9.225  12.029  0.00  0.00    +0.000 A 
BRANCH  17  24
ATOM     23  N   UNL     1      51.575   9.681  12.226  0.00  0.00    +0.000 NA
ATOM     24  C   UNL     1      50.544   9.150  12.242  0.00  0.00    +0.000 C 
ENDBRANCH  17  24
ENDBRANCH  16  20
ENDBRANCH  15  16
ENDBRANCH   1  15
TORSDOF 5
ENDMDL
MODEL 6
REMARK VINA RESULT:    -6.409      2.880      4.178
REMARK INTER + INTRA:          -9.265
REMARK INTER:                  -8.708
REMARK INTRA:                  -0.557
REMARK UNBOUND:                -0.983
REMARK  Name = 
REMARK  5 active torsions:
REMARK  status: ('A' for Active; 'I' for Inactive)
REMARK    1  A    between atoms: C_2  and  C_3
REMARK    2  A    between atoms: C_6  and  O_7
REMARK    3  A    between atoms: O_7  and  C_8
REMARK    4  A    between atoms: C_8  and  C_9
REMARK    5  A    between atoms: C_14  and  C_15
REMARK                            x       y       z     vdW  Elec       q    Type
REMARK                         _______ _______ _______ _____ _____    ______ ____
ROOT
ATOM      1  C   UNL     1      45.553   5.508  12.236  0.00  0.00    +0.000 A 
ATOM      2  C   UNL     1      46.458   6.450  11.740  0.00  0.00    +0.000 A 
ATOM      3  C   UNL     1      47.619   6.731  12.450  0.00  0.00    +0.000 A 
ATOM      4  F   UNL     1      48.478   7.639  11.969  0.00  0.00    +0.000 F 
ATOM      5  C   UNL     1      47.913   6.086  13.647  0.00  0.00    +0.000 A 
ATOM      6  C   UNL     1      47.032   5.128  14.165  0.00  0.00    +0.000 A 
ATOM      7  C   UNL     1      45.851   4.858  13.447  0.00  0.00    +0.000 A 
ENDROOT
BRANCH   6   8
ATOM      8  C   UNL     1      47.313   4.453  15.452  0.00  0.00    +0.000 C 
ATOM      9  C   UNL     1      47.257   5.106  16.631  0.00  0.00    +0.000 C 
ATOM     10  C   UNL     1      47.571   4.474  17.954  0.00  0.00    +0.000 C 
ATOM     11  N   UNL     1      47.690   3.015  17.920  0.00  0.00    +0.000 NA
ATOM     12  C   UNL     1      48.425   2.583  16.726  0.00  0.00    +0.000 C 
ATOM     13  C   UNL     1      47.697   2.990  15.437  0.00  0.00    +0.000 C 
ATOM     14  H   UNL     1      46.750   2.624  17.883  0.00  0.00    +0.000 HD
ENDBRANCH   6   8
BRANCH   1  15
ATOM     15  C   UNL     1      44.288   5.169  11.483  0.00  0.00    +0.000 C 
BRANCH  15  16
ATOM     16  O   UNL     1      44.300   3.783  11.140  0.00  0.00    +0.000 OA
BRANCH  16  20
ATOM     17  C   UNL     1      46.109   3.020   7.453  0.00  0.00    +0.000 A 
ATOM     18  C   UNL     1      45.787   1.937   8.275  0.00  0.00    +0.000 A 
ATOM     19  C   UNL     1      45.179   2.147   9.521  0.00  0.00    +0.000 A 
ATOM     20  C   UNL     1      44.891   3.443   9.953  0.00  0.00    +0.000 A 
ATOM     21  C   UNL     1      45.218   4.524   9.129  0.00  0.00    +0.000 A 
ATOM     22  C   UNL     1      45.824   4.318   7.885  0.00  0.00    +0.000 A 
BRANCH  17  24
ATOM     23  N   UNL     1      47.215   2.624   5.139  0.00  0.00    +0.000 NA
ATOM     24  C   UNL     1      46.723   2.798   6.175  0.00  0.00    +0.000 C 
ENDBRANCH  17  24
ENDBRANCH  16  20
ENDBRANCH  15  16
ENDBRANCH   1  15
TORSDOF 5
ENDMDL
MODEL 7
REMARK VINA RESULT:    -6.402      4.915      7.504
REMARK INTER + INTRA:          -9.256
REMARK INTER:                  -8.489
REMARK INTRA:                  -0.767
REMARK UNBOUND:                -0.983
REMARK  Name = 
REMARK  5 active torsions:
REMARK  status: ('A' for Active; 'I' for Inactive)
REMARK    1  A    between atoms: C_2  and  C_3
REMARK    2  A    between atoms: C_6  and  O_7
REMARK    3  A    between atoms: O_7  and  C_8
REMARK    4  A    between atoms: C_8  and  C_9
REMARK    5  A    between atoms: C_14  and  C_15
REMARK                            x       y       z     vdW  Elec       q    Type
REMARK                         _______ _______ _______ _____ _____    ______ ____
ROOT
ATOM      1  C   UNL     1      48.090   6.474  14.360  0.00  0.00    +0.000 A 
ATOM      2  C   UNL     1      48.798   7.188  13.389  0.00  0.00    +0.000 A 
ATOM      3  C   UNL     1      48.321   7.237  12.085  0.00  0.00    +0.000 A 
ATOM      4  F   UNL     1      49.009   7.920  11.160  0.00  0.00    +0.000 F 
ATOM      5  C   UNL     1      47.142   6.597  11.718  0.00  0.00    +0.000 A 
ATOM      6  C   UNL     1      46.403   5.882  12.670  0.00  0.00    +0.000 A 
ATOM      7  C   UNL     1      46.899   5.827  13.987  0.00  0.00    +0.000 A 
ENDROOT
BRANCH   6   8
ATOM      8  C   UNL     1      45.162   5.170  12.292  0.00  0.00    +0.000 C 
ATOM      9  C   UNL     1      44.024   5.826  11.985  0.00  0.00    +0.000 C 
ATOM     10  C   UNL     1      42.734   5.147  11.633  0.00  0.00    +0.000 C 
ATOM     11  N   UNL     1      42.851   3.709  11.384  0.00  0.00    +0.000 NA
ATOM     12  C   UNL     1      43.748   3.084  12.363  0.00  0.00    +0.000 C 
ATOM     13  C   UNL     1      45.169   3.658  12.273  0.00  0.00    +0.000 C 
ATOM     14  H   UNL     1      43.246   3.582  10.453  0.00  0.00    +0.000 HD
ENDBRANCH   6   8
BRANCH   1  15
ATOM     15  C   UNL     1      48.573   6.412  15.790  0.00  0.00    +0.000 C 
BRANCH  15  16
ATOM     16  O   UNL     1      47.980   5.287  16.440  0.00  0.00    +0.000 OA
BRANCH  16  20
ATOM     17  C   UNL     1      50.689   2.259  17.410  0.00  0.00    +0.000 A 
ATOM     18  C   UNL     1      49.442   1.898  16.894  0.00  0.00    +0.000 A 
ATOM     19  C   UNL     1      48.502   2.882  16.554  0.00  0.00    +0.000 A 
ATOM     20  C   UNL     1      48.803   4.233  16.732  0.00  0.00    +0.000 A 
ATOM     21  C   UNL     1      50.051   4.590  17.252  0.00  0.00    +0.000 A 
ATOM     22  C   UNL     1      50.991   3.612  17.592  0.00  0.00    +0.000 A 
BRANCH  17  24
ATOM     23  N   UNL     1      52.423   0.429  18.023  0.00  0.00    +0.000 NA
ATOM     24  C   UNL     1      51.650   1.248  17.747  0.00  0.00    +0.000 C 
ENDBRANCH  17  24
ENDBRANCH  16  20
ENDBRANCH  15  16
ENDBRANCH   1  15
TORSDOF 5
ENDMDL
MODEL 8
REMARK VINA RESULT:    -6.125      4.308      8.301
REMARK INTER + INTRA:          -8.898
REMARK INTER:                  -8.073
REMARK INTRA:                  -0.825
REMARK UNBOUND:                -0.983
REMARK  Name = 
REMARK  5 active torsions:
REMARK  status: ('A' for Active; 'I' for Inactive)
REMARK    1  A    between atoms: C_2  and  C_3
REMARK    2  A    between atoms: C_6  and  O_7
REMARK    3  A    between atoms: O_7  and  C_8
REMARK    4  A    between atoms: C_8  and  C_9
REMARK    5  A    between atoms: C_14  and  C_15
REMARK                            x       y       z     vdW  Elec       q    Type
REMARK                         _______ _______ _______ _____ _____    ______ ____
ROOT
ATOM      1  C   UNL     1      47.443   7.265  13.301  0.00  0.00    +0.000 A 
ATOM      2  C   UNL     1      46.717   8.458  13.239  0.00  0.00    +0.000 A 
ATOM      3  C   UNL     1      45.484   8.482  12.599  0.00  0.00    +0.000 A 
ATOM      4  F   UNL     1      44.798   9.632  12.541  0.00  0.00    +0.000 F 
ATOM      5  C   UNL     1      44.942   7.339  12.023  0.00  0.00    +0.000 A 
ATOM      6  C   UNL     1      45.639   6.125  12.077  0.00  0.00    +0.000 A 
ATOM      7  C   UNL     1      46.893   6.111  12.716  0.00  0.00    +0.000 A 
ENDROOT
BRANCH   6   8
ATOM      8  C   UNL     1      45.091   4.904  11.443  0.00  0.00    +0.000 C 
ATOM      9  C   UNL     1      45.048   4.750  10.104  0.00  0.00    +0.000 C 
ATOM     10  C   UNL     1      44.469   3.549   9.417  0.00  0.00    +0.000 C 
ATOM     11  N   UNL     1      44.184   2.419  10.303  0.00  0.00    +0.000 NA
ATOM     12  C   UNL     1      43.589   2.882  11.562  0.00  0.00    +0.000 C 
ATOM     13  C   UNL     1      44.544   3.808  12.330  0.00  0.00    +0.000 C 
ATOM     14  H   UNL     1      45.067   1.954  10.512  0.00  0.00    +0.000 HD
ENDBRANCH   6   8
BRANCH   1  15
ATOM     15  C   UNL     1      48.781   7.201  14.000  0.00  0.00    +0.000 C 
BRANCH  15  16
ATOM     16  O   UNL     1      48.851   6.001  14.772  0.00  0.00    +0.000 OA
BRANCH  16  20
ATOM     17  C   UNL     1      47.861   6.051  18.829  0.00  0.00    +0.000 A 
ATOM     18  C   UNL     1      48.437   7.193  18.269  0.00  0.00    +0.000 A 
ATOM     19  C   UNL     1      48.785   7.221  16.911  0.00  0.00    +0.000 A 
ATOM     20  C   UNL     1      48.561   6.103  16.105  0.00  0.00    +0.000 A 
ATOM     21  C   UNL     1      47.987   4.960  16.671  0.00  0.00    +0.000 A 
ATOM     22  C   UNL     1      47.638   4.929  18.025  0.00  0.00    +0.000 A 
BRANCH  17  24
ATOM     23  N   UNL     1      47.205   6.011  21.340  0.00  0.00    +0.000 NA
ATOM     24  C   UNL     1      47.498   6.032  20.218  0.00  0.00    +0.000 C 
ENDBRANCH  17  24
ENDBRANCH  16  20
ENDBRANCH  15  16
ENDBRANCH   1  15
TORSDOF 5
ENDMDL
MODEL 9
REMARK VINA RESULT:    -5.942      3.964      6.732
REMARK INTER + INTRA:          -8.661
REMARK INTER:                  -7.990
REMARK INTRA:                  -0.672
REMARK UNBOUND:                -0.983
REMARK  Name = 
REMARK  5 active torsions:
REMARK  status: ('A' for Active; 'I' for Inactive)
REMARK    1  A    between atoms: C_2  and  C_3
REMARK    2  A    between atoms: C_6  and  O_7
REMARK    3  A    between atoms: O_7  and  C_8
REMARK    4  A    between atoms: C_8  and  C_9
REMARK    5  A    between atoms: C_14  and  C_15
REMARK                            x       y       z     vdW  Elec       q    Type
REMARK                         _______ _______ _______ _____ _____    ______ ____
ROOT
ATOM      1  C   UNL     1      46.003   4.681  12.971  0.00  0.00    +0.000 A 
ATOM      2  C   UNL     1      45.028   4.019  12.220  0.00  0.00    +0.000 A 
ATOM      3  C   UNL     1      44.160   4.750  11.418  0.00  0.00    +0.000 A 
ATOM      4  F   UNL     1      43.225   4.106  10.706  0.00  0.00    +0.000 F 
ATOM      5  C   UNL     1      44.242   6.136  11.334  0.00  0.00    +0.000 A 
ATOM      6  C   UNL     1      45.216   6.829  12.065  0.00  0.00    +0.000 A 
ATOM      7  C   UNL     1      46.083   6.083  12.885  0.00  0.00    +0.000 A 
ENDROOT
BRANCH   6   8
ATOM      8  C   UNL     1      45.299   8.306  12.011  0.00  0.00    +0.000 C 
ATOM      9  C   UNL     1      44.384   9.053  11.360  0.00  0.00    +0.000 C 
ATOM     10  C   UNL     1      44.448  10.546  11.247  0.00  0.00    +0.000 C 
ATOM     11  N   UNL     1      45.438  11.182  12.119  0.00  0.00    +0.000 NA
ATOM     12  C   UNL     1      46.685  10.409  12.137  0.00  0.00    +0.000 C 
ATOM     13  C   UNL     1      46.463   8.993  12.689  0.00  0.00    +0.000 C 
ATOM     14  H   UNL     1      45.055  11.205  13.063  0.00  0.00    +0.000 HD
ENDBRANCH   6   8
BRANCH   1  15
ATOM     15  C   UNL     1      46.971   3.916  13.842  0.00  0.00    +0.000 C 
BRANCH  15  16
ATOM     16  O   UNL     1      46.518   3.955  15.196  0.00  0.00    +0.000 OA
BRANCH  16  20
ATOM     17  C   UNL     1      49.512   4.438  18.069  0.00  0.00    +0.000 A 
ATOM     18  C   UNL     1      48.798   3.238  18.044  0.00  0.00    +0.000 A 
ATOM     19  C   UNL     1      47.785   3.032  17.097  0.00  0.00    +0.000 A 
ATOM     20  C   UNL     1      47.477   4.029  16.169  0.00  0.00    +0.000 A 
ATOM     21  C   UNL     1      48.192   5.232  16.200  0.00  0.00    +0.000 A 
ATOM     22  C   UNL     1      49.203   5.439  17.143  0.00  0.00    +0.000 A 
BRANCH  17  24
ATOM     23  N   UNL     1      51.393   4.798  19.819  0.00  0.00    +0.000 NA
ATOM     24  C   UNL     1      50.554   4.639  19.035  0.00  0.00    +0.000 C 
ENDBRANCH  17  24
ENDBRANCH  16  20
ENDBRANCH  15  16
ENDBRANCH   1  15
TORSDOF 5
ENDMDL
