MODEL 1
REMARK VINA RESULT:    -8.104      0.000      0.000
REMARK INTER + INTRA:         -11.535
REMARK INTER:                 -10.946
REMARK INTRA:                  -0.589
REMARK UNBOUND:                -0.589
REMARK  Name = 
REMARK  8 active torsions:
REMARK  status: ('A' for Active; 'I' for Inactive)
REMARK    1  A    between atoms: C_1  and  C_2
REMARK    2  A    between atoms: C_2  and  C_3
REMARK    3  A    between atoms: C_2  and  C_14
REMARK    4  A    between atoms: C_3  and  N_4
REMARK    5  A    between atoms: C_8  and  C_9
REMARK    6  A    between atoms: C_18  and  O_19
REMARK    7  A    between atoms: O_19  and  C_20
REMARK    8  A    between atoms: N_22  and  C_23
REMARK                            x       y       z     vdW  Elec       q    Type
REMARK                         _______ _______ _______ _____ _____    ______ ____
ROOT
ATOM      1  C   UNL     1      42.458   5.658  12.172  0.00  0.00    +0.000 C 
ATOM      2  C   UNL     1      43.431   4.479  12.287  0.00  0.00    +0.000 C 
ENDROOT
BRANCH   2   3
ATOM      3  C   UNL     1      44.814   4.970  12.704  0.00  0.00    +0.000 A 
ATOM      4  C   UNL     1      45.194   6.298  12.486  0.00  0.00    +0.000 A 
ATOM      5  C   UNL     1      46.424   6.767  12.957  0.00  0.00    +0.000 A 
ATOM      6  C   UNL     1      47.295   5.916  13.646  0.00  0.00    +0.000 A 
ATOM      7  C   UNL     1      46.946   4.583  13.835  0.00  0.00    +0.000 A 
ATOM      8  C   UNL     1      45.716   4.119  13.368  0.00  0.00    +0.000 A 
BRANCH   7   9
ATOM      9  O   UNL     1      47.694   3.652  14.509  0.00  0.00    +0.000 OA
BRANCH   9  10
ATOM     10  C   UNL     1      47.638   3.607  15.953  0.00  0.00    +0.000 C 
ATOM     11  C   UNL     1      48.430   4.674  16.741  0.00  0.00    +0.000 C 
ATOM     12  N   UNL     1      49.121   3.621  17.511  0.00  0.00    +0.000 NA
ATOM     13  C   UNL     1      48.537   3.484  18.844  0.00  0.00    +0.000 C 
ATOM     14  C   UNL     1      48.595   2.584  16.606  0.00  0.00    +0.000 C 
ENDBRANCH   9  10
ENDBRANCH   7   9
ENDBRANCH   2   3
BRANCH   2  15
ATOM     15  C   UNL     1      43.552   3.671  10.977  0.00  0.00    +0.000 C 
BRANCH  15  16
ATOM     16  N   UNL     1      44.152   4.447   9.882  0.00  0.00    +0.000 N 
ATOM     17  C   UNL     1      44.950   3.644   9.039  0.00  0.00    +0.000 A 
ATOM     18  C   UNL     1      45.604   4.241   7.967  0.00  0.00    +0.000 A 
ATOM     19  C   UNL     1      46.402   3.459   7.129  0.00  0.00    +0.000 A 
ATOM     20  C   UNL     1      46.535   2.091   7.376  0.00  0.00    +0.000 A 
ATOM     21  C   UNL     1      45.840   1.580   8.457  0.00  0.00    +0.000 A 
ATOM     22  N   UNL     1      45.057   2.321   9.277  0.00  0.00    +0.000 NA
ATOM     23  H   UNL     1      44.741   5.199  10.226  0.00  0.00    +0.000 HD
BRANCH  20  24
ATOM     24  C   UNL     1      47.389   1.261   6.497  0.00  0.00    +0.000 C 
ATOM     25  N   UNL     1      48.469   1.828   5.889  0.00  0.00    +0.000 N 
ATOM     26  O   UNL     1      47.131   0.075   6.311  0.00  0.00    +0.000 OA
ATOM     27  H   UNL     1      48.773   2.784   5.974  0.00  0.00    +0.000 HD
ATOM     28  H   UNL     1      49.023   1.218   5.297  0.00  0.00    +0.000 HD
ENDBRANCH  20  24
ENDBRANCH  15  16
ENDBRANCH   2  15
TORSDOF 6
ENDMDL
MODEL 2
REMARK VINA RESULT:    -7.443      2.352      3.322
REMARK INTER + INTRA:         -10.643
REMARK INTER:                  -9.905
REMARK INTRA:                  -0.738
REMARK UNBOUND:                -0.589
REMARK  Name = 
REMARK  8 active torsions:
REMARK  status: ('A' for Active; 'I' for Inactive)
REMARK    1  A    between atoms: C_1  and  C_2
REMARK    2  A    between atoms: C_2  and  C_3
REMARK    3  A    between atoms: C_2  and  C_14
REMARK    4  A    between atoms: C_3  and  N_4
REMARK    5  A    between atoms: C_8  and  C_9
REMARK    6  A    between atoms: C_18  and  O_19
REMARK    7  A    between atoms: O_19  and  C_20
REMARK    8  A    between atoms: N_22  and  C_23
REMARK                            x       y       z     vdW  Elec       q    Type
REMARK                         _______ _______ _______ _____ _____    ______ ____
ROOT
ATOM      1  C   UNL     1      42.410   5.748  12.173  0.00  0.00    +0.000 C 
ATOM      2  C   UNL     1      43.292   4.500  12.282  0.00  0.00    +0.000 C 
ENDROOT
BRANCH   2   3
ATOM      3  C   UNL     1      44.677   4.870  12.803  0.00  0.00    +0.000 A 
ATOM      4  C   UNL     1      45.584   3.876  13.185  0.00  0.00    +0.000 A 
ATOM      5  C   UNL     1      46.884   4.217  13.569  0.00  0.00    +0.000 A 
ATOM      6  C   UNL     1      47.296   5.554  13.583  0.00  0.00    +0.000 A 
ATOM      7  C   UNL     1      46.393   6.555  13.243  0.00  0.00    +0.000 A 
ATOM      8  C   UNL     1      45.096   6.212  12.856  0.00  0.00    +0.000 A 
BRANCH   7   9
ATOM      9  O   UNL     1      46.672   7.897  13.193  0.00  0.00    +0.000 OA
BRANCH   9  10
ATOM     10  C   UNL     1      47.996   8.360  13.542  0.00  0.00    +0.000 C 
ATOM     11  C   UNL     1      48.230   8.861  14.984  0.00  0.00    +0.000 C 
ATOM     12  N   UNL     1      48.763  10.140  14.474  0.00  0.00    +0.000 NA
ATOM     13  C   UNL     1      50.223  10.156  14.537  0.00  0.00    +0.000 C 
ATOM     14  C   UNL     1      48.307   9.811  13.112  0.00  0.00    +0.000 C 
ENDBRANCH   9  10
ENDBRANCH   7   9
ENDBRANCH   2   3
BRANCH   2  15
ATOM     15  C   UNL     1      43.437   3.750  10.940  0.00  0.00    +0.000 C 
BRANCH  15  16
ATOM     16  N   UNL     1      44.124   4.546   9.913  0.00  0.00    +0.000 N 
ATOM     17  C   UNL     1      44.947   3.750   9.088  0.00  0.00    +0.000 A 
ATOM     18  C   UNL     1      45.682   4.365   8.081  0.00  0.00    +0.000 A 
ATOM     19  C   UNL     1      46.505   3.591   7.260  0.00  0.00    +0.000 A 
ATOM     20  C   UNL     1      46.582   2.210   7.461  0.00  0.00    +0.000 A 
ATOM     21  C   UNL     1      45.808   1.682   8.478  0.00  0.00    +0.000 A 
ATOM     22  N   UNL     1      45.000   2.417   9.280  0.00  0.00    +0.000 NA
ATOM     23  H   UNL     1      44.714   5.265  10.321  0.00  0.00    +0.000 HD
BRANCH  20  24
ATOM     24  C   UNL     1      47.461   1.387   6.602  0.00  0.00    +0.000 C 
ATOM     25  N   UNL     1      48.573   1.952   6.050  0.00  0.00    +0.000 N 
ATOM     26  O   UNL     1      47.198   0.208   6.382  0.00  0.00    +0.000 OA
ATOM     27  H   UNL     1      48.884   2.902   6.167  0.00  0.00    +0.000 HD
ATOM     28  H   UNL     1      49.144   1.346   5.469  0.00  0.00    +0.000 HD
ENDBRANCH  20  24
ENDBRANCH  15  16
ENDBRANCH   2  15
TORSDOF 6
ENDMDL
MODEL 3
REMARK VINA RESULT:    -7.167      2.196      8.371
REMARK INTER + INTRA:         -10.269
REMARK INTER:                  -9.789
REMARK INTRA:                  -0.480
REMARK UNBOUND:                -0.589
REMARK  Name = 
REMARK  8 active torsions:
REMARK  status: ('A' for Active; 'I' for Inactive)
REMARK    1  A    between atoms: C_1  and  C_2
REMARK    2  A    between atoms: C_2  and  C_3
REMARK    3  A    between atoms: C_2  and  C_14
REMARK    4  A    between atoms: C_3  and  N_4
REMARK    5  A    between atoms: C_8  and  C_9
REMARK    6  A    between atoms: C_18  and  O_19
REMARK    7  A    between atoms: O_19  and  C_20
REMARK    8  A    between atoms: N_22  and  C_23
REMARK                            x       y       z     vdW  Elec       q    Type
REMARK                         _______ _______ _______ _____ _____    ______ ____
ROOT
ATOM      1  C   UNL     1      46.035   7.980  12.954  0.00  0.00    +0.000 C 
ATOM      2  C   UNL     1      46.491   6.670  12.304  0.00  0.00    +0.000 C 
ENDROOT
BRANCH   2   3
ATOM      3  C   UNL     1      45.294   5.763  12.036  0.00  0.00    +0.000 A 
ATOM      4  C   UNL     1      44.172   5.801  12.870  0.00  0.00    +0.000 A 
ATOM      5  C   UNL     1      43.040   5.040  12.565  0.00  0.00    +0.000 A 
ATOM      6  C   UNL     1      43.015   4.224  11.428  0.00  0.00    +0.000 A 
ATOM      7  C   UNL     1      44.138   4.148  10.612  0.00  0.00    +0.000 A 
ATOM      8  C   UNL     1      45.266   4.912  10.917  0.00  0.00    +0.000 A 
BRANCH   7   9
ATOM      9  O   UNL     1      44.239   3.408   9.461  0.00  0.00    +0.000 OA
BRANCH   9  10
ATOM     10  C   UNL     1      45.543   3.160   8.889  0.00  0.00    +0.000 C 
ATOM     11  C   UNL     1      45.739   3.454   7.385  0.00  0.00    +0.000 C 
ATOM     12  N   UNL     1      46.240   2.084   7.162  0.00  0.00    +0.000 NA
ATOM     13  C   UNL     1      47.697   2.073   7.058  0.00  0.00    +0.000 C 
ATOM     14  C   UNL     1      45.815   1.685   8.516  0.00  0.00    +0.000 C 
ENDBRANCH   9  10
ENDBRANCH   7   9
ENDBRANCH   2   3
BRANCH   2  15
ATOM     15  C   UNL     1      47.527   5.906  13.158  0.00  0.00    +0.000 C 
BRANCH  15  16
ATOM     16  N   UNL     1      46.932   4.803  13.924  0.00  0.00    +0.000 N 
ATOM     17  C   UNL     1      47.467   4.715  15.227  0.00  0.00    +0.000 A 
ATOM     18  C   UNL     1      47.018   3.704  16.069  0.00  0.00    +0.000 A 
ATOM     19  C   UNL     1      47.543   3.600  17.359  0.00  0.00    +0.000 A 
ATOM     20  C   UNL     1      48.512   4.511  17.788  0.00  0.00    +0.000 A 
ATOM     21  C   UNL     1      48.891   5.491  16.889  0.00  0.00    +0.000 A 
ATOM     22  N   UNL     1      48.389   5.610  15.637  0.00  0.00    +0.000 NA
ATOM     23  H   UNL     1      47.082   3.904  13.477  0.00  0.00    +0.000 HD
BRANCH  20  24
ATOM     24  C   UNL     1      49.080   4.399  19.150  0.00  0.00    +0.000 C 
ATOM     25  N   UNL     1      48.469   3.590  20.062  0.00  0.00    +0.000 N 
ATOM     26  O   UNL     1      50.088   5.027  19.463  0.00  0.00    +0.000 OA
ATOM     27  H   UNL     1      47.645   3.030  19.912  0.00  0.00    +0.000 HD
ATOM     28  H   UNL     1      48.897   3.547  20.982  0.00  0.00    +0.000 HD
ENDBRANCH  20  24
ENDBRANCH  15  16
ENDBRANCH   2  15
TORSDOF 6
ENDMDL
MODEL 4
REMARK VINA RESULT:    -7.091      2.202      8.569
REMARK INTER + INTRA:         -10.168
REMARK INTER:                  -9.651
REMARK INTRA:                  -0.517
REMARK UNBOUND:                -0.589
REMARK  Name = 
REMARK  8 active torsions:
REMARK  status: ('A' for Active; 'I' for Inactive)
REMARK    1  A    between atoms: C_1  and  C_2
REMARK    2  A    between atoms: C_2  and  C_3
REMARK    3  A    between atoms: C_2  and  C_14
REMARK    4  A    between atoms: C_3  and  N_4
REMARK    5  A    between atoms: C_8  and  C_9
REMARK    6  A    between atoms: C_18  and  O_19
REMARK    7  A    between atoms: O_19  and  C_20
REMARK    8  A    between atoms: N_22  and  C_23
REMARK                            x       y       z     vdW  Elec       q    Type
REMARK                         _______ _______ _______ _____ _____    ______ ____
ROOT
ATOM      1  C   UNL     1      45.102   7.536  12.337  0.00  0.00    +0.000 C 
ATOM      2  C   UNL     1      46.209   6.837  11.540  0.00  0.00    +0.000 C 
ENDROOT
BRANCH   2   3
ATOM      3  C   UNL     1      45.616   5.754  10.643  0.00  0.00    +0.000 A 
ATOM      4  C   UNL     1      44.431   5.103  11.001  0.00  0.00    +0.000 A 
ATOM      5  C   UNL     1      43.842   4.182  10.129  0.00  0.00    +0.000 A 
ATOM      6  C   UNL     1      44.430   3.893   8.893  0.00  0.00    +0.000 A 
ATOM      7  C   UNL     1      45.629   4.505   8.543  0.00  0.00    +0.000 A 
ATOM      8  C   UNL     1      46.213   5.427   9.413  0.00  0.00    +0.000 A 
BRANCH   7   9
ATOM      9  O   UNL     1      46.297   4.328   7.358  0.00  0.00    +0.000 OA
BRANCH   9  10
ATOM     10  C   UNL     1      46.302   3.025   6.733  0.00  0.00    +0.000 C 
ATOM     11  C   UNL     1      47.285   1.966   7.278  0.00  0.00    +0.000 C 
ATOM     12  N   UNL     1      47.840   1.757   5.927  0.00  0.00    +0.000 NA
ATOM     13  C   UNL     1      47.305   0.535   5.328  0.00  0.00    +0.000 C 
ATOM     14  C   UNL     1      47.119   2.939   5.424  0.00  0.00    +0.000 C 
ENDBRANCH   9  10
ENDBRANCH   7   9
ENDBRANCH   2   3
BRANCH   2  15
ATOM     15  C   UNL     1      47.293   6.211  12.445  0.00  0.00    +0.000 C 
BRANCH  15  16
ATOM     16  N   UNL     1      46.818   5.020  13.163  0.00  0.00    +0.000 N 
ATOM     17  C   UNL     1      47.332   4.954  14.476  0.00  0.00    +0.000 A 
ATOM     18  C   UNL     1      46.990   3.870  15.277  0.00  0.00    +0.000 A 
ATOM     19  C   UNL     1      47.496   3.788  16.576  0.00  0.00    +0.000 A 
ATOM     20  C   UNL     1      48.339   4.794  17.056  0.00  0.00    +0.000 A 
ATOM     21  C   UNL     1      48.618   5.840  16.195  0.00  0.00    +0.000 A 
ATOM     22  N   UNL     1      48.131   5.939  14.935  0.00  0.00    +0.000 NA
ATOM     23  H   UNL     1      47.084   4.160  12.693  0.00  0.00    +0.000 HD
BRANCH  20  24
ATOM     24  C   UNL     1      48.887   4.706  18.427  0.00  0.00    +0.000 C 
ATOM     25  N   UNL     1      48.549   3.645  19.213  0.00  0.00    +0.000 N 
ATOM     26  O   UNL     1      49.637   5.578  18.860  0.00  0.00    +0.000 OA
ATOM     27  H   UNL     1      47.950   2.876  18.960  0.00  0.00    +0.000 HD
ATOM     28  H   UNL     1      48.951   3.630  20.146  0.00  0.00    +0.000 HD
ENDBRANCH  20  24
ENDBRANCH  15  16
ENDBRANCH   2  15
TORSDOF 6
ENDMDL
MODEL 5
REMARK VINA RESULT:    -6.939      2.502      3.064
REMARK INTER + INTRA:          -9.962
REMARK INTER:                  -9.296
REMARK INTRA:                  -0.666
REMARK UNBOUND:                -0.589
REMARK  Name = 
REMARK  8 active torsions:
REMARK  status: ('A' for Active; 'I' for Inactive)
REMARK    1  A    between atoms: C_1  and  C_2
REMARK    2  A    between atoms: C_2  and  C_3
REMARK    3  A    between atoms: C_2  and  C_14
REMARK    4  A    between atoms: C_3  and  N_4
REMARK    5  A    between atoms: C_8  and  C_9
REMARK    6  A    between atoms: C_18  and  O_19
REMARK    7  A    between atoms: O_19  and  C_20
REMARK    8  A    between atoms: N_22  and  C_23
REMARK                            x       y       z     vdW  Elec       q    Type
REMARK                         _______ _______ _______ _____ _____    ______ ____
ROOT
ATOM      1  C   UNL     1      42.882   5.178  12.872  0.00  0.00    +0.000 C 
ATOM      2  C   UNL     1      44.142   4.881  12.053  0.00  0.00    +0.000 C 
ENDROOT
BRANCH   2   3
ATOM      3  C   UNL     1      45.053   6.105  12.015  0.00  0.00    +0.000 A 
ATOM      4  C   UNL     1      44.542   7.363  11.680  0.00  0.00    +0.000 A 
ATOM      5  C   UNL     1      45.359   8.496  11.742  0.00  0.00    +0.000 A 
ATOM      6  C   UNL     1      46.699   8.388  12.130  0.00  0.00    +0.000 A 
ATOM      7  C   UNL     1      47.229   7.138  12.428  0.00  0.00    +0.000 A 
ATOM      8  C   UNL     1      46.410   6.009  12.370  0.00  0.00    +0.000 A 
BRANCH   7   9
ATOM      9  O   UNL     1      48.514   6.895  12.841  0.00  0.00    +0.000 OA
BRANCH   9  10
ATOM     10  C   UNL     1      49.160   7.830  13.735  0.00  0.00    +0.000 C 
ATOM     11  C   UNL     1      50.627   8.215  13.443  0.00  0.00    +0.000 C 
ATOM     12  N   UNL     1      51.022   7.830  14.812  0.00  0.00    +0.000 NA
ATOM     13  C   UNL     1      51.182   9.011  15.658  0.00  0.00    +0.000 C 
ATOM     14  C   UNL     1      49.707   7.205  15.039  0.00  0.00    +0.000 C 
ENDBRANCH   9  10
ENDBRANCH   7   9
ENDBRANCH   2   3
BRANCH   2  15
ATOM     15  C   UNL     1      43.827   4.437  10.607  0.00  0.00    +0.000 C 
BRANCH  15  16
ATOM     16  N   UNL     1      44.101   3.012  10.376  0.00  0.00    +0.000 N 
ATOM     17  C   UNL     1      44.983   2.811   9.293  0.00  0.00    +0.000 A 
ATOM     18  C   UNL     1      45.321   1.511   8.936  0.00  0.00    +0.000 A 
ATOM     19  C   UNL     1      46.188   1.297   7.862  0.00  0.00    +0.000 A 
ATOM     20  C   UNL     1      46.703   2.388   7.159  0.00  0.00    +0.000 A 
ATOM     21  C   UNL     1      46.322   3.646   7.590  0.00  0.00    +0.000 A 
ATOM     22  N   UNL     1      45.487   3.873   8.633  0.00  0.00    +0.000 NA
ATOM     23  H   UNL     1      43.254   2.489  10.175  0.00  0.00    +0.000 HD
BRANCH  20  24
ATOM     24  C   UNL     1      47.613   2.167   6.013  0.00  0.00    +0.000 C 
ATOM     25  N   UNL     1      47.766   3.153   5.084  0.00  0.00    +0.000 N 
ATOM     26  O   UNL     1      48.223   1.108   5.892  0.00  0.00    +0.000 OA
ATOM     27  H   UNL     1      47.320   4.056   5.087  0.00  0.00    +0.000 HD
ATOM     28  H   UNL     1      48.401   2.953   4.317  0.00  0.00    +0.000 HD
ENDBRANCH  20  24
ENDBRANCH  15  16
ENDBRANCH   2  15
TORSDOF 6
ENDMDL
MODEL 6
REMARK VINA RESULT:    -6.496      2.766      8.987
REMARK INTER + INTRA:          -9.364
REMARK INTER:                  -8.691
REMARK INTRA:                  -0.674
REMARK UNBOUND:                -0.589
REMARK  Name = 
REMARK  8 active torsions:
REMARK  status: ('A' for Active; 'I' for Inactive)
REMARK    1  A    between atoms: C_1  and  C_2
REMARK    2  A    between atoms: C_2  and  C_3
REMARK    3  A    between atoms: C_2  and  C_14
REMARK    4  A    between atoms: C_3  and  N_4
REMARK    5  A    between atoms: C_8  and  C_9
REMARK    6  A    between atoms: C_18  and  O_19
REMARK    7  A    between atoms: O_19  and  C_20
REMARK    8  A    between atoms: N_22  and  C_23
REMARK                            x       y       z     vdW  Elec       q    Type
REMARK                         _______ _______ _______ _____ _____    ______ ____
ROOT
ATOM      1  C   UNL     1      49.507   7.501  12.541  0.00  0.00    +0.000 C 
ATOM      2  C   UNL     1      48.392   6.628  13.126  0.00  0.00    +0.000 C 
ENDROOT
BRANCH   2   3
ATOM      3  C   UNL     1      47.033   7.078  12.599  0.00  0.00    +0.000 A 
ATOM      4  C   UNL     1      46.644   8.419  12.685  0.00  0.00    +0.000 A 
ATOM      5  C   UNL     1      45.440   8.842  12.113  0.00  0.00    +0.000 A 
ATOM      6  C   UNL     1      44.605   7.933  11.455  0.00  0.00    +0.000 A 
ATOM      7  C   UNL     1      44.961   6.590  11.397  0.00  0.00    +0.000 A 
ATOM      8  C   UNL     1      46.166   6.171  11.965  0.00  0.00    +0.000 A 
BRANCH   7   9
ATOM      9  O   UNL     1      44.248   5.603  10.767  0.00  0.00    +0.000 OA
BRANCH   9  10
ATOM     10  C   UNL     1      44.953   4.501  10.152  0.00  0.00    +0.000 C 
ATOM     11  C   UNL     1      44.533   4.080   8.726  0.00  0.00    +0.000 C 
ATOM     12  N   UNL     1      44.335   2.688   9.174  0.00  0.00    +0.000 NA
ATOM     13  C   UNL     1      45.465   1.849   8.779  0.00  0.00    +0.000 C 
ATOM     14  C   UNL     1      44.463   3.100  10.582  0.00  0.00    +0.000 C 
ENDBRANCH   9  10
ENDBRANCH   7   9
ENDBRANCH   2   3
BRANCH   2  15
ATOM     15  C   UNL     1      48.369   6.642  14.671  0.00  0.00    +0.000 C 
BRANCH  15  16
ATOM     16  N   UNL     1      47.749   5.439  15.242  0.00  0.00    +0.000 N 
ATOM     17  C   UNL     1      48.116   5.244  16.591  0.00  0.00    +0.000 A 
ATOM     18  C   UNL     1      47.626   4.131  17.265  0.00  0.00    +0.000 A 
ATOM     19  C   UNL     1      47.985   3.922  18.598  0.00  0.00    +0.000 A 
ATOM     20  C   UNL     1      48.832   4.831  19.238  0.00  0.00    +0.000 A 
ATOM     21  C   UNL     1      49.263   5.915  18.495  0.00  0.00    +0.000 A 
ATOM     22  N   UNL     1      48.920   6.136  17.204  0.00  0.00    +0.000 NA
ATOM     23  H   UNL     1      48.011   4.598  14.735  0.00  0.00    +0.000 HD
BRANCH  20  24
ATOM     24  C   UNL     1      49.225   4.608  20.647  0.00  0.00    +0.000 C 
ATOM     25  N   UNL     1      50.549   4.541  20.966  0.00  0.00    +0.000 N 
ATOM     26  O   UNL     1      48.374   4.481  21.523  0.00  0.00    +0.000 OA
ATOM     27  H   UNL     1      51.326   4.636  20.332  0.00  0.00    +0.000 HD
ATOM     28  H   UNL     1      50.768   4.388  21.946  0.00  0.00    +0.000 HD
ENDBRANCH  20  24
ENDBRANCH  15  16
ENDBRANCH   2  15
TORSDOF 6
ENDMDL
MODEL 7
REMARK VINA RESULT:    -6.374      2.800      7.842
REMARK INTER + INTRA:          -9.199
REMARK INTER:                  -8.229
REMARK INTRA:                  -0.970
REMARK UNBOUND:                -0.589
REMARK  Name = 
REMARK  8 active torsions:
REMARK  status: ('A' for Active; 'I' for Inactive)
REMARK    1  A    between atoms: C_1  and  C_2
REMARK    2  A    between atoms: C_2  and  C_3
REMARK    3  A    between atoms: C_2  and  C_14
REMARK    4  A    between atoms: C_3  and  N_4
REMARK    5  A    between atoms: C_8  and  C_9
REMARK    6  A    between atoms: C_18  and  O_19
REMARK    7  A    between atoms: O_19  and  C_20
REMARK    8  A    between atoms: N_22  and  C_23
REMARK                            x       y       z     vdW  Elec       q    Type
REMARK                         _______ _______ _______ _____ _____    ______ ____
ROOT
ATOM      1  C   UNL     1      48.652   9.886  12.649  0.00  0.00    +0.000 C 
ATOM      2  C   UNL     1      48.289   8.590  11.917  0.00  0.00    +0.000 C 
ENDROOT
BRANCH   2   3
ATOM      3  C   UNL     1      46.774   8.438  11.823  0.00  0.00    +0.000 A 
ATOM      4  C   UNL     1      45.958   9.556  11.623  0.00  0.00    +0.000 A 
ATOM      5  C   UNL     1      44.580   9.401  11.440  0.00  0.00    +0.000 A 
ATOM      6  C   UNL     1      43.997   8.129  11.461  0.00  0.00    +0.000 A 
ATOM      7  C   UNL     1      44.792   7.013  11.698  0.00  0.00    +0.000 A 
ATOM      8  C   UNL     1      46.168   7.170  11.875  0.00  0.00    +0.000 A 
BRANCH   7   9
ATOM      9  O   UNL     1      44.354   5.713  11.722  0.00  0.00    +0.000 OA
BRANCH   9  10
ATOM     10  C   UNL     1      44.904   4.762  10.782  0.00  0.00    +0.000 C 
ATOM     11  C   UNL     1      44.014   4.316   9.601  0.00  0.00    +0.000 C 
ATOM     12  N   UNL     1      44.212   2.898   9.960  0.00  0.00    +0.000 NA
ATOM     13  C   UNL     1      45.197   2.272   9.081  0.00  0.00    +0.000 C 
ATOM     14  C   UNL     1      44.832   3.287  11.239  0.00  0.00    +0.000 C 
ENDBRANCH   9  10
ENDBRANCH   7   9
ENDBRANCH   2   3
BRANCH   2  15
ATOM     15  C   UNL     1      48.884   7.334  12.591  0.00  0.00    +0.000 C 
BRANCH  15  16
ATOM     16  N   UNL     1      49.341   7.587  13.965  0.00  0.00    +0.000 N 
ATOM     17  C   UNL     1      48.850   6.624  14.872  0.00  0.00    +0.000 A 
ATOM     18  C   UNL     1      49.178   6.742  16.218  0.00  0.00    +0.000 A 
ATOM     19  C   UNL     1      48.693   5.800  17.128  0.00  0.00    +0.000 A 
ATOM     20  C   UNL     1      47.885   4.753  16.678  0.00  0.00    +0.000 A 
ATOM     21  C   UNL     1      47.618   4.708  15.322  0.00  0.00    +0.000 A 
ATOM     22  N   UNL     1      48.085   5.609  14.424  0.00  0.00    +0.000 NA
ATOM     23  H   UNL     1      49.045   8.498  14.303  0.00  0.00    +0.000 HD
BRANCH  20  24
ATOM     24  C   UNL     1      47.360   3.759  17.640  0.00  0.00    +0.000 C 
ATOM     25  N   UNL     1      47.932   3.659  18.874  0.00  0.00    +0.000 N 
ATOM     26  O   UNL     1      46.421   3.028  17.336  0.00  0.00    +0.000 OA
ATOM     27  H   UNL     1      48.699   4.208  19.227  0.00  0.00    +0.000 HD
ATOM     28  H   UNL     1      47.536   2.962  19.497  0.00  0.00    +0.000 HD
ENDBRANCH  20  24
ENDBRANCH  15  16
ENDBRANCH   2  15
TORSDOF 6
ENDMDL
MODEL 8
REMARK VINA RESULT:    -6.133      3.683      5.639
REMARK INTER + INTRA:          -8.874
REMARK INTER:                  -8.173
REMARK INTRA:                  -0.700
REMARK UNBOUND:                -0.589
REMARK  Name = 
REMARK  8 active torsions:
REMARK  status: ('A' for Active; 'I' for Inactive)
REMARK    1  A    between atoms: C_1  and  C_2
REMARK    2  A    between atoms: C_2  and  C_3
REMARK    3  A    between atoms: C_2  and  C_14
REMARK    4  A    between atoms: C_3  and  N_4
REMARK    5  A    between atoms: C_8  and  C_9
REMARK    6  A    between atoms: C_18  and  O_19
REMARK    7  A    between atoms: O_19  and  C_20
REMARK    8  A    between atoms: N_22  and  C_23
REMARK                            x       y       z     vdW  Elec       q    Type
REMARK                         _______ _______ _______ _____ _____    ______ ____
ROOT
ATOM      1  C   UNL     1      50.616   8.423  14.961  0.00  0.00    +0.000 C 
ATOM      2  C   UNL     1      49.126   8.097  15.110  0.00  0.00    +0.000 C 
ENDROOT
BRANCH   2   3
ATOM      3  C   UNL     1      48.850   7.483  16.479  0.00  0.00    +0.000 A 
ATOM      4  C   UNL     1      48.872   8.274  17.631  0.00  0.00    +0.000 A 
ATOM      5  C   UNL     1      48.523   7.727  18.870  0.00  0.00    +0.000 A 
ATOM      6  C   UNL     1      48.153   6.382  18.976  0.00  0.00    +0.000 A 
ATOM      7  C   UNL     1      48.164   5.575  17.844  0.00  0.00    +0.000 A 
ATOM      8  C   UNL     1      48.509   6.125  16.608  0.00  0.00    +0.000 A 
BRANCH   7   9
ATOM      9  O   UNL     1      47.803   4.252  17.805  0.00  0.00    +0.000 OA
BRANCH   9  10
ATOM     10  C   UNL     1      48.817   3.235  17.972  0.00  0.00    +0.000 C 
ATOM     11  C   UNL     1      50.291   3.642  17.759  0.00  0.00    +0.000 C 
ATOM     12  N   UNL     1      50.470   2.558  16.774  0.00  0.00    +0.000 NA
ATOM     13  C   UNL     1      51.169   1.422  17.372  0.00  0.00    +0.000 C 
ATOM     14  C   UNL     1      49.017   2.315  16.746  0.00  0.00    +0.000 C 
ENDBRANCH   9  10
ENDBRANCH   7   9
ENDBRANCH   2   3
BRANCH   2  15
ATOM     15  C   UNL     1      48.610   7.142  14.011  0.00  0.00    +0.000 C 
BRANCH  15  16
ATOM     16  N   UNL     1      47.432   7.667  13.307  0.00  0.00    +0.000 N 
ATOM     17  C   UNL     1      46.512   6.648  12.982  0.00  0.00    +0.000 A 
ATOM     18  C   UNL     1      45.353   6.985  12.291  0.00  0.00    +0.000 A 
ATOM     19  C   UNL     1      44.436   5.986  11.957  0.00  0.00    +0.000 A 
ATOM     20  C   UNL     1      44.693   4.661  12.318  0.00  0.00    +0.000 A 
ATOM     21  C   UNL     1      45.865   4.418  13.012  0.00  0.00    +0.000 A 
ATOM     22  N   UNL     1      46.762   5.375  13.349  0.00  0.00    +0.000 NA
ATOM     23  H   UNL     1      47.682   8.133  12.440  0.00  0.00    +0.000 HD
BRANCH  20  24
ATOM     24  C   UNL     1      43.731   3.597  11.956  0.00  0.00    +0.000 C 
ATOM     25  N   UNL     1      43.827   2.379  12.561  0.00  0.00    +0.000 N 
ATOM     26  O   UNL     1      42.856   3.801  11.119  0.00  0.00    +0.000 OA
ATOM     27  H   UNL     1      44.499   2.106  13.260  0.00  0.00    +0.000 HD
ATOM     28  H   UNL     1      43.144   1.682  12.279  0.00  0.00    +0.000 HD
ENDBRANCH  20  24
ENDBRANCH  15  16
ENDBRANCH   2  15
TORSDOF 6
ENDMDL
MODEL 9
REMARK VINA RESULT:    -6.130      3.998      6.500
REMARK INTER + INTRA:          -8.869
REMARK INTER:                  -8.134
REMARK INTRA:                  -0.735
REMARK UNBOUND:                -0.589
REMARK  Name = 
REMARK  8 active torsions:
REMARK  status: ('A' for Active; 'I' for Inactive)
REMARK    1  A    between atoms: C_1  and  C_2
REMARK    2  A    between atoms: C_2  and  C_3
REMARK    3  A    between atoms: C_2  and  C_14
REMARK    4  A    between atoms: C_3  and  N_4
REMARK    5  A    between atoms: C_8  and  C_9
REMARK    6  A    between atoms: C_18  and  O_19
REMARK    7  A    between atoms: O_19  and  C_20
REMARK    8  A    between atoms: N_22  and  C_23
REMARK                            x       y       z     vdW  Elec       q    Type
REMARK                         _______ _______ _______ _____ _____    ______ ____
ROOT
ATOM      1  C   UNL     1      47.118   4.773  17.780  0.00  0.00    +0.000 C 
ATOM      2  C   UNL     1      47.607   3.502  17.077  0.00  0.00    +0.000 C 
ENDROOT
BRANCH   2   3
ATOM      3  C   UNL     1      49.084   3.264  17.376  0.00  0.00    +0.000 A 
ATOM      4  C   UNL     1      49.687   2.043  17.057  0.00  0.00    +0.000 A 
ATOM      5  C   UNL     1      51.061   1.865  17.243  0.00  0.00    +0.000 A 
ATOM      6  C   UNL     1      51.852   2.899  17.756  0.00  0.00    +0.000 A 
ATOM      7  C   UNL     1      51.258   4.105  18.113  0.00  0.00    +0.000 A 
ATOM      8  C   UNL     1      49.886   4.282  17.922  0.00  0.00    +0.000 A 
BRANCH   7   9
ATOM      9  O   UNL     1      51.917   5.203  18.604  0.00  0.00    +0.000 OA
BRANCH   9  10
ATOM     10  C   UNL     1      51.785   6.472  17.923  0.00  0.00    +0.000 C 
ATOM     11  C   UNL     1      52.351   6.586  16.491  0.00  0.00    +0.000 C 
ATOM     12  N   UNL     1      53.155   7.760  16.880  0.00  0.00    +0.000 NA
ATOM     13  C   UNL     1      52.525   8.997  16.422  0.00  0.00    +0.000 C 
ATOM     14  C   UNL     1      52.854   7.522  18.302  0.00  0.00    +0.000 C 
ENDBRANCH   9  10
ENDBRANCH   7   9
ENDBRANCH   2   3
BRANCH   2  15
ATOM     15  C   UNL     1      47.398   3.545  15.548  0.00  0.00    +0.000 C 
BRANCH  15  16
ATOM     16  N   UNL     1      47.408   4.912  15.009  0.00  0.00    +0.000 N 
ATOM     17  C   UNL     1      46.415   5.100  14.024  0.00  0.00    +0.000 A 
ATOM     18  C   UNL     1      46.313   6.340  13.402  0.00  0.00    +0.000 A 
ATOM     19  C   UNL     1      45.339   6.538  12.421  0.00  0.00    +0.000 A 
ATOM     20  C   UNL     1      44.481   5.492  12.075  0.00  0.00    +0.000 A 
ATOM     21  C   UNL     1      44.647   4.297  12.751  0.00  0.00    +0.000 A 
ATOM     22  N   UNL     1      45.581   4.089  13.710  0.00  0.00    +0.000 NA
ATOM     23  H   UNL     1      48.300   5.148  14.585  0.00  0.00    +0.000 HD
BRANCH  20  24
ATOM     24  C   UNL     1      43.456   5.694  11.027  0.00  0.00    +0.000 C 
ATOM     25  N   UNL     1      42.680   6.815  11.061  0.00  0.00    +0.000 N 
ATOM     26  O   UNL     1      43.297   4.863  10.137  0.00  0.00    +0.000 OA
ATOM     27  H   UNL     1      42.728   7.558  11.739  0.00  0.00    +0.000 HD
ATOM     28  H   UNL     1      41.992   6.907  10.321  0.00  0.00    +0.000 HD
ENDBRANCH  20  24
ENDBRANCH  15  16
ENDBRANCH   2  15
TORSDOF 6
ENDMDL
