MODEL 1
REMARK VINA RESULT:    -7.659      0.000      0.000
REMARK INTER + INTRA:         -11.916
REMARK INTER:                 -11.241
REMARK INTRA:                  -0.675
REMARK UNBOUND:                -0.675
REMARK  Name = 
REMARK  9 active torsions:
REMARK  status: ('A' for Active; 'I' for Inactive)
REMARK    1  A    between atoms: C_1  and  O_2
REMARK    2  A    between atoms: O_2  and  C_3
REMARK    3  A    between atoms: C_5  and  C_6
REMARK    4  A    between atoms: C_12  and  C_13
REMARK    5  A    between atoms: C_17  and  C_18
REMARK    6  A    between atoms: C_18  and  C_19
REMARK    7  A    between atoms: C_19  and  O_20
REMARK    8  A    between atoms: O_20  and  C_21
REMARK    9  A    between atoms: C_25  and  C_26
REMARK                            x       y       z     vdW  Elec       q    Type
REMARK                         _______ _______ _______ _____ _____    ______ ____
ROOT
ATOM      1  C   UNL     1      46.876   5.599  13.647  0.00  0.00    +0.000 A 
ATOM      2  C   UNL     1      47.597   6.372  12.727  0.00  0.00    +0.000 A 
ATOM      3  C   UNL     1      46.975   6.931  11.607  0.00  0.00    +0.000 A 
ATOM      4  C   UNL     1      45.617   6.709  11.366  0.00  0.00    +0.000 A 
ATOM      5  C   UNL     1      44.871   5.901  12.227  0.00  0.00    +0.000 A 
ATOM      6  C   UNL     1      45.524   5.360  13.352  0.00  0.00    +0.000 A 
ENDROOT
BRANCH   1  12
ATOM      7  C   UNL     1      48.387   5.809  15.702  0.00  0.00    +0.000 A 
ATOM      8  N   UNL     1      48.998   5.271  16.787  0.00  0.00    +0.000 NA
ATOM      9  C   UNL     1      48.740   3.958  17.041  0.00  0.00    +0.000 A 
ATOM     10  C   UNL     1      47.880   3.232  16.230  0.00  0.00    +0.000 A 
ATOM     11  N   UNL     1      47.262   3.763  15.148  0.00  0.00    +0.000 NA
ATOM     12  C   UNL     1      47.515   5.076  14.876  0.00  0.00    +0.000 A 
BRANCH   9  13
ATOM     13  C   UNL     1      49.398   3.254  18.204  0.00  0.00    +0.000 C 
ATOM     14  F   UNL     1      50.327   4.005  18.859  0.00  0.00    +0.000 F 
ATOM     15  F   UNL     1      48.500   2.860  19.152  0.00  0.00    +0.000 F 
ATOM     16  F   UNL     1      50.046   2.115  17.821  0.00  0.00    +0.000 F 
ENDBRANCH   9  13
BRANCH   7  18
ATOM     17  C   UNL     1      50.009   7.449  15.309  0.00  0.00    +0.000 C 
ATOM     18  O   UNL     1      48.625   7.140  15.433  0.00  0.00    +0.000 OA
ENDBRANCH   7  18
ENDBRANCH   1  12
BRANCH   5  19
ATOM     19  C   UNL     1      43.408   5.618  11.922  0.00  0.00    +0.000 C 
BRANCH  19  20
ATOM     20  C   UNL     1      43.185   5.002  10.537  0.00  0.00    +0.000 C 
BRANCH  20  21
ATOM     21  O   UNL     1      43.544   3.623  10.474  0.00  0.00    +0.000 OA
BRANCH  21  22
ATOM     22  C   UNL     1      44.485   3.330   9.515  0.00  0.00    +0.000 A 
ATOM     23  C   UNL     1      44.952   4.388   8.752  0.00  0.00    +0.000 A 
ATOM     24  N   UNL     1      45.868   4.265   7.756  0.00  0.00    +0.000 NA
ATOM     25  C   UNL     1      46.343   3.020   7.509  0.00  0.00    +0.000 A 
ATOM     26  C   UNL     1      45.946   1.899   8.216  0.00  0.00    +0.000 A 
ATOM     27  C   UNL     1      45.001   2.061   9.238  0.00  0.00    +0.000 A 
BRANCH  26  28
ATOM     28  C   UNL     1      46.480   0.608   7.903  0.00  0.00    +0.000 C 
ATOM     29  N   UNL     1      46.916  -0.432   7.639  0.00  0.00    +0.000 NA
ENDBRANCH  26  28
ENDBRANCH  21  22
ENDBRANCH  20  21
ENDBRANCH  19  20
ENDBRANCH   5  19
TORSDOF 8
ENDMDL
MODEL 2
REMARK VINA RESULT:    -7.188      4.545      5.695
REMARK INTER + INTRA:         -11.226
REMARK INTER:                 -10.582
REMARK INTRA:                  -0.644
REMARK UNBOUND:                -0.675
REMARK  Name = 
REMARK  9 active torsions:
REMARK  status: ('A' for Active; 'I' for Inactive)
REMARK    1  A    between atoms: C_1  and  O_2
REMARK    2  A    between atoms: O_2  and  C_3
REMARK    3  A    between atoms: C_5  and  C_6
REMARK    4  A    between atoms: C_12  and  C_13
REMARK    5  A    between atoms: C_17  and  C_18
REMARK    6  A    between atoms: C_18  and  C_19
REMARK    7  A    between atoms: C_19  and  O_20
REMARK    8  A    between atoms: O_20  and  C_21
REMARK    9  A    between atoms: C_25  and  C_26
REMARK                            x       y       z     vdW  Elec       q    Type
REMARK                         _______ _______ _______ _____ _____    ______ ____
ROOT
ATOM      1  C   UNL     1      46.686   6.833  12.821  0.00  0.00    +0.000 A 
ATOM      2  C   UNL     1      47.489   5.833  13.385  0.00  0.00    +0.000 A 
ATOM      3  C   UNL     1      46.957   4.587  13.731  0.00  0.00    +0.000 A 
ATOM      4  C   UNL     1      45.599   4.320  13.543  0.00  0.00    +0.000 A 
ATOM      5  C   UNL     1      44.750   5.306  13.034  0.00  0.00    +0.000 A 
ATOM      6  C   UNL     1      45.318   6.547  12.686  0.00  0.00    +0.000 A 
ENDROOT
BRANCH   1  12
ATOM      7  C   UNL     1      46.548   9.326  12.255  0.00  0.00    +0.000 A 
ATOM      8  N   UNL     1      47.106  10.470  11.788  0.00  0.00    +0.000 NA
ATOM      9  C   UNL     1      48.416  10.402  11.420  0.00  0.00    +0.000 A 
ATOM     10  C   UNL     1      49.128   9.218  11.542  0.00  0.00    +0.000 A 
ATOM     11  N   UNL     1      48.579   8.072  12.011  0.00  0.00    +0.000 NA
ATOM     12  C   UNL     1      47.266   8.122  12.378  0.00  0.00    +0.000 A 
BRANCH   9  13
ATOM     13  C   UNL     1      49.121  11.611  10.855  0.00  0.00    +0.000 C 
ATOM     14  F   UNL     1      49.841  12.319  11.770  0.00  0.00    +0.000 F 
ATOM     15  F   UNL     1      49.996  11.288   9.859  0.00  0.00    +0.000 F 
ATOM     16  F   UNL     1      48.251  12.505  10.298  0.00  0.00    +0.000 F 
ENDBRANCH   9  13
BRANCH   7  18
ATOM     17  C   UNL     1      44.435  10.242  11.839  0.00  0.00    +0.000 C 
ATOM     18  O   UNL     1      45.226   9.375  12.644  0.00  0.00    +0.000 OA
ENDBRANCH   7  18
ENDBRANCH   1  12
BRANCH   5  19
ATOM     19  C   UNL     1      43.263   5.023  12.889  0.00  0.00    +0.000 C 
BRANCH  19  20
ATOM     20  C   UNL     1      42.836   4.747  11.444  0.00  0.00    +0.000 C 
BRANCH  20  21
ATOM     21  O   UNL     1      43.131   3.418  11.017  0.00  0.00    +0.000 OA
BRANCH  21  22
ATOM     22  C   UNL     1      44.079   3.345  10.024  0.00  0.00    +0.000 A 
ATOM     23  C   UNL     1      44.432   4.533   9.404  0.00  0.00    +0.000 A 
ATOM     24  N   UNL     1      45.339   4.629   8.397  0.00  0.00    +0.000 NA
ATOM     25  C   UNL     1      45.924   3.478   7.987  0.00  0.00    +0.000 A 
ATOM     26  C   UNL     1      45.646   2.241   8.541  0.00  0.00    +0.000 A 
ATOM     27  C   UNL     1      44.707   2.178   9.579  0.00  0.00    +0.000 A 
BRANCH  26  28
ATOM     28  C   UNL     1      46.293   1.059   8.059  0.00  0.00    +0.000 C 
ATOM     29  N   UNL     1      46.815   0.096   7.681  0.00  0.00    +0.000 NA
ENDBRANCH  26  28
ENDBRANCH  21  22
ENDBRANCH  20  21
ENDBRANCH  19  20
ENDBRANCH   5  19
TORSDOF 8
ENDMDL
MODEL 3
REMARK VINA RESULT:    -7.179      1.826      2.627
REMARK INTER + INTRA:         -11.212
REMARK INTER:                 -10.838
REMARK INTRA:                  -0.375
REMARK UNBOUND:                -0.675
REMARK  Name = 
REMARK  9 active torsions:
REMARK  status: ('A' for Active; 'I' for Inactive)
REMARK    1  A    between atoms: C_1  and  O_2
REMARK    2  A    between atoms: O_2  and  C_3
REMARK    3  A    between atoms: C_5  and  C_6
REMARK    4  A    between atoms: C_12  and  C_13
REMARK    5  A    between atoms: C_17  and  C_18
REMARK    6  A    between atoms: C_18  and  C_19
REMARK    7  A    between atoms: C_19  and  O_20
REMARK    8  A    between atoms: O_20  and  C_21
REMARK    9  A    between atoms: C_25  and  C_26
REMARK                            x       y       z     vdW  Elec       q    Type
REMARK                         _______ _______ _______ _____ _____    ______ ____
ROOT
ATOM      1  C   UNL     1      46.735   5.787  13.717  0.00  0.00    +0.000 A 
ATOM      2  C   UNL     1      46.293   6.952  13.076  0.00  0.00    +0.000 A 
ATOM      3  C   UNL     1      45.170   6.938  12.241  0.00  0.00    +0.000 A 
ATOM      4  C   UNL     1      44.477   5.748  12.007  0.00  0.00    +0.000 A 
ATOM      5  C   UNL     1      44.914   4.552  12.582  0.00  0.00    +0.000 A 
ATOM      6  C   UNL     1      46.041   4.601  13.426  0.00  0.00    +0.000 A 
ENDROOT
BRANCH   1  12
ATOM      7  C   UNL     1      47.989   5.005  15.807  0.00  0.00    +0.000 A 
ATOM      8  N   UNL     1      49.020   5.110  16.681  0.00  0.00    +0.000 NA
ATOM      9  C   UNL     1      49.951   6.067  16.412  0.00  0.00    +0.000 A 
ATOM     10  C   UNL     1      49.841   6.869  15.286  0.00  0.00    +0.000 A 
ATOM     11  N   UNL     1      48.817   6.769  14.406  0.00  0.00    +0.000 NA
ATOM     12  C   UNL     1      47.872   5.819  14.665  0.00  0.00    +0.000 A 
BRANCH   9  13
ATOM     13  C   UNL     1      51.120   6.288  17.342  0.00  0.00    +0.000 C 
ATOM     14  F   UNL     1      51.150   5.446  18.413  0.00  0.00    +0.000 F 
ATOM     15  F   UNL     1      52.322   6.140  16.716  0.00  0.00    +0.000 F 
ATOM     16  F   UNL     1      51.135   7.550  17.864  0.00  0.00    +0.000 F 
ENDBRANCH   9  13
BRANCH   7  18
ATOM     17  C   UNL     1      47.165   3.444  17.342  0.00  0.00    +0.000 C 
ATOM     18  O   UNL     1      47.041   4.035  16.054  0.00  0.00    +0.000 OA
ENDBRANCH   7  18
ENDBRANCH   1  12
BRANCH   5  19
ATOM     19  C   UNL     1      44.186   3.254  12.274  0.00  0.00    +0.000 C 
BRANCH  19  20
ATOM     20  C   UNL     1      43.643   3.187  10.842  0.00  0.00    +0.000 C 
BRANCH  20  21
ATOM     21  O   UNL     1      44.278   2.186  10.049  0.00  0.00    +0.000 OA
BRANCH  21  22
ATOM     22  C   UNL     1      45.116   2.685   9.079  0.00  0.00    +0.000 A 
ATOM     23  C   UNL     1      45.148   4.061   8.925  0.00  0.00    +0.000 A 
ATOM     24  N   UNL     1      45.909   4.709   8.005  0.00  0.00    +0.000 NA
ATOM     25  C   UNL     1      46.678   3.942   7.195  0.00  0.00    +0.000 A 
ATOM     26  C   UNL     1      46.722   2.561   7.268  0.00  0.00    +0.000 A 
ATOM     27  C   UNL     1      45.926   1.925   8.231  0.00  0.00    +0.000 A 
BRANCH  26  28
ATOM     28  C   UNL     1      47.550   1.805   6.380  0.00  0.00    +0.000 C 
ATOM     29  N   UNL     1      48.227   1.204   5.656  0.00  0.00    +0.000 NA
ENDBRANCH  26  28
ENDBRANCH  21  22
ENDBRANCH  20  21
ENDBRANCH  19  20
ENDBRANCH   5  19
TORSDOF 8
ENDMDL
MODEL 4
REMARK VINA RESULT:    -6.992      4.096      7.551
REMARK INTER + INTRA:         -10.938
REMARK INTER:                  -9.658
REMARK INTRA:                  -1.280
REMARK UNBOUND:                -0.675
REMARK  Name = 
REMARK  9 active torsions:
REMARK  status: ('A' for Active; 'I' for Inactive)
REMARK    1  A    between atoms: C_1  and  O_2
REMARK    2  A    between atoms: O_2  and  C_3
REMARK    3  A    between atoms: C_5  and  C_6
REMARK    4  A    between atoms: C_12  and  C_13
REMARK    5  A    between atoms: C_17  and  C_18
REMARK    6  A    between atoms: C_18  and  C_19
REMARK    7  A    between atoms: C_19  and  O_20
REMARK    8  A    between atoms: O_20  and  C_21
REMARK    9  A    between atoms: C_25  and  C_26
REMARK                            x       y       z     vdW  Elec       q    Type
REMARK                         _______ _______ _______ _____ _____    ______ ____
ROOT
ATOM      1  C   UNL     1      48.237   6.696  13.432  0.00  0.00    +0.000 A 
ATOM      2  C   UNL     1      49.201   7.204  12.551  0.00  0.00    +0.000 A 
ATOM      3  C   UNL     1      50.367   7.814  13.026  0.00  0.00    +0.000 A 
ATOM      4  C   UNL     1      50.584   7.953  14.399  0.00  0.00    +0.000 A 
ATOM      5  C   UNL     1      49.625   7.510  15.314  0.00  0.00    +0.000 A 
ATOM      6  C   UNL     1      48.467   6.891  14.804  0.00  0.00    +0.000 A 
ENDROOT
BRANCH   1  12
ATOM      7  C   UNL     1      45.997   6.570  12.201  0.00  0.00    +0.000 A 
ATOM      8  N   UNL     1      44.892   5.886  11.812  0.00  0.00    +0.000 NA
ATOM      9  C   UNL     1      44.830   4.575  12.178  0.00  0.00    +0.000 A 
ATOM     10  C   UNL     1      45.861   3.987  12.895  0.00  0.00    +0.000 A 
ATOM     11  N   UNL     1      46.969   4.661  13.283  0.00  0.00    +0.000 NA
ATOM     12  C   UNL     1      47.044   5.978  12.930  0.00  0.00    +0.000 A 
BRANCH   9  13
ATOM     13  C   UNL     1      43.626   3.734  11.825  0.00  0.00    +0.000 C 
ATOM     14  F   UNL     1      43.790   2.959  10.716  0.00  0.00    +0.000 F 
ATOM     15  F   UNL     1      43.273   2.880  12.828  0.00  0.00    +0.000 F 
ATOM     16  F   UNL     1      42.517   4.492  11.585  0.00  0.00    +0.000 F 
ENDBRANCH   9  13
BRANCH   7  18
ATOM     17  C   UNL     1      45.483   8.782  12.768  0.00  0.00    +0.000 C 
ATOM     18  O   UNL     1      46.086   7.896  11.832  0.00  0.00    +0.000 OA
ENDBRANCH   7  18
ENDBRANCH   1  12
BRANCH   5  19
ATOM     19  C   UNL     1      49.846   7.720  16.803  0.00  0.00    +0.000 C 
BRANCH  19  20
ATOM     20  C   UNL     1      48.582   7.500  17.641  0.00  0.00    +0.000 C 
BRANCH  20  21
ATOM     21  O   UNL     1      48.719   6.446  18.593  0.00  0.00    +0.000 OA
BRANCH  21  22
ATOM     22  C   UNL     1      48.553   5.187  18.065  0.00  0.00    +0.000 A 
ATOM     23  C   UNL     1      47.266   4.822  17.705  0.00  0.00    +0.000 A 
ATOM     24  N   UNL     1      46.932   3.612  17.186  0.00  0.00    +0.000 NA
ATOM     25  C   UNL     1      47.937   2.719  17.016  0.00  0.00    +0.000 A 
ATOM     26  C   UNL     1      49.256   2.985  17.339  0.00  0.00    +0.000 A 
ATOM     27  C   UNL     1      49.566   4.244  17.871  0.00  0.00    +0.000 A 
BRANCH  26  28
ATOM     28  C   UNL     1      50.273   1.997  17.142  0.00  0.00    +0.000 C 
ATOM     29  N   UNL     1      51.101   1.205  16.974  0.00  0.00    +0.000 NA
ENDBRANCH  26  28
ENDBRANCH  21  22
ENDBRANCH  20  21
ENDBRANCH  19  20
ENDBRANCH   5  19
TORSDOF 8
ENDMDL
MODEL 5
REMARK VINA RESULT:    -6.891      3.931      7.963
REMARK INTER + INTRA:         -10.789
REMARK INTER:                  -9.607
REMARK INTRA:                  -1.182
REMARK UNBOUND:                -0.675
REMARK  Name = 
REMARK  9 active torsions:
REMARK  status: ('A' for Active; 'I' for Inactive)
REMARK    1  A    between atoms: C_1  and  O_2
REMARK    2  A    between atoms: O_2  and  C_3
REMARK    3  A    between atoms: C_5  and  C_6
REMARK    4  A    between atoms: C_12  and  C_13
REMARK    5  A    between atoms: C_17  and  C_18
REMARK    6  A    between atoms: C_18  and  C_19
REMARK    7  A    between atoms: C_19  and  O_20
REMARK    8  A    between atoms: O_20  and  C_21
REMARK    9  A    between atoms: C_25  and  C_26
REMARK                            x       y       z     vdW  Elec       q    Type
REMARK                         _______ _______ _______ _____ _____    ______ ____
ROOT
ATOM      1  C   UNL     1      46.143   6.957  11.792  0.00  0.00    +0.000 A 
ATOM      2  C   UNL     1      45.194   7.925  12.146  0.00  0.00    +0.000 A 
ATOM      3  C   UNL     1      45.578   9.146  12.710  0.00  0.00    +0.000 A 
ATOM      4  C   UNL     1      46.925   9.418  12.957  0.00  0.00    +0.000 A 
ATOM      5  C   UNL     1      47.903   8.462  12.670  0.00  0.00    +0.000 A 
ATOM      6  C   UNL     1      47.485   7.246  12.094  0.00  0.00    +0.000 A 
ENDROOT
BRANCH   1  12
ATOM      7  C   UNL     1      45.421   4.502  11.783  0.00  0.00    +0.000 A 
ATOM      8  N   UNL     1      45.117   3.356  11.125  0.00  0.00    +0.000 NA
ATOM      9  C   UNL     1      45.153   3.409   9.764  0.00  0.00    +0.000 A 
ATOM     10  C   UNL     1      45.468   4.589   9.106  0.00  0.00    +0.000 A 
ATOM     11  N   UNL     1      45.768   5.738   9.756  0.00  0.00    +0.000 NA
ATOM     12  C   UNL     1      45.743   5.701  11.120  0.00  0.00    +0.000 A 
BRANCH   9  13
ATOM     13  C   UNL     1      44.866   2.179   8.937  0.00  0.00    +0.000 C 
ATOM     14  F   UNL     1      44.325   2.439   7.714  0.00  0.00    +0.000 F 
ATOM     15  F   UNL     1      45.984   1.435   8.701  0.00  0.00    +0.000 F 
ATOM     16  F   UNL     1      43.990   1.333   9.555  0.00  0.00    +0.000 F 
ENDBRANCH   9  13
BRANCH   7  18
ATOM     17  C   UNL     1      46.573   3.968  13.749  0.00  0.00    +0.000 C 
ATOM     18  O   UNL     1      45.379   4.474  13.161  0.00  0.00    +0.000 OA
ENDBRANCH   7  18
ENDBRANCH   1  12
BRANCH   5  19
ATOM     19  C   UNL     1      49.360   8.747  12.998  0.00  0.00    +0.000 C 
BRANCH  19  20
ATOM     20  C   UNL     1      49.997   7.688  13.903  0.00  0.00    +0.000 C 
BRANCH  20  21
ATOM     21  O   UNL     1      49.706   7.886  15.286  0.00  0.00    +0.000 OA
BRANCH  21  22
ATOM     22  C   UNL     1      49.688   6.728  16.027  0.00  0.00    +0.000 A 
ATOM     23  C   UNL     1      50.881   6.341  16.616  0.00  0.00    +0.000 A 
ATOM     24  N   UNL     1      51.035   5.217  17.364  0.00  0.00    +0.000 NA
ATOM     25  C   UNL     1      49.939   4.439  17.535  0.00  0.00    +0.000 A 
ATOM     26  C   UNL     1      48.701   4.737  16.994  0.00  0.00    +0.000 A 
ATOM     27  C   UNL     1      48.577   5.904  16.228  0.00  0.00    +0.000 A 
BRANCH  26  28
ATOM     28  C   UNL     1      47.581   3.871  17.204  0.00  0.00    +0.000 C 
ATOM     29  N   UNL     1      46.679   3.167  17.387  0.00  0.00    +0.000 NA
ENDBRANCH  26  28
ENDBRANCH  21  22
ENDBRANCH  20  21
ENDBRANCH  19  20
ENDBRANCH   5  19
TORSDOF 8
ENDMDL
MODEL 6
REMARK VINA RESULT:    -6.764      4.060      7.876
REMARK INTER + INTRA:         -10.603
REMARK INTER:                  -9.316
REMARK INTRA:                  -1.287
REMARK UNBOUND:                -0.675
REMARK  Name = 
REMARK  9 active torsions:
REMARK  status: ('A' for Active; 'I' for Inactive)
REMARK    1  A    between atoms: C_1  and  O_2
REMARK    2  A    between atoms: O_2  and  C_3
REMARK    3  A    between atoms: C_5  and  C_6
REMARK    4  A    between atoms: C_12  and  C_13
REMARK    5  A    between atoms: C_17  and  C_18
REMARK    6  A    between atoms: C_18  and  C_19
REMARK    7  A    between atoms: C_19  and  O_20
REMARK    8  A    between atoms: O_20  and  C_21
REMARK    9  A    between atoms: C_25  and  C_26
REMARK                            x       y       z     vdW  Elec       q    Type
REMARK                         _______ _______ _______ _____ _____    ______ ____
ROOT
ATOM      1  C   UNL     1      47.933   6.816  13.097  0.00  0.00    +0.000 A 
ATOM      2  C   UNL     1      48.973   7.024  12.182  0.00  0.00    +0.000 A 
ATOM      3  C   UNL     1      50.060   7.847  12.495  0.00  0.00    +0.000 A 
ATOM      4  C   UNL     1      50.119   8.503  13.726  0.00  0.00    +0.000 A 
ATOM      5  C   UNL     1      49.078   8.368  14.649  0.00  0.00    +0.000 A 
ATOM      6  C   UNL     1      48.003   7.524  14.308  0.00  0.00    +0.000 A 
ENDROOT
BRANCH   1  12
ATOM      7  C   UNL     1      46.690   4.593  13.348  0.00  0.00    +0.000 A 
ATOM      8  N   UNL     1      45.690   3.745  12.999  0.00  0.00    +0.000 NA
ATOM      9  C   UNL     1      44.810   4.196  12.062  0.00  0.00    +0.000 A 
ATOM     10  C   UNL     1      44.938   5.466  11.519  0.00  0.00    +0.000 A 
ATOM     11  N   UNL     1      45.931   6.320  11.864  0.00  0.00    +0.000 NA
ATOM     12  C   UNL     1      46.825   5.881  12.798  0.00  0.00    +0.000 A 
BRANCH   9  13
ATOM     13  C   UNL     1      43.681   3.317  11.579  0.00  0.00    +0.000 C 
ATOM     14  F   UNL     1      42.510   3.978  11.360  0.00  0.00    +0.000 F 
ATOM     15  F   UNL     1      43.977   2.683  10.409  0.00  0.00    +0.000 F 
ATOM     16  F   UNL     1      43.383   2.323  12.467  0.00  0.00    +0.000 F 
ENDBRANCH   9  13
BRANCH   7  18
ATOM     17  C   UNL     1      47.049   4.174  15.622  0.00  0.00    +0.000 C 
ATOM     18  O   UNL     1      47.585   4.161  14.303  0.00  0.00    +0.000 OA
ENDBRANCH   7  18
ENDBRANCH   1  12
BRANCH   5  19
ATOM     19  C   UNL     1      49.126   9.134  15.961  0.00  0.00    +0.000 C 
BRANCH  19  20
ATOM     20  C   UNL     1      48.902   8.246  17.190  0.00  0.00    +0.000 C 
BRANCH  20  21
ATOM     21  O   UNL     1      50.018   7.409  17.486  0.00  0.00    +0.000 OA
BRANCH  21  22
ATOM     22  C   UNL     1      49.677   6.133  17.871  0.00  0.00    +0.000 A 
ATOM     23  C   UNL     1      48.731   6.014  18.876  0.00  0.00    +0.000 A 
ATOM     24  N   UNL     1      48.297   4.829  19.381  0.00  0.00    +0.000 NA
ATOM     25  C   UNL     1      48.838   3.704  18.853  0.00  0.00    +0.000 A 
ATOM     26  C   UNL     1      49.785   3.712  17.845  0.00  0.00    +0.000 A 
ATOM     27  C   UNL     1      50.209   4.952  17.347  0.00  0.00    +0.000 A 
BRANCH  26  28
ATOM     28  C   UNL     1      50.323   2.489  17.334  0.00  0.00    +0.000 C 
ATOM     29  N   UNL     1      50.750   1.499  16.911  0.00  0.00    +0.000 NA
ENDBRANCH  26  28
ENDBRANCH  21  22
ENDBRANCH  20  21
ENDBRANCH  19  20
ENDBRANCH   5  19
TORSDOF 8
ENDMDL
MODEL 7
REMARK VINA RESULT:    -6.454      2.163      3.334
REMARK INTER + INTRA:         -10.148
REMARK INTER:                  -9.622
REMARK INTRA:                  -0.526
REMARK UNBOUND:                -0.675
REMARK  Name = 
REMARK  9 active torsions:
REMARK  status: ('A' for Active; 'I' for Inactive)
REMARK    1  A    between atoms: C_1  and  O_2
REMARK    2  A    between atoms: O_2  and  C_3
REMARK    3  A    between atoms: C_5  and  C_6
REMARK    4  A    between atoms: C_12  and  C_13
REMARK    5  A    between atoms: C_17  and  C_18
REMARK    6  A    between atoms: C_18  and  C_19
REMARK    7  A    between atoms: C_19  and  O_20
REMARK    8  A    between atoms: O_20  and  C_21
REMARK    9  A    between atoms: C_25  and  C_26
REMARK                            x       y       z     vdW  Elec       q    Type
REMARK                         _______ _______ _______ _____ _____    ______ ____
ROOT
ATOM      1  C   UNL     1      49.041   7.002  14.842  0.00  0.00    +0.000 A 
ATOM      2  C   UNL     1      50.204   7.649  14.406  0.00  0.00    +0.000 A 
ATOM      3  C   UNL     1      50.347   8.066  13.079  0.00  0.00    +0.000 A 
ATOM      4  C   UNL     1      49.336   7.822  12.148  0.00  0.00    +0.000 A 
ATOM      5  C   UNL     1      48.181   7.132  12.524  0.00  0.00    +0.000 A 
ATOM      6  C   UNL     1      48.062   6.734  13.870  0.00  0.00    +0.000 A 
ENDROOT
BRANCH   1  12
ATOM      7  C   UNL     1      48.376   5.392  16.717  0.00  0.00    +0.000 A 
ATOM      8  N   UNL     1      48.164   5.119  18.029  0.00  0.00    +0.000 NA
ATOM      9  C   UNL     1      48.427   6.125  18.909  0.00  0.00    +0.000 A 
ATOM     10  C   UNL     1      48.901   7.351  18.467  0.00  0.00    +0.000 A 
ATOM     11  N   UNL     1      49.119   7.630  17.160  0.00  0.00    +0.000 NA
ATOM     12  C   UNL     1      48.855   6.635  16.264  0.00  0.00    +0.000 A 
BRANCH   9  13
ATOM     13  C   UNL     1      48.191   5.935  20.389  0.00  0.00    +0.000 C 
ATOM     14  F   UNL     1      48.723   6.915  21.171  0.00  0.00    +0.000 F 
ATOM     15  F   UNL     1      46.864   5.884  20.704  0.00  0.00    +0.000 F 
ATOM     16  F   UNL     1      48.720   4.765  20.851  0.00  0.00    +0.000 F 
ENDBRANCH   9  13
BRANCH   7  18
ATOM     17  C   UNL     1      47.919   3.116  16.422  0.00  0.00    +0.000 C 
ATOM     18  O   UNL     1      48.127   4.384  15.810  0.00  0.00    +0.000 OA
ENDBRANCH   7  18
ENDBRANCH   1  12
BRANCH   5  19
ATOM     19  C   UNL     1      47.114   6.821  11.488  0.00  0.00    +0.000 C 
BRANCH  19  20
ATOM     20  C   UNL     1      45.962   5.972  12.038  0.00  0.00    +0.000 C 
BRANCH  20  21
ATOM     21  O   UNL     1      44.834   5.927  11.166  0.00  0.00    +0.000 OA
BRANCH  21  22
ATOM     22  C   UNL     1      44.792   4.815  10.358  0.00  0.00    +0.000 A 
ATOM     23  C   UNL     1      44.060   3.733  10.818  0.00  0.00    +0.000 A 
ATOM     24  N   UNL     1      43.933   2.557  10.149  0.00  0.00    +0.000 NA
ATOM     25  C   UNL     1      44.570   2.457   8.958  0.00  0.00    +0.000 A 
ATOM     26  C   UNL     1      45.323   3.479   8.407  0.00  0.00    +0.000 A 
ATOM     27  C   UNL     1      45.432   4.679   9.123  0.00  0.00    +0.000 A 
BRANCH  26  28
ATOM     28  C   UNL     1      45.979   3.310   7.147  0.00  0.00    +0.000 C 
ATOM     29  N   UNL     1      46.522   3.174   6.132  0.00  0.00    +0.000 NA
ENDBRANCH  26  28
ENDBRANCH  21  22
ENDBRANCH  20  21
ENDBRANCH  19  20
ENDBRANCH   5  19
TORSDOF 8
ENDMDL
MODEL 8
REMARK VINA RESULT:    -6.431      4.461      8.106
REMARK INTER + INTRA:         -10.115
REMARK INTER:                  -8.785
REMARK INTRA:                  -1.329
REMARK UNBOUND:                -0.675
REMARK  Name = 
REMARK  9 active torsions:
REMARK  status: ('A' for Active; 'I' for Inactive)
REMARK    1  A    between atoms: C_1  and  O_2
REMARK    2  A    between atoms: O_2  and  C_3
REMARK    3  A    between atoms: C_5  and  C_6
REMARK    4  A    between atoms: C_12  and  C_13
REMARK    5  A    between atoms: C_17  and  C_18
REMARK    6  A    between atoms: C_18  and  C_19
REMARK    7  A    between atoms: C_19  and  O_20
REMARK    8  A    between atoms: O_20  and  C_21
REMARK    9  A    between atoms: C_25  and  C_26
REMARK                            x       y       z     vdW  Elec       q    Type
REMARK                         _______ _______ _______ _____ _____    ______ ____
ROOT
ATOM      1  C   UNL     1      48.227   7.592  12.574  0.00  0.00    +0.000 A 
ATOM      2  C   UNL     1      49.102   7.604  11.479  0.00  0.00    +0.000 A 
ATOM      3  C   UNL     1      50.396   8.121  11.592  0.00  0.00    +0.000 A 
ATOM      4  C   UNL     1      50.839   8.663  12.800  0.00  0.00    +0.000 A 
ATOM      5  C   UNL     1      49.984   8.722  13.903  0.00  0.00    +0.000 A 
ATOM      6  C   UNL     1      48.689   8.183  13.761  0.00  0.00    +0.000 A 
ENDROOT
BRANCH   1  12
ATOM      7  C   UNL     1      46.577   5.662  12.892  0.00  0.00    +0.000 A 
ATOM      8  N   UNL     1      45.348   5.111  12.730  0.00  0.00    +0.000 NA
ATOM      9  C   UNL     1      44.409   5.888  12.120  0.00  0.00    +0.000 A 
ATOM     10  C   UNL     1      44.711   7.178  11.711  0.00  0.00    +0.000 A 
ATOM     11  N   UNL     1      45.933   7.737  11.873  0.00  0.00    +0.000 NA
ATOM     12  C   UNL     1      46.887   6.970  12.477  0.00  0.00    +0.000 A 
BRANCH   9  13
ATOM     13  C   UNL     1      43.020   5.355  11.860  0.00  0.00    +0.000 C 
ATOM     14  F   UNL     1      42.950   4.446  10.848  0.00  0.00    +0.000 F 
ATOM     15  F   UNL     1      42.483   4.741  12.953  0.00  0.00    +0.000 F 
ATOM     16  F   UNL     1      42.140   6.346  11.529  0.00  0.00    +0.000 F 
ENDBRANCH   9  13
BRANCH   7  18
ATOM     17  C   UNL     1      47.079   3.600  13.878  0.00  0.00    +0.000 C 
ATOM     18  O   UNL     1      47.539   4.898  13.518  0.00  0.00    +0.000 OA
ENDBRANCH   7  18
ENDBRANCH   1  12
BRANCH   5  19
ATOM     19  C   UNL     1      50.457   9.367  15.196  0.00  0.00    +0.000 C 
BRANCH  19  20
ATOM     20  C   UNL     1      51.234   8.408  16.104  0.00  0.00    +0.000 C 
BRANCH  20  21
ATOM     21  O   UNL     1      50.876   7.041  15.911  0.00  0.00    +0.000 OA
BRANCH  21  22
ATOM     22  C   UNL     1      49.994   6.553  16.847  0.00  0.00    +0.000 A 
ATOM     23  C   UNL     1      50.013   7.150  18.097  0.00  0.00    +0.000 A 
ATOM     24  N   UNL     1      49.219   6.776  19.134  0.00  0.00    +0.000 NA
ATOM     25  C   UNL     1      48.361   5.752  18.911  0.00  0.00    +0.000 A 
ATOM     26  C   UNL     1      48.260   5.092  17.700  0.00  0.00    +0.000 A 
ATOM     27  C   UNL     1      49.093   5.504  16.650  0.00  0.00    +0.000 A 
BRANCH  26  28
ATOM     28  C   UNL     1      47.337   4.011  17.528  0.00  0.00    +0.000 C 
ATOM     29  N   UNL     1      46.582   3.145  17.382  0.00  0.00    +0.000 NA
ENDBRANCH  26  28
ENDBRANCH  21  22
ENDBRANCH  20  21
ENDBRANCH  19  20
ENDBRANCH   5  19
TORSDOF 8
ENDMDL
MODEL 9
REMARK VINA RESULT:    -6.415      3.986      8.249
REMARK INTER + INTRA:         -10.091
REMARK INTER:                  -9.592
REMARK INTRA:                  -0.499
REMARK UNBOUND:                -0.675
REMARK  Name = 
REMARK  9 active torsions:
REMARK  status: ('A' for Active; 'I' for Inactive)
REMARK    1  A    between atoms: C_1  and  O_2
REMARK    2  A    between atoms: O_2  and  C_3
REMARK    3  A    between atoms: C_5  and  C_6
REMARK    4  A    between atoms: C_12  and  C_13
REMARK    5  A    between atoms: C_17  and  C_18
REMARK    6  A    between atoms: C_18  and  C_19
REMARK    7  A    between atoms: C_19  and  O_20
REMARK    8  A    between atoms: O_20  and  C_21
REMARK    9  A    between atoms: C_25  and  C_26
REMARK                            x       y       z     vdW  Elec       q    Type
REMARK                         _______ _______ _______ _____ _____    ______ ____
ROOT
ATOM      1  C   UNL     1      45.969   6.735  11.999  0.00  0.00    +0.000 A 
ATOM      2  C   UNL     1      45.085   7.811  12.153  0.00  0.00    +0.000 A 
ATOM      3  C   UNL     1      45.454   8.956  12.865  0.00  0.00    +0.000 A 
ATOM      4  C   UNL     1      46.713   9.042  13.464  0.00  0.00    +0.000 A 
ATOM      5  C   UNL     1      47.608   7.972  13.383  0.00  0.00    +0.000 A 
ATOM      6  C   UNL     1      47.210   6.837  12.650  0.00  0.00    +0.000 A 
ENDROOT
BRANCH   1  12
ATOM      7  C   UNL     1      45.058   4.365  11.678  0.00  0.00    +0.000 A 
ATOM      8  N   UNL     1      44.799   3.289  10.895  0.00  0.00    +0.000 NA
ATOM      9  C   UNL     1      45.114   3.407   9.575  0.00  0.00    +0.000 A 
ATOM     10  C   UNL     1      45.656   4.582   9.076  0.00  0.00    +0.000 A 
ATOM     11  N   UNL     1      45.914   5.663   9.850  0.00  0.00    +0.000 NA
ATOM     12  C   UNL     1      45.609   5.558  11.176  0.00  0.00    +0.000 A 
BRANCH   9  13
ATOM     13  C   UNL     1      44.898   2.253   8.625  0.00  0.00    +0.000 C 
ATOM     14  F   UNL     1      44.404   2.615   7.408  0.00  0.00    +0.000 F 
ATOM     15  F   UNL     1      46.046   1.562   8.372  0.00  0.00    +0.000 F 
ATOM     16  F   UNL     1      44.020   1.332   9.121  0.00  0.00    +0.000 F 
ENDBRANCH   9  13
BRANCH   7  18
ATOM     17  C   UNL     1      43.343   4.423  13.269  0.00  0.00    +0.000 C 
ATOM     18  O   UNL     1      44.735   4.271  13.015  0.00  0.00    +0.000 OA
ENDBRANCH   7  18
ENDBRANCH   1  12
BRANCH   5  19
ATOM     19  C   UNL     1      48.951   8.054  14.089  0.00  0.00    +0.000 C 
BRANCH  19  20
ATOM     20  C   UNL     1      49.128   6.996  15.183  0.00  0.00    +0.000 C 
BRANCH  20  21
ATOM     21  O   UNL     1      48.284   5.861  15.005  0.00  0.00    +0.000 OA
BRANCH  21  22
ATOM     22  C   UNL     1      48.164   5.068  16.123  0.00  0.00    +0.000 A 
ATOM     23  C   UNL     1      47.387   3.928  16.003  0.00  0.00    +0.000 A 
ATOM     24  N   UNL     1      47.156   3.051  17.015  0.00  0.00    +0.000 NA
ATOM     25  C   UNL     1      47.731   3.328  18.210  0.00  0.00    +0.000 A 
ATOM     26  C   UNL     1      48.527   4.437  18.434  0.00  0.00    +0.000 A 
ATOM     27  C   UNL     1      48.746   5.320  17.368  0.00  0.00    +0.000 A 
BRANCH  26  28
ATOM     28  C   UNL     1      49.102   4.679  19.722  0.00  0.00    +0.000 C 
ATOM     29  N   UNL     1      49.558   4.866  20.770  0.00  0.00    +0.000 NA
ENDBRANCH  26  28
ENDBRANCH  21  22
ENDBRANCH  20  21
ENDBRANCH  19  20
ENDBRANCH   5  19
TORSDOF 8
ENDMDL
