MODEL 1
REMARK VINA RESULT:    -7.530      0.000      0.000
REMARK INTER + INTRA:          -9.717
REMARK INTER:                  -9.291
REMARK INTRA:                  -0.427
REMARK UNBOUND:                -0.427
REMARK  Name = 
REMARK  4 active torsions:
REMARK  status: ('A' for Active; 'I' for Inactive)
REMARK    1  A    between atoms: C_6  and  N_7
REMARK    2  A    between atoms: N_7  and  C_8
REMARK    3  A    between atoms: C_8  and  C_9
REMARK    4  A    between atoms: C_9  and  C_12
REMARK                            x       y       z     vdW  Elec       q    Type
REMARK                         _______ _______ _______ _____ _____    ______ ____
ROOT
ATOM      1  N   UNL     1      44.390   4.110  11.082  0.00  0.00    +0.000 N 
ATOM      2  H   UNL     1      43.569   3.842  11.623  0.00  0.00    +0.000 HD
ENDROOT
BRANCH   1   8
ATOM      3  N   UNL     1      47.268   3.109  14.590  0.00  0.00    +0.000 N 
ATOM      4  C   UNL     1      46.743   4.083  13.740  0.00  0.00    +0.000 A 
ATOM      5  C   UNL     1      47.154   5.401  13.865  0.00  0.00    +0.000 A 
ATOM      6  C   UNL     1      46.605   6.346  13.011  0.00  0.00    +0.000 A 
ATOM      7  C   UNL     1      45.672   5.938  12.066  0.00  0.00    +0.000 A 
ATOM      8  C   UNL     1      45.334   4.593  11.974  0.00  0.00    +0.000 A 
ATOM      9  N   UNL     1      45.864   3.673  12.807  0.00  0.00    +0.000 NA
ATOM     10  H   UNL     1      47.151   3.367  15.563  0.00  0.00    +0.000 HD
ATOM     11  H   UNL     1      46.788   2.239  14.372  0.00  0.00    +0.000 HD
ENDBRANCH   1   8
BRANCH   1  12
ATOM     12  C   UNL     1      44.801   3.169  10.032  0.00  0.00    +0.000 C 
BRANCH  12  13
ATOM     13  C   UNL     1      45.178   3.824   8.679  0.00  0.00    +0.000 C 
ATOM     14  F   UNL     1      44.005   4.217   8.087  0.00  0.00    +0.000 F 
ATOM     15  F   UNL     1      45.838   4.994   8.948  0.00  0.00    +0.000 F 
BRANCH  13  16
ATOM     16  C   UNL     1      45.979   2.912   7.767  0.00  0.00    +0.000 A 
ATOM     17  C   UNL     1      46.281   1.596   8.147  0.00  0.00    +0.000 A 
ATOM     18  C   UNL     1      47.025   0.770   7.298  0.00  0.00    +0.000 A 
ATOM     19  C   UNL     1      47.473   1.252   6.070  0.00  0.00    +0.000 A 
ATOM     20  C   UNL     1      47.177   2.557   5.682  0.00  0.00    +0.000 A 
ATOM     21  C   UNL     1      46.432   3.383   6.525  0.00  0.00    +0.000 A 
ENDBRANCH  13  16
ENDBRANCH  12  13
ENDBRANCH   1  12
TORSDOF 4
ENDMDL
MODEL 2
REMARK VINA RESULT:    -7.344      2.490      6.137
REMARK INTER + INTRA:          -9.488
REMARK INTER:                  -8.918
REMARK INTRA:                  -0.571
REMARK UNBOUND:                -0.427
REMARK  Name = 
REMARK  4 active torsions:
REMARK  status: ('A' for Active; 'I' for Inactive)
REMARK    1  A    between atoms: C_6  and  N_7
REMARK    2  A    between atoms: N_7  and  C_8
REMARK    3  A    between atoms: C_8  and  C_9
REMARK    4  A    between atoms: C_9  and  C_12
REMARK                            x       y       z     vdW  Elec       q    Type
REMARK                         _______ _______ _______ _____ _____    ______ ____
ROOT
ATOM      1  N   UNL     1      43.914   4.823   9.641  0.00  0.00    +0.000 N 
ATOM      2  H   UNL     1      44.411   5.712   9.598  0.00  0.00    +0.000 HD
ENDROOT
BRANCH   1   8
ATOM      3  N   UNL     1      47.024   3.906   6.314  0.00  0.00    +0.000 N 
ATOM      4  C   UNL     1      46.253   3.420   7.370  0.00  0.00    +0.000 A 
ATOM      5  C   UNL     1      46.320   2.078   7.712  0.00  0.00    +0.000 A 
ATOM      6  C   UNL     1      45.532   1.625   8.759  0.00  0.00    +0.000 A 
ATOM      7  C   UNL     1      44.712   2.528   9.425  0.00  0.00    +0.000 A 
ATOM      8  C   UNL     1      44.723   3.867   9.050  0.00  0.00    +0.000 A 
ATOM      9  N   UNL     1      45.486   4.308   8.029  0.00  0.00    +0.000 NA
ATOM     10  H   UNL     1      46.867   3.373   5.467  0.00  0.00    +0.000 HD
ATOM     11  H   UNL     1      46.776   4.885   6.195  0.00  0.00    +0.000 HD
ENDBRANCH   1   8
BRANCH   1  12
ATOM     12  C   UNL     1      43.249   4.522  10.916  0.00  0.00    +0.000 C 
BRANCH  12  13
ATOM     13  C   UNL     1      43.358   5.636  11.989  0.00  0.00    +0.000 C 
ATOM     14  F   UNL     1      42.938   6.800  11.397  0.00  0.00    +0.000 F 
ATOM     15  F   UNL     1      42.422   5.382  12.955  0.00  0.00    +0.000 F 
BRANCH  13  16
ATOM     16  C   UNL     1      44.753   5.783  12.568  0.00  0.00    +0.000 A 
ATOM     17  C   UNL     1      45.438   7.006  12.502  0.00  0.00    +0.000 A 
ATOM     18  C   UNL     1      46.725   7.124  13.035  0.00  0.00    +0.000 A 
ATOM     19  C   UNL     1      47.337   6.024  13.634  0.00  0.00    +0.000 A 
ATOM     20  C   UNL     1      46.666   4.805  13.707  0.00  0.00    +0.000 A 
ATOM     21  C   UNL     1      45.379   4.685  13.179  0.00  0.00    +0.000 A 
ENDBRANCH  13  16
ENDBRANCH  12  13
ENDBRANCH   1  12
TORSDOF 4
ENDMDL
MODEL 3
REMARK VINA RESULT:    -7.254      2.480      5.835
REMARK INTER + INTRA:          -9.377
REMARK INTER:                  -8.689
REMARK INTRA:                  -0.688
REMARK UNBOUND:                -0.427
REMARK  Name = 
REMARK  4 active torsions:
REMARK  status: ('A' for Active; 'I' for Inactive)
REMARK    1  A    between atoms: C_6  and  N_7
REMARK    2  A    between atoms: N_7  and  C_8
REMARK    3  A    between atoms: C_8  and  C_9
REMARK    4  A    between atoms: C_9  and  C_12
REMARK                            x       y       z     vdW  Elec       q    Type
REMARK                         _______ _______ _______ _____ _____    ______ ____
ROOT
ATOM      1  N   UNL     1      44.411   2.643  10.291  0.00  0.00    +0.000 N 
ATOM      2  H   UNL     1      43.925   1.747  10.294  0.00  0.00    +0.000 HD
ENDROOT
BRANCH   1   8
ATOM      3  N   UNL     1      47.102   0.236   7.367  0.00  0.00    +0.000 N 
ATOM      4  C   UNL     1      46.562   1.472   7.721  0.00  0.00    +0.000 A 
ATOM      5  C   UNL     1      46.867   2.598   6.973  0.00  0.00    +0.000 A 
ATOM      6  C   UNL     1      46.323   3.814   7.358  0.00  0.00    +0.000 A 
ATOM      7  C   UNL     1      45.493   3.857   8.472  0.00  0.00    +0.000 A 
ATOM      8  C   UNL     1      45.202   2.681   9.154  0.00  0.00    +0.000 A 
ATOM      9  N   UNL     1      45.734   1.498   8.783  0.00  0.00    +0.000 NA
ATOM     10  H   UNL     1      48.111   0.281   7.294  0.00  0.00    +0.000 HD
ATOM     11  H   UNL     1      46.805  -0.429   8.077  0.00  0.00    +0.000 HD
ENDBRANCH   1   8
BRANCH   1  12
ATOM     12  C   UNL     1      43.599   3.814  10.648  0.00  0.00    +0.000 C 
BRANCH  12  13
ATOM     13  C   UNL     1      43.781   4.317  12.103  0.00  0.00    +0.000 C 
ATOM     14  F   UNL     1      42.734   5.164  12.365  0.00  0.00    +0.000 F 
ATOM     15  F   UNL     1      43.584   3.253  12.943  0.00  0.00    +0.000 F 
BRANCH  13  16
ATOM     16  C   UNL     1      45.115   4.997  12.345  0.00  0.00    +0.000 A 
ATOM     17  C   UNL     1      45.599   5.975  11.463  0.00  0.00    +0.000 A 
ATOM     18  C   UNL     1      46.834   6.588  11.696  0.00  0.00    +0.000 A 
ATOM     19  C   UNL     1      47.593   6.230  12.809  0.00  0.00    +0.000 A 
ATOM     20  C   UNL     1      47.121   5.262  13.694  0.00  0.00    +0.000 A 
ATOM     21  C   UNL     1      45.888   4.650  13.464  0.00  0.00    +0.000 A 
ENDBRANCH  13  16
ENDBRANCH  12  13
ENDBRANCH   1  12
TORSDOF 4
ENDMDL
MODEL 4
REMARK VINA RESULT:    -7.193      1.483      2.300
REMARK INTER + INTRA:          -9.302
REMARK INTER:                  -8.899
REMARK INTRA:                  -0.403
REMARK UNBOUND:                -0.427
REMARK  Name = 
REMARK  4 active torsions:
REMARK  status: ('A' for Active; 'I' for Inactive)
REMARK    1  A    between atoms: C_6  and  N_7
REMARK    2  A    between atoms: N_7  and  C_8
REMARK    3  A    between atoms: C_8  and  C_9
REMARK    4  A    between atoms: C_9  and  C_12
REMARK                            x       y       z     vdW  Elec       q    Type
REMARK                         _______ _______ _______ _____ _____    ______ ____
ROOT
ATOM      1  N   UNL     1      45.309   5.924   9.791  0.00  0.00    +0.000 N 
ATOM      2  H   UNL     1      44.627   6.463   9.258  0.00  0.00    +0.000 HD
ENDROOT
BRANCH   1   8
ATOM      3  N   UNL     1      45.874   4.234  14.082  0.00  0.00    +0.000 N 
ATOM      4  C   UNL     1      44.987   4.644  13.086  0.00  0.00    +0.000 A 
ATOM      5  C   UNL     1      43.620   4.580  13.311  0.00  0.00    +0.000 A 
ATOM      6  C   UNL     1      42.766   4.984  12.296  0.00  0.00    +0.000 A 
ATOM      7  C   UNL     1      43.309   5.440  11.101  0.00  0.00    +0.000 A 
ATOM      8  C   UNL     1      44.690   5.512  10.959  0.00  0.00    +0.000 A 
ATOM      9  N   UNL     1      45.522   5.114  11.944  0.00  0.00    +0.000 NA
ATOM     10  H   UNL     1      45.667   3.294  14.395  0.00  0.00    +0.000 HD
ATOM     11  H   UNL     1      46.810   4.302  13.689  0.00  0.00    +0.000 HD
ENDBRANCH   1   8
BRANCH   1  12
ATOM     12  C   UNL     1      46.112   4.966   9.019  0.00  0.00    +0.000 C 
BRANCH  12  13
ATOM     13  C   UNL     1      45.349   3.700   8.554  0.00  0.00    +0.000 C 
ATOM     14  F   UNL     1      45.043   2.982   9.683  0.00  0.00    +0.000 F 
ATOM     15  F   UNL     1      44.136   4.098   8.058  0.00  0.00    +0.000 F 
BRANCH  13  16
ATOM     16  C   UNL     1      46.124   2.857   7.558  0.00  0.00    +0.000 A 
ATOM     17  C   UNL     1      46.480   3.369   6.301  0.00  0.00    +0.000 A 
ATOM     18  C   UNL     1      47.189   2.578   5.392  0.00  0.00    +0.000 A 
ATOM     19  C   UNL     1      47.546   1.274   5.729  0.00  0.00    +0.000 A 
ATOM     20  C   UNL     1      47.200   0.756   6.976  0.00  0.00    +0.000 A 
ATOM     21  C   UNL     1      46.494   1.544   7.887  0.00  0.00    +0.000 A 
ENDBRANCH  13  16
ENDBRANCH  12  13
ENDBRANCH   1  12
TORSDOF 4
ENDMDL
MODEL 5
REMARK VINA RESULT:    -6.936      1.624      2.266
REMARK INTER + INTRA:          -8.985
REMARK INTER:                  -8.496
REMARK INTRA:                  -0.489
REMARK UNBOUND:                -0.427
REMARK  Name = 
REMARK  4 active torsions:
REMARK  status: ('A' for Active; 'I' for Inactive)
REMARK    1  A    between atoms: C_6  and  N_7
REMARK    2  A    between atoms: N_7  and  C_8
REMARK    3  A    between atoms: C_8  and  C_9
REMARK    4  A    between atoms: C_9  and  C_12
REMARK                            x       y       z     vdW  Elec       q    Type
REMARK                         _______ _______ _______ _____ _____    ______ ____
ROOT
ATOM      1  N   UNL     1      45.178   5.714  10.330  0.00  0.00    +0.000 N 
ATOM      2  H   UNL     1      44.218   5.439  10.536  0.00  0.00    +0.000 HD
ENDROOT
BRANCH   1   8
ATOM      3  N   UNL     1      48.730   7.498  12.735  0.00  0.00    +0.000 N 
ATOM      4  C   UNL     1      47.665   6.598  12.704  0.00  0.00    +0.000 A 
ATOM      5  C   UNL     1      47.412   5.790  13.801  0.00  0.00    +0.000 A 
ATOM      6  C   UNL     1      46.352   4.899  13.733  0.00  0.00    +0.000 A 
ATOM      7  C   UNL     1      45.584   4.853  12.576  0.00  0.00    +0.000 A 
ATOM      8  C   UNL     1      45.874   5.719  11.528  0.00  0.00    +0.000 A 
ATOM      9  N   UNL     1      46.908   6.583  11.591  0.00  0.00    +0.000 NA
ATOM     10  H   UNL     1      49.599   7.032  12.970  0.00  0.00    +0.000 HD
ATOM     11  H   UNL     1      48.773   7.935  11.818  0.00  0.00    +0.000 HD
ENDBRANCH   1   8
BRANCH   1  12
ATOM     12  C   UNL     1      45.782   5.092   9.144  0.00  0.00    +0.000 C 
BRANCH  12  13
ATOM     13  C   UNL     1      45.070   3.808   8.646  0.00  0.00    +0.000 C 
ATOM     14  F   UNL     1      44.646   3.131   9.761  0.00  0.00    +0.000 F 
ATOM     15  F   UNL     1      43.917   4.186   8.011  0.00  0.00    +0.000 F 
BRANCH  13  16
ATOM     16  C   UNL     1      45.945   2.933   7.769  0.00  0.00    +0.000 A 
ATOM     17  C   UNL     1      46.470   3.416   6.560  0.00  0.00    +0.000 A 
ATOM     18  C   UNL     1      47.269   2.594   5.759  0.00  0.00    +0.000 A 
ATOM     19  C   UNL     1      47.548   1.288   6.157  0.00  0.00    +0.000 A 
ATOM     20  C   UNL     1      47.035   0.798   7.356  0.00  0.00    +0.000 A 
ATOM     21  C   UNL     1      46.239   1.617   8.159  0.00  0.00    +0.000 A 
ENDBRANCH  13  16
ENDBRANCH  12  13
ENDBRANCH   1  12
TORSDOF 4
ENDMDL
MODEL 6
REMARK VINA RESULT:    -6.886      2.433      6.220
REMARK INTER + INTRA:          -8.923
REMARK INTER:                  -8.419
REMARK INTRA:                  -0.504
REMARK UNBOUND:                -0.427
REMARK  Name = 
REMARK  4 active torsions:
REMARK  status: ('A' for Active; 'I' for Inactive)
REMARK    1  A    between atoms: C_6  and  N_7
REMARK    2  A    between atoms: N_7  and  C_8
REMARK    3  A    between atoms: C_8  and  C_9
REMARK    4  A    between atoms: C_9  and  C_12
REMARK                            x       y       z     vdW  Elec       q    Type
REMARK                         _______ _______ _______ _____ _____    ______ ____
ROOT
ATOM      1  N   UNL     1      44.975   4.267   8.404  0.00  0.00    +0.000 N 
ATOM      2  H   UNL     1      44.579   4.731   7.587  0.00  0.00    +0.000 HD
ENDROOT
BRANCH   1   8
ATOM      3  N   UNL     1      48.116   2.889   5.270  0.00  0.00    +0.000 N 
ATOM      4  C   UNL     1      47.314   2.549   6.360  0.00  0.00    +0.000 A 
ATOM      5  C   UNL     1      47.340   1.256   6.859  0.00  0.00    +0.000 A 
ATOM      6  C   UNL     1      46.522   0.948   7.936  0.00  0.00    +0.000 A 
ATOM      7  C   UNL     1      45.716   1.943   8.475  0.00  0.00    +0.000 A 
ATOM      8  C   UNL     1      45.769   3.228   7.946  0.00  0.00    +0.000 A 
ATOM      9  N   UNL     1      46.560   3.527   6.895  0.00  0.00    +0.000 NA
ATOM     10  H   UNL     1      47.959   2.264   4.489  0.00  0.00    +0.000 HD
ATOM     11  H   UNL     1      47.895   3.853   5.032  0.00  0.00    +0.000 HD
ENDBRANCH   1   8
BRANCH   1  12
ATOM     12  C   UNL     1      45.480   5.152   9.463  0.00  0.00    +0.000 C 
BRANCH  12  13
ATOM     13  C   UNL     1      44.826   4.946  10.853  0.00  0.00    +0.000 C 
ATOM     14  F   UNL     1      43.742   5.785  10.910  0.00  0.00    +0.000 F 
ATOM     15  F   UNL     1      44.290   3.686  10.883  0.00  0.00    +0.000 F 
BRANCH  13  16
ATOM     16  C   UNL     1      45.775   5.192  12.010  0.00  0.00    +0.000 A 
ATOM     17  C   UNL     1      45.872   4.279  13.072  0.00  0.00    +0.000 A 
ATOM     18  C   UNL     1      46.747   4.524  14.135  0.00  0.00    +0.000 A 
ATOM     19  C   UNL     1      47.528   5.677  14.147  0.00  0.00    +0.000 A 
ATOM     20  C   UNL     1      47.442   6.590  13.097  0.00  0.00    +0.000 A 
ATOM     21  C   UNL     1      46.572   6.347  12.033  0.00  0.00    +0.000 A 
ENDBRANCH  13  16
ENDBRANCH  12  13
ENDBRANCH   1  12
TORSDOF 4
ENDMDL
MODEL 7
REMARK VINA RESULT:    -6.825      2.156      3.135
REMARK INTER + INTRA:          -8.848
REMARK INTER:                  -8.305
REMARK INTRA:                  -0.543
REMARK UNBOUND:                -0.427
REMARK  Name = 
REMARK  4 active torsions:
REMARK  status: ('A' for Active; 'I' for Inactive)
REMARK    1  A    between atoms: C_6  and  N_7
REMARK    2  A    between atoms: N_7  and  C_8
REMARK    3  A    between atoms: C_8  and  C_9
REMARK    4  A    between atoms: C_9  and  C_12
REMARK                            x       y       z     vdW  Elec       q    Type
REMARK                         _______ _______ _______ _____ _____    ______ ____
ROOT
ATOM      1  N   UNL     1      44.697   4.878  12.812  0.00  0.00    +0.000 N 
ATOM      2  H   UNL     1      44.521   4.675  13.795  0.00  0.00    +0.000 HD
ENDROOT
BRANCH   1   8
ATOM      3  N   UNL     1      44.858   9.521  12.738  0.00  0.00    +0.000 N 
ATOM      4  C   UNL     1      45.564   8.318  12.696  0.00  0.00    +0.000 A 
ATOM      5  C   UNL     1      46.945   8.333  12.577  0.00  0.00    +0.000 A 
ATOM      6  C   UNL     1      47.615   7.121  12.528  0.00  0.00    +0.000 A 
ATOM      7  C   UNL     1      46.882   5.943  12.604  0.00  0.00    +0.000 A 
ATOM      8  C   UNL     1      45.503   6.004  12.760  0.00  0.00    +0.000 A 
ATOM      9  N   UNL     1      44.848   7.183  12.803  0.00  0.00    +0.000 NA
ATOM     10  H   UNL     1      45.082  10.107  11.943  0.00  0.00    +0.000 HD
ATOM     11  H   UNL     1      43.869   9.281  12.761  0.00  0.00    +0.000 HD
ENDBRANCH   1   8
BRANCH   1  12
ATOM     12  C   UNL     1      45.015   3.720  11.965  0.00  0.00    +0.000 C 
BRANCH  12  13
ATOM     13  C   UNL     1      44.195   3.625  10.654  0.00  0.00    +0.000 C 
ATOM     14  F   UNL     1      43.244   2.656  10.850  0.00  0.00    +0.000 F 
ATOM     15  F   UNL     1      43.482   4.786  10.518  0.00  0.00    +0.000 F 
BRANCH  13  16
ATOM     16  C   UNL     1      45.042   3.327   9.431  0.00  0.00    +0.000 A 
ATOM     17  C   UNL     1      45.490   4.360   8.593  0.00  0.00    +0.000 A 
ATOM     18  C   UNL     1      46.264   4.070   7.466  0.00  0.00    +0.000 A 
ATOM     19  C   UNL     1      46.594   2.750   7.166  0.00  0.00    +0.000 A 
ATOM     20  C   UNL     1      46.157   1.716   7.991  0.00  0.00    +0.000 A 
ATOM     21  C   UNL     1      45.386   2.003   9.119  0.00  0.00    +0.000 A 
ENDBRANCH  13  16
ENDBRANCH  12  13
ENDBRANCH   1  12
TORSDOF 4
ENDMDL
MODEL 8
REMARK VINA RESULT:    -6.738      2.469      6.073
REMARK INTER + INTRA:          -8.741
REMARK INTER:                  -8.279
REMARK INTRA:                  -0.461
REMARK UNBOUND:                -0.427
REMARK  Name = 
REMARK  4 active torsions:
REMARK  status: ('A' for Active; 'I' for Inactive)
REMARK    1  A    between atoms: C_6  and  N_7
REMARK    2  A    between atoms: N_7  and  C_8
REMARK    3  A    between atoms: C_8  and  C_9
REMARK    4  A    between atoms: C_9  and  C_12
REMARK                            x       y       z     vdW  Elec       q    Type
REMARK                         _______ _______ _______ _____ _____    ______ ____
ROOT
ATOM      1  N   UNL     1      44.060   4.551   9.588  0.00  0.00    +0.000 N 
ATOM      2  H   UNL     1      44.524   5.460   9.584  0.00  0.00    +0.000 HD
ENDROOT
BRANCH   1   8
ATOM      3  N   UNL     1      46.963   3.904   6.019  0.00  0.00    +0.000 N 
ATOM      4  C   UNL     1      46.310   3.349   7.119  0.00  0.00    +0.000 A 
ATOM      5  C   UNL     1      46.496   2.011   7.430  0.00  0.00    +0.000 A 
ATOM      6  C   UNL     1      45.824   1.488   8.524  0.00  0.00    +0.000 A 
ATOM      7  C   UNL     1      44.997   2.322   9.267  0.00  0.00    +0.000 A 
ATOM      8  C   UNL     1      44.886   3.663   8.919  0.00  0.00    +0.000 A 
ATOM      9  N   UNL     1      45.537   4.172   7.852  0.00  0.00    +0.000 NA
ATOM     10  H   UNL     1      46.778   3.374   5.175  0.00  0.00    +0.000 HD
ATOM     11  H   UNL     1      46.639   4.865   5.938  0.00  0.00    +0.000 HD
ENDBRANCH   1   8
BRANCH   1  12
ATOM     12  C   UNL     1      43.445   4.151  10.861  0.00  0.00    +0.000 C 
BRANCH  12  13
ATOM     13  C   UNL     1      44.332   4.371  12.113  0.00  0.00    +0.000 C 
ATOM     14  F   UNL     1      43.511   4.259  13.206  0.00  0.00    +0.000 F 
ATOM     15  F   UNL     1      45.189   3.307  12.214  0.00  0.00    +0.000 F 
BRANCH  13  16
ATOM     16  C   UNL     1      45.067   5.699  12.108  0.00  0.00    +0.000 A 
ATOM     17  C   UNL     1      46.459   5.755  12.274  0.00  0.00    +0.000 A 
ATOM     18  C   UNL     1      47.121   6.986  12.274  0.00  0.00    +0.000 A 
ATOM     19  C   UNL     1      46.400   8.167  12.111  0.00  0.00    +0.000 A 
ATOM     20  C   UNL     1      45.018   8.124  11.943  0.00  0.00    +0.000 A 
ATOM     21  C   UNL     1      44.354   6.896  11.940  0.00  0.00    +0.000 A 
ENDBRANCH  13  16
ENDBRANCH  12  13
ENDBRANCH   1  12
TORSDOF 4
ENDMDL
MODEL 9
REMARK VINA RESULT:    -6.642      1.834      2.402
REMARK INTER + INTRA:          -8.621
REMARK INTER:                  -7.915
REMARK INTRA:                  -0.706
REMARK UNBOUND:                -0.427
REMARK  Name = 
REMARK  4 active torsions:
REMARK  status: ('A' for Active; 'I' for Inactive)
REMARK    1  A    between atoms: C_6  and  N_7
REMARK    2  A    between atoms: N_7  and  C_8
REMARK    3  A    between atoms: C_8  and  C_9
REMARK    4  A    between atoms: C_9  and  C_12
REMARK                            x       y       z     vdW  Elec       q    Type
REMARK                         _______ _______ _______ _____ _____    ______ ____
ROOT
ATOM      1  N   UNL     1      45.082   4.768  12.859  0.00  0.00    +0.000 N 
ATOM      2  H   UNL     1      44.793   4.720  13.836  0.00  0.00    +0.000 HD
ENDROOT
BRANCH   1   8
ATOM      3  N   UNL     1      48.705   6.551  15.158  0.00  0.00    +0.000 N 
ATOM      4  C   UNL     1      47.984   6.488  13.965  0.00  0.00    +0.000 A 
ATOM      5  C   UNL     1      48.392   7.235  12.872  0.00  0.00    +0.000 A 
ATOM      6  C   UNL     1      47.647   7.158  11.705  0.00  0.00    +0.000 A 
ATOM      7  C   UNL     1      46.528   6.335  11.674  0.00  0.00    +0.000 A 
ATOM      8  C   UNL     1      46.198   5.586  12.797  0.00  0.00    +0.000 A 
ATOM      9  N   UNL     1      46.920   5.664  13.935  0.00  0.00    +0.000 NA
ATOM     10  H   UNL     1      48.811   7.508  15.473  0.00  0.00    +0.000 HD
ATOM     11  H   UNL     1      48.201   5.985  15.836  0.00  0.00    +0.000 HD
ENDBRANCH   1   8
BRANCH   1  12
ATOM     12  C   UNL     1      45.075   3.496  12.125  0.00  0.00    +0.000 C 
BRANCH  12  13
ATOM     13  C   UNL     1      44.220   3.492  10.832  0.00  0.00    +0.000 C 
ATOM     14  F   UNL     1      43.267   2.517  10.989  0.00  0.00    +0.000 F 
ATOM     15  F   UNL     1      43.512   4.664  10.793  0.00  0.00    +0.000 F 
BRANCH  13  16
ATOM     16  C   UNL     1      45.031   3.271   9.570  0.00  0.00    +0.000 A 
ATOM     17  C   UNL     1      45.374   1.978   9.147  0.00  0.00    +0.000 A 
ATOM     18  C   UNL     1      46.128   1.791   7.985  0.00  0.00    +0.000 A 
ATOM     19  C   UNL     1      46.546   2.891   7.239  0.00  0.00    +0.000 A 
ATOM     20  C   UNL     1      46.211   4.180   7.647  0.00  0.00    +0.000 A 
ATOM     21  C   UNL     1      45.455   4.370   8.806  0.00  0.00    +0.000 A 
ENDBRANCH  13  16
ENDBRANCH  12  13
ENDBRANCH   1  12
TORSDOF 4
ENDMDL
