MODEL 1
REMARK VINA RESULT:    -7.196      0.000      0.000
REMARK INTER + INTRA:         -11.405
REMARK INTER:                 -10.141
REMARK INTRA:                  -1.264
REMARK UNBOUND:                -1.264
REMARK  Name = 
REMARK  8 active torsions:
REMARK  status: ('A' for Active; 'I' for Inactive)
REMARK    1  A    between atoms: C_1  and  O_2
REMARK    2  A    between atoms: O_2  and  C_3
REMARK    3  A    between atoms: C_8  and  C_9
REMARK    4  A    between atoms: N_11  and  C_12
REMARK    5  A    between atoms: C_12  and  C_13
REMARK    6  A    between atoms: C_16  and  C_17
REMARK    7  A    between atoms: C_17  and  N_18
REMARK    8  A    between atoms: C_19  and  C_21
REMARK                            x       y       z     vdW  Elec       q    Type
REMARK                         _______ _______ _______ _____ _____    ______ ____
ROOT
ATOM      1  C   UNL     1      50.527   7.333  15.330  0.00  0.00    +0.000 A 
ATOM      2  C   UNL     1      49.239   6.786  15.414  0.00  0.00    +0.000 A 
ATOM      3  C   UNL     1      48.335   6.903  14.354  0.00  0.00    +0.000 A 
ATOM      4  C   UNL     1      48.699   7.593  13.190  0.00  0.00    +0.000 A 
ATOM      5  C   UNL     1      49.977   8.144  13.117  0.00  0.00    +0.000 A 
ATOM      6  F   UNL     1      50.348   8.820  12.018  0.00  0.00    +0.000 F 
ATOM      7  C   UNL     1      50.886   8.029  14.168  0.00  0.00    +0.000 A 
ENDROOT
BRANCH   1   8
ATOM      8  C   UNL     1      51.474   7.212  16.493  0.00  0.00    +0.000 C 
BRANCH   8  11
ATOM      9  C   UNL     1      51.452   5.068  17.702  0.00  0.00    +0.000 C 
ATOM     10  O   UNL     1      50.681   5.501  18.553  0.00  0.00    +0.000 OA
ATOM     11  N   UNL     1      51.901   5.847  16.666  0.00  0.00    +0.000 N 
ATOM     12  H   UNL     1      52.553   5.442  16.001  0.00  0.00    +0.000 HD
BRANCH   9  18
ATOM     13  C   UNL     1      51.149   2.534  17.284  0.00  0.00    +0.000 A 
ATOM     14  C   UNL     1      51.636   1.235  17.502  0.00  0.00    +0.000 A 
ATOM     15  C   UNL     1      52.873   1.026  18.115  0.00  0.00    +0.000 A 
ATOM     16  C   UNL     1      53.650   2.109  18.503  0.00  0.00    +0.000 A 
ATOM     17  C   UNL     1      53.169   3.404  18.319  0.00  0.00    +0.000 A 
ATOM     18  C   UNL     1      51.906   3.635  17.739  0.00  0.00    +0.000 A 
BRANCH  13  20
ATOM     19  C   UNL     1      48.765   2.736  17.405  0.00  0.00    +0.000 C 
ATOM     20  O   UNL     1      49.964   2.788  16.638  0.00  0.00    +0.000 OA
ENDBRANCH  13  20
ENDBRANCH   9  18
ENDBRANCH   8  11
ENDBRANCH   1   8
BRANCH   4  21
ATOM     21  C   UNL     1      47.746   7.715  12.036  0.00  0.00    +0.000 C 
BRANCH  21  22
ATOM     22  N   UNL     1      46.977   6.510  11.844  0.00  0.00    +0.000 N 
ATOM     23  C   UNL     1      45.638   6.425  12.124  0.00  0.00    +0.000 C 
ATOM     24  O   UNL     1      44.999   7.369  12.580  0.00  0.00    +0.000 OA
ATOM     25  H   UNL     1      47.508   5.659  11.693  0.00  0.00    +0.000 HD
BRANCH  23  26
ATOM     26  C   UNL     1      44.987   5.156  11.775  0.00  0.00    +0.000 A 
ATOM     27  C   UNL     1      44.241   4.475  12.727  0.00  0.00    +0.000 A 
ATOM     28  S   UNL     1      43.531   3.040  12.141  0.00  0.00    +0.000 S 
ATOM     29  C   UNL     1      44.229   3.255  10.603  0.00  0.00    +0.000 A 
ATOM     30  N   UNL     1      44.038   2.345   9.614  0.00  0.00    +0.000 NA
ATOM     31  C   UNL     1      44.650   2.622   8.508  0.00  0.00    +0.000 A 
ATOM     32  N   UNL     1      45.420   3.733   8.301  0.00  0.00    +0.000 N 
ATOM     33  C   UNL     1      45.595   4.708   9.254  0.00  0.00    +0.000 A 
ATOM     34  O   UNL     1      46.208   5.741   9.002  0.00  0.00    +0.000 OA
ATOM     35  C   UNL     1      44.965   4.425  10.530  0.00  0.00    +0.000 A 
ATOM     36  H   UNL     1      45.850   3.908   7.404  0.00  0.00    +0.000 HD
ENDBRANCH  23  26
ENDBRANCH  21  22
ENDBRANCH   4  21
TORSDOF 7
ENDMDL
MODEL 2
REMARK VINA RESULT:    -7.168      3.215      9.482
REMARK INTER + INTRA:         -11.365
REMARK INTER:                 -10.266
REMARK INTRA:                  -1.100
REMARK UNBOUND:                -1.264
REMARK  Name = 
REMARK  8 active torsions:
REMARK  status: ('A' for Active; 'I' for Inactive)
REMARK    1  A    between atoms: C_1  and  O_2
REMARK    2  A    between atoms: O_2  and  C_3
REMARK    3  A    between atoms: C_8  and  C_9
REMARK    4  A    between atoms: N_11  and  C_12
REMARK    5  A    between atoms: C_12  and  C_13
REMARK    6  A    between atoms: C_16  and  C_17
REMARK    7  A    between atoms: C_17  and  N_18
REMARK    8  A    between atoms: C_19  and  C_21
REMARK                            x       y       z     vdW  Elec       q    Type
REMARK                         _______ _______ _______ _____ _____    ______ ____
ROOT
ATOM      1  C   UNL     1      47.366   6.204  14.016  0.00  0.00    +0.000 A 
ATOM      2  C   UNL     1      46.912   4.918  14.343  0.00  0.00    +0.000 A 
ATOM      3  C   UNL     1      47.337   4.280  15.512  0.00  0.00    +0.000 A 
ATOM      4  C   UNL     1      48.247   4.912  16.370  0.00  0.00    +0.000 A 
ATOM      5  C   UNL     1      48.704   6.185  16.033  0.00  0.00    +0.000 A 
ATOM      6  F   UNL     1      49.585   6.808  16.831  0.00  0.00    +0.000 F 
ATOM      7  C   UNL     1      48.282   6.830  14.871  0.00  0.00    +0.000 A 
ENDROOT
BRANCH   1   8
ATOM      8  C   UNL     1      46.910   6.862  12.742  0.00  0.00    +0.000 C 
BRANCH   8  11
ATOM      9  C   UNL     1      45.455   5.978  10.964  0.00  0.00    +0.000 C 
ATOM     10  O   UNL     1      44.658   6.903  11.090  0.00  0.00    +0.000 OA
ATOM     11  N   UNL     1      46.578   5.876  11.746  0.00  0.00    +0.000 N 
ATOM     12  H   UNL     1      47.192   5.079  11.611  0.00  0.00    +0.000 HD
BRANCH   9  18
ATOM     13  C   UNL     1      44.325   3.867   9.987  0.00  0.00    +0.000 A 
ATOM     14  C   UNL     1      44.330   2.880   8.989  0.00  0.00    +0.000 A 
ATOM     15  C   UNL     1      45.200   2.966   7.899  0.00  0.00    +0.000 A 
ATOM     16  C   UNL     1      46.064   4.045   7.782  0.00  0.00    +0.000 A 
ATOM     17  C   UNL     1      46.091   5.019   8.779  0.00  0.00    +0.000 A 
ATOM     18  C   UNL     1      45.250   4.930   9.905  0.00  0.00    +0.000 A 
BRANCH  13  20
ATOM     19  C   UNL     1      43.579   2.799  11.998  0.00  0.00    +0.000 C 
ATOM     20  O   UNL     1      43.451   3.852  11.047  0.00  0.00    +0.000 OA
ENDBRANCH  13  20
ENDBRANCH   9  18
ENDBRANCH   8  11
ENDBRANCH   1   8
BRANCH   4  21
ATOM     21  C   UNL     1      48.702   4.246  17.637  0.00  0.00    +0.000 C 
BRANCH  21  22
ATOM     22  N   UNL     1      50.094   3.874  17.580  0.00  0.00    +0.000 N 
ATOM     23  C   UNL     1      50.993   4.188  18.565  0.00  0.00    +0.000 C 
ATOM     24  O   UNL     1      50.679   4.829  19.564  0.00  0.00    +0.000 OA
ATOM     25  H   UNL     1      50.436   3.554  16.680  0.00  0.00    +0.000 HD
BRANCH  23  26
ATOM     26  C   UNL     1      52.348   3.646  18.397  0.00  0.00    +0.000 A 
ATOM     27  C   UNL     1      53.449   4.416  18.744  0.00  0.00    +0.000 A 
ATOM     28  S   UNL     1      54.939   3.619  18.515  0.00  0.00    +0.000 S 
ATOM     29  C   UNL     1      54.167   2.229  17.906  0.00  0.00    +0.000 A 
ATOM     30  N   UNL     1      54.885   1.155  17.487  0.00  0.00    +0.000 NA
ATOM     31  C   UNL     1      54.169   0.183  17.022  0.00  0.00    +0.000 A 
ATOM     32  N   UNL     1      52.803   0.183  16.955  0.00  0.00    +0.000 N 
ATOM     33  C   UNL     1      52.034   1.224  17.419  0.00  0.00    +0.000 A 
ATOM     34  O   UNL     1      50.809   1.150  17.437  0.00  0.00    +0.000 OA
ATOM     35  C   UNL     1      52.789   2.360  17.910  0.00  0.00    +0.000 A 
ATOM     36  H   UNL     1      52.299  -0.620  16.607  0.00  0.00    +0.000 HD
ENDBRANCH  23  26
ENDBRANCH  21  22
ENDBRANCH   4  21
TORSDOF 7
ENDMDL
MODEL 3
REMARK VINA RESULT:    -6.878      1.469      2.185
REMARK INTER + INTRA:         -10.957
REMARK INTER:                  -9.938
REMARK INTRA:                  -1.019
REMARK UNBOUND:                -1.264
REMARK  Name = 
REMARK  8 active torsions:
REMARK  status: ('A' for Active; 'I' for Inactive)
REMARK    1  A    between atoms: C_1  and  O_2
REMARK    2  A    between atoms: O_2  and  C_3
REMARK    3  A    between atoms: C_8  and  C_9
REMARK    4  A    between atoms: N_11  and  C_12
REMARK    5  A    between atoms: C_12  and  C_13
REMARK    6  A    between atoms: C_16  and  C_17
REMARK    7  A    between atoms: C_17  and  N_18
REMARK    8  A    between atoms: C_19  and  C_21
REMARK                            x       y       z     vdW  Elec       q    Type
REMARK                         _______ _______ _______ _____ _____    ______ ____
ROOT
ATOM      1  C   UNL     1      50.755   7.586  15.310  0.00  0.00    +0.000 A 
ATOM      2  C   UNL     1      51.147   8.399  14.238  0.00  0.00    +0.000 A 
ATOM      3  C   UNL     1      50.271   8.674  13.183  0.00  0.00    +0.000 A 
ATOM      4  C   UNL     1      48.985   8.116  13.171  0.00  0.00    +0.000 A 
ATOM      5  C   UNL     1      48.605   7.299  14.235  0.00  0.00    +0.000 A 
ATOM      6  F   UNL     1      47.384   6.743  14.242  0.00  0.00    +0.000 F 
ATOM      7  C   UNL     1      49.471   7.024  15.293  0.00  0.00    +0.000 A 
ENDROOT
BRANCH   1   8
ATOM      8  C   UNL     1      51.722   7.289  16.424  0.00  0.00    +0.000 C 
BRANCH   8  11
ATOM      9  C   UNL     1      51.446   5.148  17.605  0.00  0.00    +0.000 C 
ATOM     10  O   UNL     1      50.814   5.676  18.516  0.00  0.00    +0.000 OA
ATOM     11  N   UNL     1      51.940   5.871  16.550  0.00  0.00    +0.000 N 
ATOM     12  H   UNL     1      52.472   5.386  15.834  0.00  0.00    +0.000 HD
BRANCH   9  18
ATOM     13  C   UNL     1      50.714   2.701  17.200  0.00  0.00    +0.000 A 
ATOM     14  C   UNL     1      51.007   1.338  17.364  0.00  0.00    +0.000 A 
ATOM     15  C   UNL     1      52.245   0.926  17.862  0.00  0.00    +0.000 A 
ATOM     16  C   UNL     1      53.214   1.866  18.186  0.00  0.00    +0.000 A 
ATOM     17  C   UNL     1      52.928   3.224  18.054  0.00  0.00    +0.000 A 
ATOM     18  C   UNL     1      51.671   3.661  17.592  0.00  0.00    +0.000 A 
BRANCH  13  20
ATOM     19  C   UNL     1      48.318   2.706  17.267  0.00  0.00    +0.000 C 
ATOM     20  O   UNL     1      49.531   3.150  16.665  0.00  0.00    +0.000 OA
ENDBRANCH  13  20
ENDBRANCH   9  18
ENDBRANCH   8  11
ENDBRANCH   1   8
BRANCH   4  21
ATOM     21  C   UNL     1      48.027   8.412  12.053  0.00  0.00    +0.000 C 
BRANCH  21  22
ATOM     22  N   UNL     1      47.391   7.216  11.558  0.00  0.00    +0.000 N 
ATOM     23  C   UNL     1      46.031   7.076  11.469  0.00  0.00    +0.000 C 
ATOM     24  O   UNL     1      45.253   7.956  11.823  0.00  0.00    +0.000 OA
ATOM     25  H   UNL     1      47.982   6.396  11.477  0.00  0.00    +0.000 HD
BRANCH  23  26
ATOM     26  C   UNL     1      45.552   5.833  10.848  0.00  0.00    +0.000 A 
ATOM     27  C   UNL     1      45.823   5.579   9.510  0.00  0.00    +0.000 A 
ATOM     28  S   UNL     1      45.221   4.079   8.965  0.00  0.00    +0.000 S 
ATOM     29  C   UNL     1      44.541   3.734  10.488  0.00  0.00    +0.000 A 
ATOM     30  N   UNL     1      43.843   2.589  10.700  0.00  0.00    +0.000 NA
ATOM     31  C   UNL     1      43.360   2.472  11.894  0.00  0.00    +0.000 A 
ATOM     32  N   UNL     1      43.527   3.388  12.896  0.00  0.00    +0.000 N 
ATOM     33  C   UNL     1      44.273   4.532  12.744  0.00  0.00    +0.000 A 
ATOM     34  O   UNL     1      44.488   5.282  13.691  0.00  0.00    +0.000 OA
ATOM     35  C   UNL     1      44.801   4.735  11.408  0.00  0.00    +0.000 A 
ATOM     36  H   UNL     1      43.148   3.225  13.819  0.00  0.00    +0.000 HD
ENDBRANCH  23  26
ENDBRANCH  21  22
ENDBRANCH   4  21
TORSDOF 7
ENDMDL
MODEL 4
REMARK VINA RESULT:    -6.853      3.416      4.775
REMARK INTER + INTRA:         -10.922
REMARK INTER:                  -9.699
REMARK INTRA:                  -1.223
REMARK UNBOUND:                -1.264
REMARK  Name = 
REMARK  8 active torsions:
REMARK  status: ('A' for Active; 'I' for Inactive)
REMARK    1  A    between atoms: C_1  and  O_2
REMARK    2  A    between atoms: O_2  and  C_3
REMARK    3  A    between atoms: C_8  and  C_9
REMARK    4  A    between atoms: N_11  and  C_12
REMARK    5  A    between atoms: C_12  and  C_13
REMARK    6  A    between atoms: C_16  and  C_17
REMARK    7  A    between atoms: C_17  and  N_18
REMARK    8  A    between atoms: C_19  and  C_21
REMARK                            x       y       z     vdW  Elec       q    Type
REMARK                         _______ _______ _______ _____ _____    ______ ____
ROOT
ATOM      1  C   UNL     1      47.678   4.961  15.720  0.00  0.00    +0.000 A 
ATOM      2  C   UNL     1      48.529   6.072  15.800  0.00  0.00    +0.000 A 
ATOM      3  C   UNL     1      48.692   6.935  14.712  0.00  0.00    +0.000 A 
ATOM      4  C   UNL     1      48.019   6.687  13.508  0.00  0.00    +0.000 A 
ATOM      5  C   UNL     1      47.184   5.574  13.430  0.00  0.00    +0.000 A 
ATOM      6  F   UNL     1      46.537   5.307  12.286  0.00  0.00    +0.000 F 
ATOM      7  C   UNL     1      47.012   4.710  14.512  0.00  0.00    +0.000 A 
ENDROOT
BRANCH   1   8
ATOM      8  C   UNL     1      47.534   4.035  16.897  0.00  0.00    +0.000 C 
BRANCH   8  11
ATOM      9  C   UNL     1      49.570   2.651  16.876  0.00  0.00    +0.000 C 
ATOM     10  O   UNL     1      49.163   1.983  15.929  0.00  0.00    +0.000 OA
ATOM     11  N   UNL     1      48.825   3.666  17.420  0.00  0.00    +0.000 N 
ATOM     12  H   UNL     1      49.202   4.173  18.215  0.00  0.00    +0.000 HD
BRANCH   9  18
ATOM     13  C   UNL     1      51.813   3.411  17.913  0.00  0.00    +0.000 A 
ATOM     14  C   UNL     1      53.113   3.054  18.305  0.00  0.00    +0.000 A 
ATOM     15  C   UNL     1      53.526   1.720  18.294  0.00  0.00    +0.000 A 
ATOM     16  C   UNL     1      52.642   0.721  17.908  0.00  0.00    +0.000 A 
ATOM     17  C   UNL     1      51.357   1.061  17.489  0.00  0.00    +0.000 A 
ATOM     18  C   UNL     1      50.935   2.405  17.455  0.00  0.00    +0.000 A 
BRANCH  13  20
ATOM     19  C   UNL     1      51.957   5.659  17.095  0.00  0.00    +0.000 C 
ATOM     20  O   UNL     1      51.348   4.703  17.958  0.00  0.00    +0.000 OA
ENDBRANCH  13  20
ENDBRANCH   9  18
ENDBRANCH   8  11
ENDBRANCH   1   8
BRANCH   4  21
ATOM     21  C   UNL     1      48.172   7.612  12.335  0.00  0.00    +0.000 C 
BRANCH  21  22
ATOM     22  N   UNL     1      47.074   8.540  12.234  0.00  0.00    +0.000 N 
ATOM     23  C   UNL     1      47.219   9.824  11.778  0.00  0.00    +0.000 C 
ATOM     24  O   UNL     1      48.305  10.283  11.437  0.00  0.00    +0.000 OA
ATOM     25  H   UNL     1      46.220   8.279  12.716  0.00  0.00    +0.000 HD
BRANCH  23  26
ATOM     26  C   UNL     1      45.981  10.603  11.643  0.00  0.00    +0.000 A 
ATOM     27  C   UNL     1      46.009  11.980  11.814  0.00  0.00    +0.000 A 
ATOM     28  S   UNL     1      44.492  12.727  11.590  0.00  0.00    +0.000 S 
ATOM     29  C   UNL     1      43.735  11.230  11.296  0.00  0.00    +0.000 A 
ATOM     30  N   UNL     1      42.400  11.155  11.056  0.00  0.00    +0.000 NA
ATOM     31  C   UNL     1      41.957   9.952  10.878  0.00  0.00    +0.000 A 
ATOM     32  N   UNL     1      42.731   8.825  10.903  0.00  0.00    +0.000 N 
ATOM     33  C   UNL     1      44.093   8.858  11.085  0.00  0.00    +0.000 A 
ATOM     34  O   UNL     1      44.771   7.839  11.001  0.00  0.00    +0.000 OA
ATOM     35  C   UNL     1      44.636  10.180  11.334  0.00  0.00    +0.000 A 
ATOM     36  H   UNL     1      42.329   7.914  10.728  0.00  0.00    +0.000 HD
ENDBRANCH  23  26
ENDBRANCH  21  22
ENDBRANCH   4  21
TORSDOF 7
ENDMDL
MODEL 5
REMARK VINA RESULT:    -6.750      2.546      3.406
REMARK INTER + INTRA:         -10.777
REMARK INTER:                  -9.297
REMARK INTRA:                  -1.480
REMARK UNBOUND:                -1.264
REMARK  Name = 
REMARK  8 active torsions:
REMARK  status: ('A' for Active; 'I' for Inactive)
REMARK    1  A    between atoms: C_1  and  O_2
REMARK    2  A    between atoms: O_2  and  C_3
REMARK    3  A    between atoms: C_8  and  C_9
REMARK    4  A    between atoms: N_11  and  C_12
REMARK    5  A    between atoms: C_12  and  C_13
REMARK    6  A    between atoms: C_16  and  C_17
REMARK    7  A    between atoms: C_17  and  N_18
REMARK    8  A    between atoms: C_19  and  C_21
REMARK                            x       y       z     vdW  Elec       q    Type
REMARK                         _______ _______ _______ _____ _____    ______ ____
ROOT
ATOM      1  C   UNL     1      49.867   8.393  15.473  0.00  0.00    +0.000 A 
ATOM      2  C   UNL     1      50.522   7.855  14.357  0.00  0.00    +0.000 A 
ATOM      3  C   UNL     1      49.854   7.683  13.141  0.00  0.00    +0.000 A 
ATOM      4  C   UNL     1      48.500   8.028  13.026  0.00  0.00    +0.000 A 
ATOM      5  C   UNL     1      47.851   8.552  14.142  0.00  0.00    +0.000 A 
ATOM      6  F   UNL     1      46.552   8.880  14.062  0.00  0.00    +0.000 F 
ATOM      7  C   UNL     1      48.512   8.731  15.357  0.00  0.00    +0.000 A 
ENDROOT
BRANCH   1   8
ATOM      8  C   UNL     1      50.602   8.550  16.776  0.00  0.00    +0.000 C 
BRANCH   8  11
ATOM      9  C   UNL     1      49.818   6.695  18.190  0.00  0.00    +0.000 C 
ATOM     10  O   UNL     1      50.456   5.868  17.543  0.00  0.00    +0.000 OA
ATOM     11  N   UNL     1      49.824   8.029  17.870  0.00  0.00    +0.000 N 
ATOM     12  H   UNL     1      49.263   8.665  18.428  0.00  0.00    +0.000 HD
BRANCH   9  18
ATOM     13  C   UNL     1      47.870   6.925  19.874  0.00  0.00    +0.000 A 
ATOM     14  C   UNL     1      47.308   6.513  21.093  0.00  0.00    +0.000 A 
ATOM     15  C   UNL     1      47.850   5.442  21.808  0.00  0.00    +0.000 A 
ATOM     16  C   UNL     1      48.950   4.758  21.309  0.00  0.00    +0.000 A 
ATOM     17  C   UNL     1      49.537   5.173  20.114  0.00  0.00    +0.000 A 
ATOM     18  C   UNL     1      49.029   6.275  19.399  0.00  0.00    +0.000 A 
BRANCH  13  20
ATOM     19  C   UNL     1      47.116   9.196  19.742  0.00  0.00    +0.000 C 
ATOM     20  O   UNL     1      47.338   7.937  19.113  0.00  0.00    +0.000 OA
ENDBRANCH  13  20
ENDBRANCH   9  18
ENDBRANCH   8  11
ENDBRANCH   1   8
BRANCH   4  21
ATOM     21  C   UNL     1      47.771   7.863  11.724  0.00  0.00    +0.000 C 
BRANCH  21  22
ATOM     22  N   UNL     1      46.986   6.654  11.696  0.00  0.00    +0.000 N 
ATOM     23  C   UNL     1      45.616   6.653  11.672  0.00  0.00    +0.000 C 
ATOM     24  O   UNL     1      44.956   7.688  11.693  0.00  0.00    +0.000 OA
ATOM     25  H   UNL     1      47.479   5.794  11.910  0.00  0.00    +0.000 HD
BRANCH  23  26
ATOM     26  C   UNL     1      44.975   5.338  11.543  0.00  0.00    +0.000 A 
ATOM     27  C   UNL     1      44.257   4.810  12.607  0.00  0.00    +0.000 A 
ATOM     28  S   UNL     1      43.555   3.292  12.272  0.00  0.00    +0.000 S 
ATOM     29  C   UNL     1      44.220   3.268  10.704  0.00  0.00    +0.000 A 
ATOM     30  N   UNL     1      44.022   2.210   9.876  0.00  0.00    +0.000 NA
ATOM     31  C   UNL     1      44.608   2.315   8.727  0.00  0.00    +0.000 A 
ATOM     32  N   UNL     1      45.359   3.387   8.330  0.00  0.00    +0.000 N 
ATOM     33  C   UNL     1      45.539   4.502   9.112  0.00  0.00    +0.000 A 
ATOM     34  O   UNL     1      46.132   5.489   8.687  0.00  0.00    +0.000 OA
ATOM     35  C   UNL     1      44.938   4.419  10.430  0.00  0.00    +0.000 A 
ATOM     36  H   UNL     1      45.768   3.421   7.407  0.00  0.00    +0.000 HD
ENDBRANCH  23  26
ENDBRANCH  21  22
ENDBRANCH   4  21
TORSDOF 7
ENDMDL
MODEL 6
REMARK VINA RESULT:    -6.632      5.163     10.810
REMARK INTER + INTRA:         -10.610
REMARK INTER:                  -9.762
REMARK INTRA:                  -0.848
REMARK UNBOUND:                -1.264
REMARK  Name = 
REMARK  8 active torsions:
REMARK  status: ('A' for Active; 'I' for Inactive)
REMARK    1  A    between atoms: C_1  and  O_2
REMARK    2  A    between atoms: O_2  and  C_3
REMARK    3  A    between atoms: C_8  and  C_9
REMARK    4  A    between atoms: N_11  and  C_12
REMARK    5  A    between atoms: C_12  and  C_13
REMARK    6  A    between atoms: C_16  and  C_17
REMARK    7  A    between atoms: C_17  and  N_18
REMARK    8  A    between atoms: C_19  and  C_21
REMARK                            x       y       z     vdW  Elec       q    Type
REMARK                         _______ _______ _______ _____ _____    ______ ____
ROOT
ATOM      1  C   UNL     1      43.977   8.150  11.207  0.00  0.00    +0.000 A 
ATOM      2  C   UNL     1      43.267   6.952  11.371  0.00  0.00    +0.000 A 
ATOM      3  C   UNL     1      43.865   5.836  11.963  0.00  0.00    +0.000 A 
ATOM      4  C   UNL     1      45.201   5.890  12.383  0.00  0.00    +0.000 A 
ATOM      5  C   UNL     1      45.905   7.080  12.206  0.00  0.00    +0.000 A 
ATOM      6  F   UNL     1      47.189   7.156  12.589  0.00  0.00    +0.000 F 
ATOM      7  C   UNL     1      45.315   8.200  11.621  0.00  0.00    +0.000 A 
ENDROOT
BRANCH   1   8
ATOM      8  C   UNL     1      43.318   9.332  10.549  0.00  0.00    +0.000 C 
BRANCH   8  11
ATOM      9  C   UNL     1      41.268  10.658  10.861  0.00  0.00    +0.000 C 
ATOM     10  O   UNL     1      41.262  11.014   9.686  0.00  0.00    +0.000 OA
ATOM     11  N   UNL     1      42.250   9.845  11.368  0.00  0.00    +0.000 N 
ATOM     12  H   UNL     1      42.216   9.598  12.352  0.00  0.00    +0.000 HD
BRANCH   9  18
ATOM     13  C   UNL     1      38.798  10.754  11.618  0.00  0.00    +0.000 A 
ATOM     14  C   UNL     1      37.850  11.317  12.488  0.00  0.00    +0.000 A 
ATOM     15  C   UNL     1      38.246  12.142  13.543  0.00  0.00    +0.000 A 
ATOM     16  C   UNL     1      39.593  12.401  13.757  0.00  0.00    +0.000 A 
ATOM     17  C   UNL     1      40.544  11.872  12.886  0.00  0.00    +0.000 A 
ATOM     18  C   UNL     1      40.162  11.071  11.792  0.00  0.00    +0.000 A 
BRANCH  13  20
ATOM     19  C   UNL     1      37.295  10.198   9.836  0.00  0.00    +0.000 C 
ATOM     20  O   UNL     1      38.458   9.896  10.600  0.00  0.00    +0.000 OA
ENDBRANCH  13  20
ENDBRANCH   9  18
ENDBRANCH   8  11
ENDBRANCH   1   8
BRANCH   4  21
ATOM     21  C   UNL     1      45.853   4.704  13.033  0.00  0.00    +0.000 C 
BRANCH  21  22
ATOM     22  N   UNL     1      46.379   5.026  14.337  0.00  0.00    +0.000 N 
ATOM     23  C   UNL     1      47.196   4.183  15.042  0.00  0.00    +0.000 C 
ATOM     24  O   UNL     1      47.525   3.078  14.620  0.00  0.00    +0.000 OA
ATOM     25  H   UNL     1      45.950   5.814  14.811  0.00  0.00    +0.000 HD
BRANCH  23  26
ATOM     26  C   UNL     1      47.724   4.708  16.308  0.00  0.00    +0.000 A 
ATOM     27  C   UNL     1      47.343   4.128  17.511  0.00  0.00    +0.000 A 
ATOM     28  S   UNL     1      48.076   4.841  18.876  0.00  0.00    +0.000 S 
ATOM     29  C   UNL     1      48.898   5.978  17.910  0.00  0.00    +0.000 A 
ATOM     30  N   UNL     1      49.695   6.925  18.469  0.00  0.00    +0.000 NA
ATOM     31  C   UNL     1      50.233   7.738  17.619  0.00  0.00    +0.000 A 
ATOM     32  N   UNL     1      50.057   7.680  16.264  0.00  0.00    +0.000 N 
ATOM     33  C   UNL     1      49.305   6.706  15.652  0.00  0.00    +0.000 A 
ATOM     34  O   UNL     1      49.250   6.620  14.429  0.00  0.00    +0.000 OA
ATOM     35  C   UNL     1      48.642   5.792  16.563  0.00  0.00    +0.000 A 
ATOM     36  H   UNL     1      50.528   8.328  15.650  0.00  0.00    +0.000 HD
ENDBRANCH  23  26
ENDBRANCH  21  22
ENDBRANCH   4  21
TORSDOF 7
ENDMDL
MODEL 7
REMARK VINA RESULT:    -6.286      2.559      3.668
REMARK INTER + INTRA:         -10.123
REMARK INTER:                  -9.035
REMARK INTRA:                  -1.088
REMARK UNBOUND:                -1.264
REMARK  Name = 
REMARK  8 active torsions:
REMARK  status: ('A' for Active; 'I' for Inactive)
REMARK    1  A    between atoms: C_1  and  O_2
REMARK    2  A    between atoms: O_2  and  C_3
REMARK    3  A    between atoms: C_8  and  C_9
REMARK    4  A    between atoms: N_11  and  C_12
REMARK    5  A    between atoms: C_12  and  C_13
REMARK    6  A    between atoms: C_16  and  C_17
REMARK    7  A    between atoms: C_17  and  N_18
REMARK    8  A    between atoms: C_19  and  C_21
REMARK                            x       y       z     vdW  Elec       q    Type
REMARK                         _______ _______ _______ _____ _____    ______ ____
ROOT
ATOM      1  C   UNL     1      50.577   7.293  15.452  0.00  0.00    +0.000 A 
ATOM      2  C   UNL     1      51.139   7.966  14.358  0.00  0.00    +0.000 A 
ATOM      3  C   UNL     1      50.381   8.250  13.218  0.00  0.00    +0.000 A 
ATOM      4  C   UNL     1      49.042   7.843  13.143  0.00  0.00    +0.000 A 
ATOM      5  C   UNL     1      48.492   7.164  14.229  0.00  0.00    +0.000 A 
ATOM      6  F   UNL     1      47.215   6.753  14.178  0.00  0.00    +0.000 F 
ATOM      7  C   UNL     1      49.240   6.881  15.371  0.00  0.00    +0.000 A 
ENDROOT
BRANCH   1   8
ATOM      8  C   UNL     1      51.419   6.982  16.659  0.00  0.00    +0.000 C 
BRANCH   8  11
ATOM      9  C   UNL     1      50.250   5.693  18.400  0.00  0.00    +0.000 C 
ATOM     10  O   UNL     1      50.586   4.622  17.900  0.00  0.00    +0.000 OA
ATOM     11  N   UNL     1      50.604   6.896  17.844  0.00  0.00    +0.000 N 
ATOM     12  H   UNL     1      50.283   7.750  18.288  0.00  0.00    +0.000 HD
BRANCH   9  18
ATOM     13  C   UNL     1      48.248   6.422  19.865  0.00  0.00    +0.000 A 
ATOM     14  C   UNL     1      47.685   6.482  21.149  0.00  0.00    +0.000 A 
ATOM     15  C   UNL     1      48.283   5.823  22.226  0.00  0.00    +0.000 A 
ATOM     16  C   UNL     1      49.440   5.082  22.033  0.00  0.00    +0.000 A 
ATOM     17  C   UNL     1      50.027   5.035  20.770  0.00  0.00    +0.000 A 
ATOM     18  C   UNL     1      49.461   5.726  19.680  0.00  0.00    +0.000 A 
BRANCH  13  20
ATOM     19  C   UNL     1      47.601   8.432  18.732  0.00  0.00    +0.000 C 
ATOM     20  O   UNL     1      47.666   7.009  18.768  0.00  0.00    +0.000 OA
ENDBRANCH  13  20
ENDBRANCH   9  18
ENDBRANCH   8  11
ENDBRANCH   1   8
BRANCH   4  21
ATOM     21  C   UNL     1      48.210   8.152  11.932  0.00  0.00    +0.000 C 
BRANCH  21  22
ATOM     22  N   UNL     1      47.503   6.990  11.453  0.00  0.00    +0.000 N 
ATOM     23  C   UNL     1      46.137   6.925  11.377  0.00  0.00    +0.000 C 
ATOM     24  O   UNL     1      45.412   7.850  11.732  0.00  0.00    +0.000 OA
ATOM     25  H   UNL     1      48.046   6.137  11.372  0.00  0.00    +0.000 HD
BRANCH  23  26
ATOM     26  C   UNL     1      45.583   5.707  10.771  0.00  0.00    +0.000 A 
ATOM     27  C   UNL     1      45.782   5.453   9.421  0.00  0.00    +0.000 A 
ATOM     28  S   UNL     1      45.099   3.982   8.894  0.00  0.00    +0.000 S 
ATOM     29  C   UNL     1      44.477   3.650  10.445  0.00  0.00    +0.000 A 
ATOM     30  N   UNL     1      43.746   2.530  10.681  0.00  0.00    +0.000 NA
ATOM     31  C   UNL     1      43.315   2.421  11.896  0.00  0.00    +0.000 A 
ATOM     32  N   UNL     1      43.562   3.322  12.895  0.00  0.00    +0.000 N 
ATOM     33  C   UNL     1      44.343   4.439  12.715  0.00  0.00    +0.000 A 
ATOM     34  O   UNL     1      44.630   5.173  13.657  0.00  0.00    +0.000 OA
ATOM     35  C   UNL     1      44.817   4.633  11.358  0.00  0.00    +0.000 A 
ATOM     36  H   UNL     1      43.220   3.166  13.833  0.00  0.00    +0.000 HD
ENDBRANCH  23  26
ENDBRANCH  21  22
ENDBRANCH   4  21
TORSDOF 7
ENDMDL
MODEL 8
REMARK VINA RESULT:    -6.235      3.687      6.217
REMARK INTER + INTRA:         -10.050
REMARK INTER:                  -8.421
REMARK INTRA:                  -1.629
REMARK UNBOUND:                -1.264
REMARK  Name = 
REMARK  8 active torsions:
REMARK  status: ('A' for Active; 'I' for Inactive)
REMARK    1  A    between atoms: C_1  and  O_2
REMARK    2  A    between atoms: O_2  and  C_3
REMARK    3  A    between atoms: C_8  and  C_9
REMARK    4  A    between atoms: N_11  and  C_12
REMARK    5  A    between atoms: C_12  and  C_13
REMARK    6  A    between atoms: C_16  and  C_17
REMARK    7  A    between atoms: C_17  and  N_18
REMARK    8  A    between atoms: C_19  and  C_21
REMARK                            x       y       z     vdW  Elec       q    Type
REMARK                         _______ _______ _______ _____ _____    ______ ____
ROOT
ATOM      1  C   UNL     1      47.329   4.459  15.566  0.00  0.00    +0.000 A 
ATOM      2  C   UNL     1      48.097   5.632  15.603  0.00  0.00    +0.000 A 
ATOM      3  C   UNL     1      48.130   6.506  14.513  0.00  0.00    +0.000 A 
ATOM      4  C   UNL     1      47.409   6.209  13.348  0.00  0.00    +0.000 A 
ATOM      5  C   UNL     1      46.657   5.036  13.313  0.00  0.00    +0.000 A 
ATOM      6  F   UNL     1      45.967   4.722  12.206  0.00  0.00    +0.000 F 
ATOM      7  C   UNL     1      46.615   4.161  14.398  0.00  0.00    +0.000 A 
ENDROOT
BRANCH   1   8
ATOM      8  C   UNL     1      47.325   3.524  16.745  0.00  0.00    +0.000 C 
BRANCH   8  11
ATOM      9  C   UNL     1      49.534   2.439  16.792  0.00  0.00    +0.000 C 
ATOM     10  O   UNL     1      49.228   1.667  15.887  0.00  0.00    +0.000 OA
ATOM     11  N   UNL     1      48.653   3.369  17.281  0.00  0.00    +0.000 N 
ATOM     12  H   UNL     1      48.953   3.969  18.043  0.00  0.00    +0.000 HD
BRANCH   9  18
ATOM     13  C   UNL     1      51.648   3.563  17.768  0.00  0.00    +0.000 A 
ATOM     14  C   UNL     1      52.984   3.413  18.174  0.00  0.00    +0.000 A 
ATOM     15  C   UNL     1      53.577   2.151  18.242  0.00  0.00    +0.000 A 
ATOM     16  C   UNL     1      52.841   1.018  17.923  0.00  0.00    +0.000 A 
ATOM     17  C   UNL     1      51.522   1.151  17.492  0.00  0.00    +0.000 A 
ATOM     18  C   UNL     1      50.919   2.419  17.378  0.00  0.00    +0.000 A 
BRANCH  13  20
ATOM     19  C   UNL     1      51.634   5.839  17.019  0.00  0.00    +0.000 C 
ATOM     20  O   UNL     1      51.010   4.778  17.737  0.00  0.00    +0.000 OA
ENDBRANCH  13  20
ENDBRANCH   9  18
ENDBRANCH   8  11
ENDBRANCH   1   8
BRANCH   4  21
ATOM     21  C   UNL     1      47.423   7.145  12.174  0.00  0.00    +0.000 C 
BRANCH  21  22
ATOM     22  N   UNL     1      48.751   7.626  11.884  0.00  0.00    +0.000 N 
ATOM     23  C   UNL     1      49.093   8.952  11.929  0.00  0.00    +0.000 C 
ATOM     24  O   UNL     1      48.282   9.832  12.203  0.00  0.00    +0.000 OA
ATOM     25  H   UNL     1      49.378   6.967  11.435  0.00  0.00    +0.000 HD
BRANCH  23  26
ATOM     26  C   UNL     1      50.511   9.259  11.705  0.00  0.00    +0.000 A 
ATOM     27  C   UNL     1      50.892  10.000  10.595  0.00  0.00    +0.000 A 
ATOM     28  S   UNL     1      52.571  10.290  10.510  0.00  0.00    +0.000 S 
ATOM     29  C   UNL     1      52.853   9.401  11.935  0.00  0.00    +0.000 A 
ATOM     30  N   UNL     1      54.112   9.229  12.415  0.00  0.00    +0.000 NA
ATOM     31  C   UNL     1      54.180   8.510  13.488  0.00  0.00    +0.000 A 
ATOM     32  N   UNL     1      53.103   7.961  14.128  0.00  0.00    +0.000 N 
ATOM     33  C   UNL     1      51.809   8.155  13.710  0.00  0.00    +0.000 A 
ATOM     34  O   UNL     1      50.859   7.734  14.364  0.00  0.00    +0.000 OA
ATOM     35  C   UNL     1      51.678   8.919  12.485  0.00  0.00    +0.000 A 
ATOM     36  H   UNL     1      53.220   7.430  14.980  0.00  0.00    +0.000 HD
ENDBRANCH  23  26
ENDBRANCH  21  22
ENDBRANCH   4  21
TORSDOF 7
ENDMDL
MODEL 9
REMARK VINA RESULT:    -6.086      1.486      2.205
REMARK INTER + INTRA:          -9.841
REMARK INTER:                  -8.604
REMARK INTRA:                  -1.237
REMARK UNBOUND:                -1.264
REMARK  Name = 
REMARK  8 active torsions:
REMARK  status: ('A' for Active; 'I' for Inactive)
REMARK    1  A    between atoms: C_1  and  O_2
REMARK    2  A    between atoms: O_2  and  C_3
REMARK    3  A    between atoms: C_8  and  C_9
REMARK    4  A    between atoms: N_11  and  C_12
REMARK    5  A    between atoms: C_12  and  C_13
REMARK    6  A    between atoms: C_16  and  C_17
REMARK    7  A    between atoms: C_17  and  N_18
REMARK    8  A    between atoms: C_19  and  C_21
REMARK                            x       y       z     vdW  Elec       q    Type
REMARK                         _______ _______ _______ _____ _____    ______ ____
ROOT
ATOM      1  C   UNL     1      49.784   8.173  14.267  0.00  0.00    +0.000 A 
ATOM      2  C   UNL     1      48.870   7.125  14.446  0.00  0.00    +0.000 A 
ATOM      3  C   UNL     1      47.712   7.037  13.669  0.00  0.00    +0.000 A 
ATOM      4  C   UNL     1      47.432   8.017  12.707  0.00  0.00    +0.000 A 
ATOM      5  C   UNL     1      48.338   9.063  12.541  0.00  0.00    +0.000 A 
ATOM      6  F   UNL     1      48.089  10.021  11.634  0.00  0.00    +0.000 F 
ATOM      7  C   UNL     1      49.499   9.156  13.309  0.00  0.00    +0.000 A 
ENDROOT
BRANCH   1   8
ATOM      8  C   UNL     1      51.014   8.257  15.129  0.00  0.00    +0.000 C 
BRANCH   8  11
ATOM      9  C   UNL     1      51.267   6.614  16.944  0.00  0.00    +0.000 C 
ATOM     10  O   UNL     1      50.863   7.412  17.787  0.00  0.00    +0.000 OA
ATOM     11  N   UNL     1      51.385   6.955  15.621  0.00  0.00    +0.000 N 
ATOM     12  H   UNL     1      51.742   6.262  14.971  0.00  0.00    +0.000 HD
BRANCH   9  18
ATOM     13  C   UNL     1      52.918   4.725  17.568  0.00  0.00    +0.000 A 
ATOM     14  C   UNL     1      53.112   3.352  17.788  0.00  0.00    +0.000 A 
ATOM     15  C   UNL     1      52.030   2.470  17.823  0.00  0.00    +0.000 A 
ATOM     16  C   UNL     1      50.737   2.948  17.657  0.00  0.00    +0.000 A 
ATOM     17  C   UNL     1      50.529   4.304  17.410  0.00  0.00    +0.000 A 
ATOM     18  C   UNL     1      51.611   5.203  17.331  0.00  0.00    +0.000 A 
BRANCH  13  20
ATOM     19  C   UNL     1      54.477   6.025  18.841  0.00  0.00    +0.000 C 
ATOM     20  O   UNL     1      53.947   5.635  17.577  0.00  0.00    +0.000 OA
ENDBRANCH  13  20
ENDBRANCH   9  18
ENDBRANCH   8  11
ENDBRANCH   1   8
BRANCH   4  21
ATOM     21  C   UNL     1      46.199   7.930  11.854  0.00  0.00    +0.000 C 
BRANCH  21  22
ATOM     22  N   UNL     1      45.793   6.564  11.633  0.00  0.00    +0.000 N 
ATOM     23  C   UNL     1      44.492   6.199  11.407  0.00  0.00    +0.000 C 
ATOM     24  O   UNL     1      43.571   7.011  11.396  0.00  0.00    +0.000 OA
ATOM     25  H   UNL     1      46.476   5.850  11.863  0.00  0.00    +0.000 HD
BRANCH  23  26
ATOM     26  C   UNL     1      44.266   4.780  11.100  0.00  0.00    +0.000 A 
ATOM     27  C   UNL     1      43.464   4.011  11.933  0.00  0.00    +0.000 A 
ATOM     28  S   UNL     1      43.284   2.398  11.409  0.00  0.00    +0.000 S 
ATOM     29  C   UNL     1      44.306   2.659  10.072  0.00  0.00    +0.000 A 
ATOM     30  N   UNL     1      44.603   1.652   9.210  0.00  0.00    +0.000 NA
ATOM     31  C   UNL     1      45.412   1.986   8.257  0.00  0.00    +0.000 A 
ATOM     32  N   UNL     1      45.936   3.237   8.083  0.00  0.00    +0.000 N 
ATOM     33  C   UNL     1      45.619   4.299   8.896  0.00  0.00    +0.000 A 
ATOM     34  O   UNL     1      46.026   5.431   8.652  0.00  0.00    +0.000 OA
ATOM     35  C   UNL     1      44.748   3.969  10.008  0.00  0.00    +0.000 A 
ATOM     36  H   UNL     1      46.542   3.443   7.300  0.00  0.00    +0.000 HD
ENDBRANCH  23  26
ENDBRANCH  21  22
ENDBRANCH   4  21
TORSDOF 7
ENDMDL
