MODEL 1
REMARK VINA RESULT:    -8.077      0.000      0.000
REMARK INTER + INTRA:         -11.705
REMARK INTER:                 -10.911
REMARK INTRA:                  -0.795
REMARK UNBOUND:                -0.795
REMARK  Name = 
REMARK  6 active torsions:
REMARK  status: ('A' for Active; 'I' for Inactive)
REMARK    1  A    between atoms: C_2  and  C_19
REMARK    2  A    between atoms: N_3  and  C_4
REMARK    3  A    between atoms: C_4  and  C_5
REMARK    4  A    between atoms: C_8  and  C_9
REMARK    5  A    between atoms: C_9  and  O_10
REMARK    6  A    between atoms: O_10  and  C_11
REMARK                            x       y       z     vdW  Elec       q    Type
REMARK                         _______ _______ _______ _____ _____    ______ ____
ROOT
ATOM      1  O   UNL     1      47.201   3.349  14.094  0.00  0.00    +0.000 OA
ATOM      2  C   UNL     1      46.974   4.522  14.369  0.00  0.00    +0.000 C 
ATOM      3  N   UNL     1      45.826   5.198  14.005  0.00  0.00    +0.000 N 
ATOM      4  H   UNL     1      45.631   6.073  14.475  0.00  0.00    +0.000 HD
ENDROOT
BRANCH   2   5
ATOM      5  C   UNL     1      47.772   5.298  15.305  0.00  0.00    +0.000 A 
ATOM      6  C   UNL     1      48.342   6.512  14.972  0.00  0.00    +0.000 A 
ATOM      7  S   UNL     1      49.715   6.843  15.952  0.00  0.00    +0.000 S 
ATOM      8  C   UNL     1      49.428   5.465  16.912  0.00  0.00    +0.000 A 
ATOM      9  N   UNL     1      50.304   5.027  17.855  0.00  0.00    +0.000 NA
ATOM     10  C   UNL     1      49.881   4.013  18.543  0.00  0.00    +0.000 A 
ATOM     11  N   UNL     1      48.641   3.436  18.413  0.00  0.00    +0.000 N 
ATOM     12  C   UNL     1      47.720   3.838  17.470  0.00  0.00    +0.000 A 
ATOM     13  O   UNL     1      46.599   3.362  17.411  0.00  0.00    +0.000 OA
ATOM     14  C   UNL     1      48.217   4.877  16.599  0.00  0.00    +0.000 A 
ATOM     15  H   UNL     1      48.334   2.717  19.052  0.00  0.00    +0.000 HD
ENDBRANCH   2   5
BRANCH   3  16
ATOM     16  C   UNL     1      44.675   4.502  13.499  0.00  0.00    +0.000 C 
BRANCH  16  17
ATOM     17  C   UNL     1      44.763   4.347  12.003  0.00  0.00    +0.000 A 
ATOM     18  C   UNL     1      45.315   5.371  11.221  0.00  0.00    +0.000 A 
ATOM     19  C   UNL     1      45.399   5.241   9.832  0.00  0.00    +0.000 A 
ATOM     20  C   UNL     1      44.910   4.099   9.190  0.00  0.00    +0.000 A 
ATOM     21  C   UNL     1      44.354   3.073   9.968  0.00  0.00    +0.000 A 
ATOM     22  C   UNL     1      44.274   3.201  11.361  0.00  0.00    +0.000 A 
BRANCH  20  23
ATOM     23  C   UNL     1      44.979   3.969   7.684  0.00  0.00    +0.000 C 
BRANCH  23  24
ATOM     24  O   UNL     1      46.338   4.026   7.267  0.00  0.00    +0.000 OA
BRANCH  24  25
ATOM     25  C   UNL     1      46.716   2.849   6.654  0.00  0.00    +0.000 A 
ATOM     26  N   UNL     1      46.773   2.895   5.316  0.00  0.00    +0.000 NA
ATOM     27  C   UNL     1      47.119   1.749   4.702  0.00  0.00    +0.000 A 
ATOM     28  C   UNL     1      47.419   0.585   5.371  0.00  0.00    +0.000 A 
ATOM     29  C   UNL     1      47.351   0.659   6.742  0.00  0.00    +0.000 A 
ATOM     30  N   UNL     1      47.001   1.773   7.411  0.00  0.00    +0.000 NA
ENDBRANCH  24  25
ENDBRANCH  23  24
ENDBRANCH  20  23
ENDBRANCH  16  17
ENDBRANCH   3  16
TORSDOF 6
ENDMDL
MODEL 2
REMARK VINA RESULT:    -7.999      3.320      4.461
REMARK INTER + INTRA:         -11.599
REMARK INTER:                 -10.819
REMARK INTRA:                  -0.780
REMARK UNBOUND:                -0.795
REMARK  Name = 
REMARK  6 active torsions:
REMARK  status: ('A' for Active; 'I' for Inactive)
REMARK    1  A    between atoms: C_2  and  C_19
REMARK    2  A    between atoms: N_3  and  C_4
REMARK    3  A    between atoms: C_4  and  C_5
REMARK    4  A    between atoms: C_8  and  C_9
REMARK    5  A    between atoms: C_9  and  O_10
REMARK    6  A    between atoms: O_10  and  C_11
REMARK                            x       y       z     vdW  Elec       q    Type
REMARK                         _______ _______ _______ _____ _____    ______ ____
ROOT
ATOM      1  O   UNL     1      45.481   4.116  12.135  0.00  0.00    +0.000 OA
ATOM      2  C   UNL     1      45.449   5.159  11.491  0.00  0.00    +0.000 C 
ATOM      3  N   UNL     1      44.999   5.256  10.190  0.00  0.00    +0.000 N 
ATOM      4  H   UNL     1      44.793   6.181   9.834  0.00  0.00    +0.000 HD
ENDROOT
BRANCH   2   5
ATOM      5  C   UNL     1      45.664   6.473  12.077  0.00  0.00    +0.000 A 
ATOM      6  C   UNL     1      44.732   7.490  11.991  0.00  0.00    +0.000 A 
ATOM      7  S   UNL     1      45.479   9.031  12.134  0.00  0.00    +0.000 S 
ATOM      8  C   UNL     1      46.991   8.324  12.481  0.00  0.00    +0.000 A 
ATOM      9  N   UNL     1      48.141   9.044  12.562  0.00  0.00    +0.000 NA
ATOM     10  C   UNL     1      49.178   8.352  12.915  0.00  0.00    +0.000 A 
ATOM     11  N   UNL     1      49.158   7.020  13.250  0.00  0.00    +0.000 N 
ATOM     12  C   UNL     1      48.021   6.245  13.178  0.00  0.00    +0.000 A 
ATOM     13  O   UNL     1      48.003   5.081  13.543  0.00  0.00    +0.000 OA
ATOM     14  C   UNL     1      46.879   6.959  12.657  0.00  0.00    +0.000 A 
ATOM     15  H   UNL     1      49.980   6.565  13.619  0.00  0.00    +0.000 HD
ENDBRANCH   2   5
BRANCH   3  16
ATOM     16  C   UNL     1      44.278   4.182   9.564  0.00  0.00    +0.000 C 
BRANCH  16  17
ATOM     17  C   UNL     1      45.183   3.391   8.656  0.00  0.00    +0.000 A 
ATOM     18  C   UNL     1      45.806   4.015   7.567  0.00  0.00    +0.000 A 
ATOM     19  C   UNL     1      46.645   3.292   6.714  0.00  0.00    +0.000 A 
ATOM     20  C   UNL     1      46.859   1.924   6.914  0.00  0.00    +0.000 A 
ATOM     21  C   UNL     1      46.235   1.295   8.000  0.00  0.00    +0.000 A 
ATOM     22  C   UNL     1      45.397   2.021   8.857  0.00  0.00    +0.000 A 
BRANCH  20  23
ATOM     23  C   UNL     1      47.748   1.136   5.977  0.00  0.00    +0.000 C 
BRANCH  23  24
ATOM     24  O   UNL     1      47.587   1.624   4.650  0.00  0.00    +0.000 OA
BRANCH  24  25
ATOM     25  C   UNL     1      46.931   0.701   3.862  0.00  0.00    +0.000 A 
ATOM     26  N   UNL     1      45.957   1.200   3.089  0.00  0.00    +0.000 NA
ATOM     27  C   UNL     1      45.294   0.309   2.329  0.00  0.00    +0.000 A 
ATOM     28  C   UNL     1      45.579  -1.037   2.308  0.00  0.00    +0.000 A 
ATOM     29  C   UNL     1      46.613  -1.434   3.123  0.00  0.00    +0.000 A 
ATOM     30  N   UNL     1      47.304  -0.591   3.911  0.00  0.00    +0.000 NA
ENDBRANCH  24  25
ENDBRANCH  23  24
ENDBRANCH  20  23
ENDBRANCH  16  17
ENDBRANCH   3  16
TORSDOF 6
ENDMDL
MODEL 3
REMARK VINA RESULT:    -7.842      1.995      2.740
REMARK INTER + INTRA:         -11.387
REMARK INTER:                 -10.621
REMARK INTRA:                  -0.766
REMARK UNBOUND:                -0.795
REMARK  Name = 
REMARK  6 active torsions:
REMARK  status: ('A' for Active; 'I' for Inactive)
REMARK    1  A    between atoms: C_2  and  C_19
REMARK    2  A    between atoms: N_3  and  C_4
REMARK    3  A    between atoms: C_4  and  C_5
REMARK    4  A    between atoms: C_8  and  C_9
REMARK    5  A    between atoms: C_9  and  O_10
REMARK    6  A    between atoms: O_10  and  C_11
REMARK                            x       y       z     vdW  Elec       q    Type
REMARK                         _______ _______ _______ _____ _____    ______ ____
ROOT
ATOM      1  O   UNL     1      48.600   8.174  16.188  0.00  0.00    +0.000 OA
ATOM      2  C   UNL     1      48.669   6.957  16.058  0.00  0.00    +0.000 C 
ATOM      3  N   UNL     1      48.187   6.263  14.967  0.00  0.00    +0.000 N 
ATOM      4  H   UNL     1      48.499   5.307  14.846  0.00  0.00    +0.000 HD
ENDROOT
BRANCH   2   5
ATOM      5  C   UNL     1      49.464   6.099  16.923  0.00  0.00    +0.000 A 
ATOM      6  C   UNL     1      50.617   6.534  17.549  0.00  0.00    +0.000 A 
ATOM      7  S   UNL     1      51.663   5.218  17.906  0.00  0.00    +0.000 S 
ATOM      8  C   UNL     1      50.502   4.085  17.388  0.00  0.00    +0.000 A 
ATOM      9  N   UNL     1      50.771   2.758  17.261  0.00  0.00    +0.000 NA
ATOM     10  C   UNL     1      49.745   2.037  16.934  0.00  0.00    +0.000 A 
ATOM     11  N   UNL     1      48.465   2.513  16.780  0.00  0.00    +0.000 N 
ATOM     12  C   UNL     1      48.142   3.848  16.892  0.00  0.00    +0.000 A 
ATOM     13  O   UNL     1      46.992   4.247  16.819  0.00  0.00    +0.000 OA
ATOM     14  C   UNL     1      49.290   4.692  17.121  0.00  0.00    +0.000 A 
ATOM     15  H   UNL     1      47.691   1.882  16.629  0.00  0.00    +0.000 HD
ENDBRANCH   2   5
BRANCH   3  16
ATOM     16  C   UNL     1      47.799   6.939  13.760  0.00  0.00    +0.000 C 
BRANCH  16  17
ATOM     17  C   UNL     1      46.860   6.085  12.949  0.00  0.00    +0.000 A 
ATOM     18  C   UNL     1      46.252   6.605  11.799  0.00  0.00    +0.000 A 
ATOM     19  C   UNL     1      45.376   5.824  11.039  0.00  0.00    +0.000 A 
ATOM     20  C   UNL     1      45.066   4.516  11.428  0.00  0.00    +0.000 A 
ATOM     21  C   UNL     1      45.669   3.993  12.580  0.00  0.00    +0.000 A 
ATOM     22  C   UNL     1      46.551   4.774  13.338  0.00  0.00    +0.000 A 
BRANCH  20  23
ATOM     23  C   UNL     1      44.098   3.679  10.619  0.00  0.00    +0.000 C 
BRANCH  23  24
ATOM     24  O   UNL     1      44.141   4.090   9.258  0.00  0.00    +0.000 OA
BRANCH  24  25
ATOM     25  C   UNL     1      45.128   3.416   8.570  0.00  0.00    +0.000 A 
ATOM     26  N   UNL     1      45.836   4.161   7.710  0.00  0.00    +0.000 NA
ATOM     27  C   UNL     1      46.790   3.513   7.015  0.00  0.00    +0.000 A 
ATOM     28  C   UNL     1      47.061   2.172   7.161  0.00  0.00    +0.000 A 
ATOM     29  C   UNL     1      46.289   1.512   8.087  0.00  0.00    +0.000 A 
ATOM     30  N   UNL     1      45.316   2.104   8.803  0.00  0.00    +0.000 NA
ENDBRANCH  24  25
ENDBRANCH  23  24
ENDBRANCH  20  23
ENDBRANCH  16  17
ENDBRANCH   3  16
TORSDOF 6
ENDMDL
MODEL 4
REMARK VINA RESULT:    -7.727      2.030      2.861
REMARK INTER + INTRA:         -11.233
REMARK INTER:                 -10.305
REMARK INTRA:                  -0.928
REMARK UNBOUND:                -0.795
REMARK  Name = 
REMARK  6 active torsions:
REMARK  status: ('A' for Active; 'I' for Inactive)
REMARK    1  A    between atoms: C_2  and  C_19
REMARK    2  A    between atoms: N_3  and  C_4
REMARK    3  A    between atoms: C_4  and  C_5
REMARK    4  A    between atoms: C_8  and  C_9
REMARK    5  A    between atoms: C_9  and  O_10
REMARK    6  A    between atoms: O_10  and  C_11
REMARK                            x       y       z     vdW  Elec       q    Type
REMARK                         _______ _______ _______ _____ _____    ______ ____
ROOT
ATOM      1  O   UNL     1      49.231   6.787  13.706  0.00  0.00    +0.000 OA
ATOM      2  C   UNL     1      48.478   7.098  14.622  0.00  0.00    +0.000 C 
ATOM      3  N   UNL     1      47.429   7.987  14.499  0.00  0.00    +0.000 N 
ATOM      4  H   UNL     1      46.734   7.995  15.236  0.00  0.00    +0.000 HD
ENDROOT
BRANCH   2   5
ATOM      5  C   UNL     1      48.441   6.409  15.902  0.00  0.00    +0.000 A 
ATOM      6  C   UNL     1      48.860   6.998  17.080  0.00  0.00    +0.000 A 
ATOM      7  S   UNL     1      49.342   5.815  18.230  0.00  0.00    +0.000 S 
ATOM      8  C   UNL     1      48.825   4.545  17.219  0.00  0.00    +0.000 A 
ATOM      9  N   UNL     1      49.073   3.237  17.491  0.00  0.00    +0.000 NA
ATOM     10  C   UNL     1      48.533   2.408  16.654  0.00  0.00    +0.000 A 
ATOM     11  N   UNL     1      47.722   2.765  15.606  0.00  0.00    +0.000 N 
ATOM     12  C   UNL     1      47.443   4.076  15.284  0.00  0.00    +0.000 A 
ATOM     13  O   UNL     1      46.667   4.376  14.392  0.00  0.00    +0.000 OA
ATOM     14  C   UNL     1      48.142   5.025  16.118  0.00  0.00    +0.000 A 
ATOM     15  H   UNL     1      47.246   2.064  15.055  0.00  0.00    +0.000 HD
ENDBRANCH   2   5
BRANCH   3  16
ATOM     16  C   UNL     1      46.964   8.424  13.212  0.00  0.00    +0.000 C 
BRANCH  16  17
ATOM     17  C   UNL     1      46.191   7.328  12.525  0.00  0.00    +0.000 A 
ATOM     18  C   UNL     1      44.917   6.970  12.988  0.00  0.00    +0.000 A 
ATOM     19  C   UNL     1      44.191   5.953  12.363  0.00  0.00    +0.000 A 
ATOM     20  C   UNL     1      44.730   5.252  11.280  0.00  0.00    +0.000 A 
ATOM     21  C   UNL     1      46.005   5.604  10.815  0.00  0.00    +0.000 A 
ATOM     22  C   UNL     1      46.732   6.627  11.439  0.00  0.00    +0.000 A 
BRANCH  20  23
ATOM     23  C   UNL     1      43.953   4.134  10.618  0.00  0.00    +0.000 C 
BRANCH  23  24
ATOM     24  O   UNL     1      43.966   4.321   9.207  0.00  0.00    +0.000 OA
BRANCH  24  25
ATOM     25  C   UNL     1      44.926   3.529   8.613  0.00  0.00    +0.000 A 
ATOM     26  N   UNL     1      45.693   4.145   7.704  0.00  0.00    +0.000 NA
ATOM     27  C   UNL     1      46.621   3.380   7.101  0.00  0.00    +0.000 A 
ATOM     28  C   UNL     1      46.811   2.046   7.382  0.00  0.00    +0.000 A 
ATOM     29  C   UNL     1      45.983   1.524   8.348  0.00  0.00    +0.000 A 
ATOM     30  N   UNL     1      45.032   2.237   8.978  0.00  0.00    +0.000 NA
ENDBRANCH  24  25
ENDBRANCH  23  24
ENDBRANCH  20  23
ENDBRANCH  16  17
ENDBRANCH   3  16
TORSDOF 6
ENDMDL
MODEL 5
REMARK VINA RESULT:    -7.601      1.712      2.999
REMARK INTER + INTRA:         -11.061
REMARK INTER:                 -10.203
REMARK INTRA:                  -0.859
REMARK UNBOUND:                -0.795
REMARK  Name = 
REMARK  6 active torsions:
REMARK  status: ('A' for Active; 'I' for Inactive)
REMARK    1  A    between atoms: C_2  and  C_19
REMARK    2  A    between atoms: N_3  and  C_4
REMARK    3  A    between atoms: C_4  and  C_5
REMARK    4  A    between atoms: C_8  and  C_9
REMARK    5  A    between atoms: C_9  and  O_10
REMARK    6  A    between atoms: O_10  and  C_11
REMARK                            x       y       z     vdW  Elec       q    Type
REMARK                         _______ _______ _______ _____ _____    ______ ____
ROOT
ATOM      1  O   UNL     1      47.230   3.487  15.106  0.00  0.00    +0.000 OA
ATOM      2  C   UNL     1      47.286   4.692  14.883  0.00  0.00    +0.000 C 
ATOM      3  N   UNL     1      46.361   5.388  14.132  0.00  0.00    +0.000 N 
ATOM      4  H   UNL     1      46.364   6.398  14.203  0.00  0.00    +0.000 HD
ENDROOT
BRANCH   2   5
ATOM      5  C   UNL     1      48.204   5.594  15.561  0.00  0.00    +0.000 A 
ATOM      6  C   UNL     1      48.492   5.491  16.909  0.00  0.00    +0.000 A 
ATOM      7  S   UNL     1      49.009   6.999  17.550  0.00  0.00    +0.000 S 
ATOM      8  C   UNL     1      49.010   7.716  16.004  0.00  0.00    +0.000 A 
ATOM      9  N   UNL     1      49.198   9.048  15.809  0.00  0.00    +0.000 NA
ATOM     10  C   UNL     1      49.249   9.401  14.563  0.00  0.00    +0.000 A 
ATOM     11  N   UNL     1      49.187   8.536  13.497  0.00  0.00    +0.000 N 
ATOM     12  C   UNL     1      48.992   7.179  13.641  0.00  0.00    +0.000 A 
ATOM     13  O   UNL     1      49.007   6.416  12.691  0.00  0.00    +0.000 OA
ATOM     14  C   UNL     1      48.796   6.777  15.014  0.00  0.00    +0.000 A 
ATOM     15  H   UNL     1      49.340   8.863  12.554  0.00  0.00    +0.000 HD
ENDBRANCH   2   5
BRANCH   3  16
ATOM     16  C   UNL     1      45.100   4.803  13.766  0.00  0.00    +0.000 C 
BRANCH  16  17
ATOM     17  C   UNL     1      45.019   4.602  12.275  0.00  0.00    +0.000 A 
ATOM     18  C   UNL     1      44.388   3.465  11.753  0.00  0.00    +0.000 A 
ATOM     19  C   UNL     1      44.310   3.264  10.371  0.00  0.00    +0.000 A 
ATOM     20  C   UNL     1      44.883   4.180   9.483  0.00  0.00    +0.000 A 
ATOM     21  C   UNL     1      45.517   5.317  10.001  0.00  0.00    +0.000 A 
ATOM     22  C   UNL     1      45.592   5.521  11.386  0.00  0.00    +0.000 A 
BRANCH  20  23
ATOM     23  C   UNL     1      44.818   3.950   7.988  0.00  0.00    +0.000 C 
BRANCH  23  24
ATOM     24  O   UNL     1      46.104   4.171   7.420  0.00  0.00    +0.000 OA
BRANCH  24  25
ATOM     25  C   UNL     1      46.568   3.033   6.793  0.00  0.00    +0.000 A 
ATOM     26  N   UNL     1      46.675   1.952   7.578  0.00  0.00    +0.000 NA
ATOM     27  C   UNL     1      47.146   0.839   6.986  0.00  0.00    +0.000 A 
ATOM     28  C   UNL     1      47.492   0.771   5.656  0.00  0.00    +0.000 A 
ATOM     29  C   UNL     1      47.319   1.932   4.941  0.00  0.00    +0.000 A 
ATOM     30  N   UNL     1      46.863   3.077   5.481  0.00  0.00    +0.000 NA
ENDBRANCH  24  25
ENDBRANCH  23  24
ENDBRANCH  20  23
ENDBRANCH  16  17
ENDBRANCH   3  16
TORSDOF 6
ENDMDL
MODEL 6
REMARK VINA RESULT:    -7.475      2.411      3.402
REMARK INTER + INTRA:         -10.891
REMARK INTER:                 -10.047
REMARK INTRA:                  -0.844
REMARK UNBOUND:                -0.795
REMARK  Name = 
REMARK  6 active torsions:
REMARK  status: ('A' for Active; 'I' for Inactive)
REMARK    1  A    between atoms: C_2  and  C_19
REMARK    2  A    between atoms: N_3  and  C_4
REMARK    3  A    between atoms: C_4  and  C_5
REMARK    4  A    between atoms: C_8  and  C_9
REMARK    5  A    between atoms: C_9  and  O_10
REMARK    6  A    between atoms: O_10  and  C_11
REMARK                            x       y       z     vdW  Elec       q    Type
REMARK                         _______ _______ _______ _____ _____    ______ ____
ROOT
ATOM      1  O   UNL     1      50.273   6.211  16.103  0.00  0.00    +0.000 OA
ATOM      2  C   UNL     1      49.191   6.769  16.250  0.00  0.00    +0.000 C 
ATOM      3  N   UNL     1      48.392   7.203  15.211  0.00  0.00    +0.000 N 
ATOM      4  H   UNL     1      47.429   7.431  15.425  0.00  0.00    +0.000 HD
ENDROOT
BRANCH   2   5
ATOM      5  C   UNL     1      48.493   6.849  17.524  0.00  0.00    +0.000 A 
ATOM      6  C   UNL     1      48.062   8.046  18.064  0.00  0.00    +0.000 A 
ATOM      7  S   UNL     1      47.917   7.938  19.773  0.00  0.00    +0.000 S 
ATOM      8  C   UNL     1      48.257   6.269  19.751  0.00  0.00    +0.000 A 
ATOM      9  N   UNL     1      48.458   5.541  20.881  0.00  0.00    +0.000 NA
ATOM     10  C   UNL     1      48.622   4.272  20.674  0.00  0.00    +0.000 A 
ATOM     11  N   UNL     1      48.546   3.659  19.448  0.00  0.00    +0.000 N 
ATOM     12  C   UNL     1      48.351   4.351  18.272  0.00  0.00    +0.000 A 
ATOM     13  O   UNL     1      48.218   3.787  17.199  0.00  0.00    +0.000 OA
ATOM     14  C   UNL     1      48.300   5.782  18.459  0.00  0.00    +0.000 A 
ATOM     15  H   UNL     1      48.578   2.652  19.368  0.00  0.00    +0.000 HD
ENDBRANCH   2   5
BRANCH   3  16
ATOM     16  C   UNL     1      48.640   6.796  13.855  0.00  0.00    +0.000 C 
BRANCH  16  17
ATOM     17  C   UNL     1      47.406   6.178  13.251  0.00  0.00    +0.000 A 
ATOM     18  C   UNL     1      46.983   4.907  13.663  0.00  0.00    +0.000 A 
ATOM     19  C   UNL     1      45.842   4.320  13.108  0.00  0.00    +0.000 A 
ATOM     20  C   UNL     1      45.114   4.978  12.111  0.00  0.00    +0.000 A 
ATOM     21  C   UNL     1      45.535   6.248  11.693  0.00  0.00    +0.000 A 
ATOM     22  C   UNL     1      46.676   6.838  12.253  0.00  0.00    +0.000 A 
BRANCH  20  23
ATOM     23  C   UNL     1      43.892   4.332  11.493  0.00  0.00    +0.000 C 
BRANCH  23  24
ATOM     24  O   UNL     1      43.815   4.686  10.117  0.00  0.00    +0.000 OA
BRANCH  24  25
ATOM     25  C   UNL     1      44.619   3.867   9.352  0.00  0.00    +0.000 A 
ATOM     26  N   UNL     1      45.359   4.494   8.428  0.00  0.00    +0.000 NA
ATOM     27  C   UNL     1      46.134   3.706   7.659  0.00  0.00    +0.000 A 
ATOM     28  C   UNL     1      46.199   2.338   7.792  0.00  0.00    +0.000 A 
ATOM     29  C   UNL     1      45.415   1.804   8.787  0.00  0.00    +0.000 A 
ATOM     30  N   UNL     1      44.615   2.540   9.580  0.00  0.00    +0.000 NA
ENDBRANCH  24  25
ENDBRANCH  23  24
ENDBRANCH  20  23
ENDBRANCH  16  17
ENDBRANCH   3  16
TORSDOF 6
ENDMDL
MODEL 7
REMARK VINA RESULT:    -7.331      2.542      3.519
REMARK INTER + INTRA:         -10.697
REMARK INTER:                  -9.818
REMARK INTRA:                  -0.880
REMARK UNBOUND:                -0.795
REMARK  Name = 
REMARK  6 active torsions:
REMARK  status: ('A' for Active; 'I' for Inactive)
REMARK    1  A    between atoms: C_2  and  C_19
REMARK    2  A    between atoms: N_3  and  C_4
REMARK    3  A    between atoms: C_4  and  C_5
REMARK    4  A    between atoms: C_8  and  C_9
REMARK    5  A    between atoms: C_9  and  O_10
REMARK    6  A    between atoms: O_10  and  C_11
REMARK                            x       y       z     vdW  Elec       q    Type
REMARK                         _______ _______ _______ _____ _____    ______ ____
ROOT
ATOM      1  O   UNL     1      50.014   4.785  16.740  0.00  0.00    +0.000 OA
ATOM      2  C   UNL     1      49.132   5.623  16.892  0.00  0.00    +0.000 C 
ATOM      3  N   UNL     1      47.912   5.594  16.248  0.00  0.00    +0.000 N 
ATOM      4  H   UNL     1      47.176   6.186  16.612  0.00  0.00    +0.000 HD
ENDROOT
BRANCH   2   5
ATOM      5  C   UNL     1      49.156   6.636  17.936  0.00  0.00    +0.000 A 
ATOM      6  C   UNL     1      50.048   7.692  17.931  0.00  0.00    +0.000 A 
ATOM      7  S   UNL     1      50.312   8.288  19.521  0.00  0.00    +0.000 S 
ATOM      8  C   UNL     1      49.114   7.260  20.163  0.00  0.00    +0.000 A 
ATOM      9  N   UNL     1      48.904   7.115  21.498  0.00  0.00    +0.000 NA
ATOM     10  C   UNL     1      47.898   6.355  21.799  0.00  0.00    +0.000 A 
ATOM     11  N   UNL     1      47.050   5.775  20.887  0.00  0.00    +0.000 N 
ATOM     12  C   UNL     1      47.223   5.886  19.524  0.00  0.00    +0.000 A 
ATOM     13  O   UNL     1      46.424   5.423  18.727  0.00  0.00    +0.000 OA
ATOM     14  C   UNL     1      48.415   6.615  19.161  0.00  0.00    +0.000 A 
ATOM     15  H   UNL     1      46.223   5.281  21.188  0.00  0.00    +0.000 HD
ENDBRANCH   2   5
BRANCH   3  16
ATOM     16  C   UNL     1      47.466   4.425  15.540  0.00  0.00    +0.000 C 
BRANCH  16  17
ATOM     17  C   UNL     1      46.888   4.802  14.201  0.00  0.00    +0.000 A 
ATOM     18  C   UNL     1      45.781   4.108  13.693  0.00  0.00    +0.000 A 
ATOM     19  C   UNL     1      45.238   4.445  12.449  0.00  0.00    +0.000 A 
ATOM     20  C   UNL     1      45.804   5.463  11.675  0.00  0.00    +0.000 A 
ATOM     21  C   UNL     1      46.913   6.157  12.178  0.00  0.00    +0.000 A 
ATOM     22  C   UNL     1      47.455   5.822  13.426  0.00  0.00    +0.000 A 
BRANCH  20  23
ATOM     23  C   UNL     1      45.230   5.811  10.318  0.00  0.00    +0.000 C 
BRANCH  23  24
ATOM     24  O   UNL     1      44.468   4.713   9.831  0.00  0.00    +0.000 OA
BRANCH  24  25
ATOM     25  C   UNL     1      45.220   3.932   8.978  0.00  0.00    +0.000 A 
ATOM     26  N   UNL     1      45.145   2.612   9.195  0.00  0.00    +0.000 NA
ATOM     27  C   UNL     1      45.888   1.838   8.384  0.00  0.00    +0.000 A 
ATOM     28  C   UNL     1      46.679   2.332   7.372  0.00  0.00    +0.000 A 
ATOM     29  C   UNL     1      46.662   3.699   7.225  0.00  0.00    +0.000 A 
ATOM     30  N   UNL     1      45.946   4.523   8.011  0.00  0.00    +0.000 NA
ENDBRANCH  24  25
ENDBRANCH  23  24
ENDBRANCH  20  23
ENDBRANCH  16  17
ENDBRANCH   3  16
TORSDOF 6
ENDMDL
MODEL 8
REMARK VINA RESULT:    -6.912      2.700      3.510
REMARK INTER + INTRA:         -10.131
REMARK INTER:                  -9.407
REMARK INTRA:                  -0.725
REMARK UNBOUND:                -0.795
REMARK  Name = 
REMARK  6 active torsions:
REMARK  status: ('A' for Active; 'I' for Inactive)
REMARK    1  A    between atoms: C_2  and  C_19
REMARK    2  A    between atoms: N_3  and  C_4
REMARK    3  A    between atoms: C_4  and  C_5
REMARK    4  A    between atoms: C_8  and  C_9
REMARK    5  A    between atoms: C_9  and  O_10
REMARK    6  A    between atoms: O_10  and  C_11
REMARK                            x       y       z     vdW  Elec       q    Type
REMARK                         _______ _______ _______ _____ _____    ______ ____
ROOT
ATOM      1  O   UNL     1      49.810   8.410  15.626  0.00  0.00    +0.000 OA
ATOM      2  C   UNL     1      49.312   7.321  15.892  0.00  0.00    +0.000 C 
ATOM      3  N   UNL     1      48.543   6.583  15.015  0.00  0.00    +0.000 N 
ATOM      4  H   UNL     1      48.381   5.609  15.242  0.00  0.00    +0.000 HD
ENDROOT
BRANCH   2   5
ATOM      5  C   UNL     1      49.645   6.553  17.081  0.00  0.00    +0.000 A 
ATOM      6  C   UNL     1      50.512   5.477  17.056  0.00  0.00    +0.000 A 
ATOM      7  S   UNL     1      50.197   4.396  18.354  0.00  0.00    +0.000 S 
ATOM      8  C   UNL     1      49.042   5.453  19.024  0.00  0.00    +0.000 A 
ATOM      9  N   UNL     1      48.243   5.107  20.069  0.00  0.00    +0.000 NA
ATOM     10  C   UNL     1      47.484   6.066  20.497  0.00  0.00    +0.000 A 
ATOM     11  N   UNL     1      47.492   7.352  20.015  0.00  0.00    +0.000 N 
ATOM     12  C   UNL     1      48.277   7.751  18.955  0.00  0.00    +0.000 A 
ATOM     13  O   UNL     1      48.324   8.911  18.582  0.00  0.00    +0.000 OA
ATOM     14  C   UNL     1      49.034   6.670  18.370  0.00  0.00    +0.000 A 
ATOM     15  H   UNL     1      46.952   8.078  20.463  0.00  0.00    +0.000 HD
ENDBRANCH   2   5
BRANCH   3  16
ATOM     16  C   UNL     1      48.482   6.906  13.616  0.00  0.00    +0.000 C 
BRANCH  16  17
ATOM     17  C   UNL     1      47.344   6.176  12.951  0.00  0.00    +0.000 A 
ATOM     18  C   UNL     1      46.694   6.745  11.848  0.00  0.00    +0.000 A 
ATOM     19  C   UNL     1      45.634   6.081  11.223  0.00  0.00    +0.000 A 
ATOM     20  C   UNL     1      45.183   4.847  11.703  0.00  0.00    +0.000 A 
ATOM     21  C   UNL     1      45.828   4.276  12.809  0.00  0.00    +0.000 A 
ATOM     22  C   UNL     1      46.893   4.940  13.432  0.00  0.00    +0.000 A 
BRANCH  20  23
ATOM     23  C   UNL     1      44.021   4.139  11.042  0.00  0.00    +0.000 C 
BRANCH  23  24
ATOM     24  O   UNL     1      43.995   4.465   9.657  0.00  0.00    +0.000 OA
BRANCH  24  25
ATOM     25  C   UNL     1      44.877   3.676   8.949  0.00  0.00    +0.000 A 
ATOM     26  N   UNL     1      45.604   4.319   8.025  0.00  0.00    +0.000 NA
ATOM     27  C   UNL     1      46.455   3.560   7.311  0.00  0.00    +0.000 A 
ATOM     28  C   UNL     1      46.609   2.206   7.497  0.00  0.00    +0.000 A 
ATOM     29  C   UNL     1      45.830   1.654   8.487  0.00  0.00    +0.000 A 
ATOM     30  N   UNL     1      44.955   2.361   9.226  0.00  0.00    +0.000 NA
ENDBRANCH  24  25
ENDBRANCH  23  24
ENDBRANCH  20  23
ENDBRANCH  16  17
ENDBRANCH   3  16
TORSDOF 6
ENDMDL
MODEL 9
REMARK VINA RESULT:    -6.906      2.684      3.594
REMARK INTER + INTRA:         -10.123
REMARK INTER:                  -9.139
REMARK INTRA:                  -0.984
REMARK UNBOUND:                -0.795
REMARK  Name = 
REMARK  6 active torsions:
REMARK  status: ('A' for Active; 'I' for Inactive)
REMARK    1  A    between atoms: C_2  and  C_19
REMARK    2  A    between atoms: N_3  and  C_4
REMARK    3  A    between atoms: C_4  and  C_5
REMARK    4  A    between atoms: C_8  and  C_9
REMARK    5  A    between atoms: C_9  and  O_10
REMARK    6  A    between atoms: O_10  and  C_11
REMARK                            x       y       z     vdW  Elec       q    Type
REMARK                         _______ _______ _______ _____ _____    ______ ____
ROOT
ATOM      1  O   UNL     1      49.390   9.729  15.020  0.00  0.00    +0.000 OA
ATOM      2  C   UNL     1      48.504   9.007  15.464  0.00  0.00    +0.000 C 
ATOM      3  N   UNL     1      47.556   8.372  14.687  0.00  0.00    +0.000 N 
ATOM      4  H   UNL     1      47.025   7.623  15.114  0.00  0.00    +0.000 HD
ENDROOT
BRANCH   2   5
ATOM      5  C   UNL     1      48.463   8.536  16.839  0.00  0.00    +0.000 A 
ATOM      6  C   UNL     1      47.927   9.285  17.869  0.00  0.00    +0.000 A 
ATOM      7  S   UNL     1      48.600   8.831  19.383  0.00  0.00    +0.000 S 
ATOM      8  C   UNL     1      49.455   7.539  18.676  0.00  0.00    +0.000 A 
ATOM      9  N   UNL     1      50.376   6.803  19.354  0.00  0.00    +0.000 NA
ATOM     10  C   UNL     1      50.864   5.810  18.680  0.00  0.00    +0.000 A 
ATOM     11  N   UNL     1      50.474   5.452  17.412  0.00  0.00    +0.000 N 
ATOM     12  C   UNL     1      49.550   6.167  16.680  0.00  0.00    +0.000 A 
ATOM     13  O   UNL     1      49.164   5.799  15.584  0.00  0.00    +0.000 OA
ATOM     14  C   UNL     1      49.090   7.357  17.356  0.00  0.00    +0.000 A 
ATOM     15  H   UNL     1      50.817   4.604  16.983  0.00  0.00    +0.000 HD
ENDBRANCH   2   5
BRANCH   3  16
ATOM     16  C   UNL     1      47.689   8.291  13.258  0.00  0.00    +0.000 C 
BRANCH  16  17
ATOM     17  C   UNL     1      46.847   7.171  12.707  0.00  0.00    +0.000 A 
ATOM     18  C   UNL     1      46.053   7.381  11.572  0.00  0.00    +0.000 A 
ATOM     19  C   UNL     1      45.262   6.351  11.053  0.00  0.00    +0.000 A 
ATOM     20  C   UNL     1      45.227   5.097  11.671  0.00  0.00    +0.000 A 
ATOM     21  C   UNL     1      46.017   4.883  12.809  0.00  0.00    +0.000 A 
ATOM     22  C   UNL     1      46.813   5.914  13.327  0.00  0.00    +0.000 A 
BRANCH  20  23
ATOM     23  C   UNL     1      44.354   3.990  11.123  0.00  0.00    +0.000 C 
BRANCH  23  24
ATOM     24  O   UNL     1      44.069   4.247   9.753  0.00  0.00    +0.000 OA
BRANCH  24  25
ATOM     25  C   UNL     1      44.964   3.592   8.932  0.00  0.00    +0.000 A 
ATOM     26  N   UNL     1      45.084   2.276   9.153  0.00  0.00    +0.000 NA
ATOM     27  C   UNL     1      45.968   1.626   8.374  0.00  0.00    +0.000 A 
ATOM     28  C   UNL     1      46.711   2.237   7.391  0.00  0.00    +0.000 A 
ATOM     29  C   UNL     1      46.490   3.585   7.236  0.00  0.00    +0.000 A 
ATOM     30  N   UNL     1      45.627   4.289   7.991  0.00  0.00    +0.000 NA
ENDBRANCH  24  25
ENDBRANCH  23  24
ENDBRANCH  20  23
ENDBRANCH  16  17
ENDBRANCH   3  16
TORSDOF 6
ENDMDL
