MODEL 1
REMARK VINA RESULT:    -7.056      0.000      0.000
REMARK INTER + INTRA:         -10.500
REMARK INTER:                  -9.944
REMARK INTRA:                  -0.556
REMARK UNBOUND:                -0.556
REMARK  Name = 
REMARK  8 active torsions:
REMARK  status: ('A' for Active; 'I' for Inactive)
REMARK    1  A    between atoms: N_1  and  C_2
REMARK    2  A    between atoms: C_2  and  C_3
REMARK    3  A    between atoms: C_7  and  C_8
REMARK    4  A    between atoms: C_8  and  O_9
REMARK    5  A    between atoms: O_9  and  C_10
REMARK    6  A    between atoms: C_14  and  C_15
REMARK    7  A    between atoms: C_16  and  C_17
REMARK    8  A    between atoms: C_17  and  O_19
REMARK                            x       y       z     vdW  Elec       q    Type
REMARK                         _______ _______ _______ _____ _____    ______ ____
ROOT
ATOM      1  O   UNL     1      44.072   3.997  10.236  0.00  0.00    +0.000 OA
ENDROOT
BRANCH   1   2
ATOM      2  C   UNL     1      44.933   4.559  11.141  0.00  0.00    +0.000 A 
ATOM      3  C   UNL     1      45.304   5.878  10.891  0.00  0.00    +0.000 A 
ATOM      4  C   UNL     1      46.233   6.512  11.716  0.00  0.00    +0.000 A 
ATOM      5  C   UNL     1      46.768   5.834  12.813  0.00  0.00    +0.000 A 
ATOM      6  C   UNL     1      46.346   4.535  13.120  0.00  0.00    +0.000 A 
ATOM      7  C   UNL     1      45.433   3.902  12.268  0.00  0.00    +0.000 A 
BRANCH   6   8
ATOM      8  C   UNL     1      46.834   3.785  14.286  0.00  0.00    +0.000 C 
ATOM      9  C   UNL     1      47.258   4.366  15.416  0.00  0.00    +0.000 C 
BRANCH   9  10
ATOM     10  C   UNL     1      47.647   3.523  16.563  0.00  0.00    +0.000 C 
ATOM     11  O   UNL     1      48.779   3.131  16.786  0.00  0.00    +0.000 OA
BRANCH  10  12
ATOM     12  O   UNL     1      46.591   3.223  17.345  0.00  0.00    +0.000 OA
ATOM     13  H   UNL     1      45.802   2.898  16.877  0.00  0.00    +0.000 HD
ENDBRANCH  10  12
ENDBRANCH   9  10
ENDBRANCH   6   8
ENDBRANCH   1   2
BRANCH   1  14
ATOM     14  C   UNL     1      44.385   4.279   8.865  0.00  0.00    +0.000 C 
BRANCH  14  19
ATOM     15  C   UNL     1      46.919   2.452   6.694  0.00  0.00    +0.000 A 
ATOM     16  C   UNL     1      46.863   1.196   7.304  0.00  0.00    +0.000 A 
ATOM     17  C   UNL     1      45.990   1.008   8.360  0.00  0.00    +0.000 A 
ATOM     18  N   UNL     1      45.179   1.973   8.844  0.00  0.00    +0.000 NA
ATOM     19  C   UNL     1      45.229   3.190   8.246  0.00  0.00    +0.000 A 
ATOM     20  C   UNL     1      46.091   3.464   7.185  0.00  0.00    +0.000 A 
BRANCH  15  21
ATOM     21  C   UNL     1      47.862   2.715   5.551  0.00  0.00    +0.000 C 
BRANCH  21  22
ATOM     22  N   UNL     1      47.953   1.562   4.664  0.00  0.00    +0.000 NA
ATOM     23  H   UNL     1      48.490   1.819   3.839  0.00  0.00    +0.000 HD
ATOM     24  H   UNL     1      47.017   1.327   4.336  0.00  0.00    +0.000 HD
ENDBRANCH  21  22
ENDBRANCH  15  21
ENDBRANCH  14  19
ENDBRANCH   1  14
TORSDOF 8
ENDMDL
MODEL 2
REMARK VINA RESULT:    -6.842      3.710      7.720
REMARK INTER + INTRA:         -10.198
REMARK INTER:                  -9.605
REMARK INTRA:                  -0.593
REMARK UNBOUND:                -0.556
REMARK  Name = 
REMARK  8 active torsions:
REMARK  status: ('A' for Active; 'I' for Inactive)
REMARK    1  A    between atoms: N_1  and  C_2
REMARK    2  A    between atoms: C_2  and  C_3
REMARK    3  A    between atoms: C_7  and  C_8
REMARK    4  A    between atoms: C_8  and  O_9
REMARK    5  A    between atoms: O_9  and  C_10
REMARK    6  A    between atoms: C_14  and  C_15
REMARK    7  A    between atoms: C_16  and  C_17
REMARK    8  A    between atoms: C_17  and  O_19
REMARK                            x       y       z     vdW  Elec       q    Type
REMARK                         _______ _______ _______ _____ _____    ______ ____
ROOT
ATOM      1  O   UNL     1      45.094   6.062  10.426  0.00  0.00    +0.000 OA
ENDROOT
BRANCH   1   2
ATOM      2  C   UNL     1      45.064   4.828   9.833  0.00  0.00    +0.000 A 
ATOM      3  C   UNL     1      44.284   3.865  10.469  0.00  0.00    +0.000 A 
ATOM      4  C   UNL     1      44.249   2.559   9.981  0.00  0.00    +0.000 A 
ATOM      5  C   UNL     1      44.971   2.224   8.834  0.00  0.00    +0.000 A 
ATOM      6  C   UNL     1      45.697   3.200   8.141  0.00  0.00    +0.000 A 
ATOM      7  C   UNL     1      45.745   4.500   8.658  0.00  0.00    +0.000 A 
BRANCH   6   8
ATOM      8  C   UNL     1      46.439   2.923   6.903  0.00  0.00    +0.000 C 
ATOM      9  C   UNL     1      46.986   1.734   6.617  0.00  0.00    +0.000 C 
BRANCH   9  10
ATOM     10  C   UNL     1      47.636   1.531   5.309  0.00  0.00    +0.000 C 
ATOM     11  O   UNL     1      47.553   0.515   4.640  0.00  0.00    +0.000 OA
BRANCH  10  12
ATOM     12  O   UNL     1      48.350   2.609   4.931  0.00  0.00    +0.000 OA
ATOM     13  H   UNL     1      47.977   3.120   4.191  0.00  0.00    +0.000 HD
ENDBRANCH  10  12
ENDBRANCH   9  10
ENDBRANCH   6   8
ENDBRANCH   1   2
BRANCH   1  14
ATOM     14  C   UNL     1      44.659   6.075  11.793  0.00  0.00    +0.000 C 
BRANCH  14  19
ATOM     15  C   UNL     1      47.206   5.361  14.527  0.00  0.00    +0.000 A 
ATOM     16  C   UNL     1      48.053   6.455  14.326  0.00  0.00    +0.000 A 
ATOM     17  C   UNL     1      47.734   7.371  13.340  0.00  0.00    +0.000 A 
ATOM     18  N   UNL     1      46.644   7.273  12.550  0.00  0.00    +0.000 NA
ATOM     19  C   UNL     1      45.819   6.215  12.751  0.00  0.00    +0.000 A 
ATOM     20  C   UNL     1      46.076   5.241  13.715  0.00  0.00    +0.000 A 
BRANCH  15  21
ATOM     21  C   UNL     1      47.514   4.328  15.576  0.00  0.00    +0.000 C 
BRANCH  21  22
ATOM     22  N   UNL     1      47.661   3.003  14.989  0.00  0.00    +0.000 NA
ATOM     23  H   UNL     1      47.919   3.100  14.009  0.00  0.00    +0.000 HD
ATOM     24  H   UNL     1      46.753   2.538  15.001  0.00  0.00    +0.000 HD
ENDBRANCH  21  22
ENDBRANCH  15  21
ENDBRANCH  14  19
ENDBRANCH   1  14
TORSDOF 8
ENDMDL
MODEL 3
REMARK VINA RESULT:    -6.570      3.721      7.155
REMARK INTER + INTRA:          -9.814
REMARK INTER:                  -9.198
REMARK INTRA:                  -0.617
REMARK UNBOUND:                -0.556
REMARK  Name = 
REMARK  8 active torsions:
REMARK  status: ('A' for Active; 'I' for Inactive)
REMARK    1  A    between atoms: N_1  and  C_2
REMARK    2  A    between atoms: C_2  and  C_3
REMARK    3  A    between atoms: C_7  and  C_8
REMARK    4  A    between atoms: C_8  and  O_9
REMARK    5  A    between atoms: O_9  and  C_10
REMARK    6  A    between atoms: C_14  and  C_15
REMARK    7  A    between atoms: C_16  and  C_17
REMARK    8  A    between atoms: C_17  and  O_19
REMARK                            x       y       z     vdW  Elec       q    Type
REMARK                         _______ _______ _______ _____ _____    ______ ____
ROOT
ATOM      1  O   UNL     1      44.212   5.926  10.603  0.00  0.00    +0.000 OA
ENDROOT
BRANCH   1   2
ATOM      2  C   UNL     1      44.412   4.681  10.071  0.00  0.00    +0.000 A 
ATOM      3  C   UNL     1      43.852   3.619  10.777  0.00  0.00    +0.000 A 
ATOM      4  C   UNL     1      44.064   2.307  10.352  0.00  0.00    +0.000 A 
ATOM      5  C   UNL     1      44.811   2.059   9.199  0.00  0.00    +0.000 A 
ATOM      6  C   UNL     1      45.314   3.121   8.438  0.00  0.00    +0.000 A 
ATOM      7  C   UNL     1      45.117   4.430   8.890  0.00  0.00    +0.000 A 
BRANCH   6   8
ATOM      8  C   UNL     1      46.067   2.930   7.190  0.00  0.00    +0.000 C 
ATOM      9  C   UNL     1      47.142   2.136   7.088  0.00  0.00    +0.000 C 
BRANCH   9  10
ATOM     10  C   UNL     1      47.777   1.942   5.771  0.00  0.00    +0.000 C 
ATOM     11  O   UNL     1      48.075   0.861   5.293  0.00  0.00    +0.000 OA
BRANCH  10  12
ATOM     12  O   UNL     1      48.003   3.114   5.145  0.00  0.00    +0.000 OA
ATOM     13  H   UNL     1      48.553   3.062   4.343  0.00  0.00    +0.000 HD
ENDBRANCH  10  12
ENDBRANCH   9  10
ENDBRANCH   6   8
ENDBRANCH   1   2
BRANCH   1  14
ATOM     14  C   UNL     1      44.331   5.988  12.032  0.00  0.00    +0.000 C 
BRANCH  14  19
ATOM     15  C   UNL     1      47.990   6.997  12.293  0.00  0.00    +0.000 A 
ATOM     16  C   UNL     1      48.327   6.296  13.454  0.00  0.00    +0.000 A 
ATOM     17  C   UNL     1      47.360   5.518  14.065  0.00  0.00    +0.000 A 
ATOM     18  N   UNL     1      46.097   5.392  13.605  0.00  0.00    +0.000 NA
ATOM     19  C   UNL     1      45.774   6.067  12.473  0.00  0.00    +0.000 A 
ATOM     20  C   UNL     1      46.686   6.883  11.805  0.00  0.00    +0.000 A 
BRANCH  15  21
ATOM     21  C   UNL     1      48.999   7.869  11.596  0.00  0.00    +0.000 C 
BRANCH  21  22
ATOM     22  N   UNL     1      50.356   7.382  11.808  0.00  0.00    +0.000 NA
ATOM     23  H   UNL     1      50.690   6.943  10.953  0.00  0.00    +0.000 HD
ATOM     24  H   UNL     1      50.334   6.649  12.517  0.00  0.00    +0.000 HD
ENDBRANCH  21  22
ENDBRANCH  15  21
ENDBRANCH  14  19
ENDBRANCH   1  14
TORSDOF 8
ENDMDL
MODEL 4
REMARK VINA RESULT:    -6.552      3.659      8.288
REMARK INTER + INTRA:          -9.789
REMARK INTER:                  -9.384
REMARK INTRA:                  -0.405
REMARK UNBOUND:                -0.556
REMARK  Name = 
REMARK  8 active torsions:
REMARK  status: ('A' for Active; 'I' for Inactive)
REMARK    1  A    between atoms: N_1  and  C_2
REMARK    2  A    between atoms: C_2  and  C_3
REMARK    3  A    between atoms: C_7  and  C_8
REMARK    4  A    between atoms: C_8  and  O_9
REMARK    5  A    between atoms: O_9  and  C_10
REMARK    6  A    between atoms: C_14  and  C_15
REMARK    7  A    between atoms: C_16  and  C_17
REMARK    8  A    between atoms: C_17  and  O_19
REMARK                            x       y       z     vdW  Elec       q    Type
REMARK                         _______ _______ _______ _____ _____    ______ ____
ROOT
ATOM      1  O   UNL     1      45.370   4.387  14.167  0.00  0.00    +0.000 OA
ENDROOT
BRANCH   1   2
ATOM      2  C   UNL     1      44.770   4.607  12.956  0.00  0.00    +0.000 A 
ATOM      3  C   UNL     1      43.419   4.943  12.996  0.00  0.00    +0.000 A 
ATOM      4  C   UNL     1      42.705   5.116  11.811  0.00  0.00    +0.000 A 
ATOM      5  C   UNL     1      43.353   4.982  10.581  0.00  0.00    +0.000 A 
ATOM      6  C   UNL     1      44.727   4.720  10.527  0.00  0.00    +0.000 A 
ATOM      7  C   UNL     1      45.425   4.523  11.724  0.00  0.00    +0.000 A 
BRANCH   6   8
ATOM      8  C   UNL     1      45.477   4.615   9.267  0.00  0.00    +0.000 C 
ATOM      9  C   UNL     1      45.454   3.530   8.480  0.00  0.00    +0.000 C 
BRANCH   9  10
ATOM     10  C   UNL     1      46.171   3.555   7.192  0.00  0.00    +0.000 C 
ATOM     11  O   UNL     1      45.996   2.763   6.282  0.00  0.00    +0.000 OA
BRANCH  10  12
ATOM     12  O   UNL     1      47.064   4.563   7.134  0.00  0.00    +0.000 OA
ATOM     13  H   UNL     1      47.867   4.443   7.672  0.00  0.00    +0.000 HD
ENDBRANCH  10  12
ENDBRANCH   9  10
ENDBRANCH   6   8
ENDBRANCH   1   2
BRANCH   1  14
ATOM     14  C   UNL     1      46.760   4.738  14.213  0.00  0.00    +0.000 C 
BRANCH  14  19
ATOM     15  C   UNL     1      48.090   4.196  17.736  0.00  0.00    +0.000 A 
ATOM     16  C   UNL     1      48.565   2.890  17.591  0.00  0.00    +0.000 A 
ATOM     17  C   UNL     1      48.453   2.275  16.358  0.00  0.00    +0.000 A 
ATOM     18  N   UNL     1      47.907   2.864  15.273  0.00  0.00    +0.000 NA
ATOM     19  C   UNL     1      47.453   4.135  15.413  0.00  0.00    +0.000 A 
ATOM     20  C   UNL     1      47.517   4.820  16.625  0.00  0.00    +0.000 A 
BRANCH  15  21
ATOM     21  C   UNL     1      48.174   4.907  19.060  0.00  0.00    +0.000 C 
BRANCH  21  22
ATOM     22  N   UNL     1      48.505   3.983  20.137  0.00  0.00    +0.000 NA
ATOM     23  H   UNL     1      47.704   3.382  20.318  0.00  0.00    +0.000 HD
ATOM     24  H   UNL     1      48.659   4.519  20.991  0.00  0.00    +0.000 HD
ENDBRANCH  21  22
ENDBRANCH  15  21
ENDBRANCH  14  19
ENDBRANCH   1  14
TORSDOF 8
ENDMDL
MODEL 5
REMARK VINA RESULT:    -6.507      2.647      4.271
REMARK INTER + INTRA:          -9.726
REMARK INTER:                  -9.051
REMARK INTRA:                  -0.675
REMARK UNBOUND:                -0.556
REMARK  Name = 
REMARK  8 active torsions:
REMARK  status: ('A' for Active; 'I' for Inactive)
REMARK    1  A    between atoms: N_1  and  C_2
REMARK    2  A    between atoms: C_2  and  C_3
REMARK    3  A    between atoms: C_7  and  C_8
REMARK    4  A    between atoms: C_8  and  O_9
REMARK    5  A    between atoms: O_9  and  C_10
REMARK    6  A    between atoms: C_14  and  C_15
REMARK    7  A    between atoms: C_16  and  C_17
REMARK    8  A    between atoms: C_17  and  O_19
REMARK                            x       y       z     vdW  Elec       q    Type
REMARK                         _______ _______ _______ _____ _____    ______ ____
ROOT
ATOM      1  O   UNL     1      44.203   3.539  11.245  0.00  0.00    +0.000 OA
ENDROOT
BRANCH   1   2
ATOM      2  C   UNL     1      45.018   4.337  12.003  0.00  0.00    +0.000 A 
ATOM      3  C   UNL     1      45.934   3.675  12.816  0.00  0.00    +0.000 A 
ATOM      4  C   UNL     1      46.757   4.401  13.677  0.00  0.00    +0.000 A 
ATOM      5  C   UNL     1      46.685   5.795  13.701  0.00  0.00    +0.000 A 
ATOM      6  C   UNL     1      45.823   6.476  12.833  0.00  0.00    +0.000 A 
ATOM      7  C   UNL     1      44.985   5.734  11.994  0.00  0.00    +0.000 A 
BRANCH   6   8
ATOM      8  C   UNL     1      45.734   7.942  12.775  0.00  0.00    +0.000 C 
ATOM      9  C   UNL     1      45.011   8.604  11.860  0.00  0.00    +0.000 C 
BRANCH   9  10
ATOM     10  C   UNL     1      44.915  10.074  11.939  0.00  0.00    +0.000 C 
ATOM     11  O   UNL     1      45.851  10.842  11.794  0.00  0.00    +0.000 OA
BRANCH  10  12
ATOM     12  O   UNL     1      43.657  10.482  12.200  0.00  0.00    +0.000 OA
ATOM     13  H   UNL     1      42.965   9.808  12.080  0.00  0.00    +0.000 HD
ENDBRANCH  10  12
ENDBRANCH   9  10
ENDBRANCH   6   8
ENDBRANCH   1   2
BRANCH   1  14
ATOM     14  C   UNL     1      43.987   4.010   9.908  0.00  0.00    +0.000 C 
BRANCH  14  19
ATOM     15  C   UNL     1      46.434   1.951   7.847  0.00  0.00    +0.000 A 
ATOM     16  C   UNL     1      47.057   2.989   7.148  0.00  0.00    +0.000 A 
ATOM     17  C   UNL     1      46.668   4.291   7.405  0.00  0.00    +0.000 A 
ATOM     18  N   UNL     1      45.715   4.626   8.300  0.00  0.00    +0.000 NA
ATOM     19  C   UNL     1      45.116   3.618   8.984  0.00  0.00    +0.000 A 
ATOM     20  C   UNL     1      45.441   2.279   8.773  0.00  0.00    +0.000 A 
BRANCH  15  21
ATOM     21  C   UNL     1      46.808   0.516   7.595  0.00  0.00    +0.000 C 
BRANCH  21  22
ATOM     22  N   UNL     1      47.171   0.299   6.201  0.00  0.00    +0.000 NA
ATOM     23  H   UNL     1      47.789  -0.507   6.138  0.00  0.00    +0.000 HD
ATOM     24  H   UNL     1      47.712   1.101   5.875  0.00  0.00    +0.000 HD
ENDBRANCH  21  22
ENDBRANCH  15  21
ENDBRANCH  14  19
ENDBRANCH   1  14
TORSDOF 8
ENDMDL
MODEL 6
REMARK VINA RESULT:    -6.241      4.000      7.837
REMARK INTER + INTRA:          -9.351
REMARK INTER:                  -8.725
REMARK INTRA:                  -0.626
REMARK UNBOUND:                -0.556
REMARK  Name = 
REMARK  8 active torsions:
REMARK  status: ('A' for Active; 'I' for Inactive)
REMARK    1  A    between atoms: N_1  and  C_2
REMARK    2  A    between atoms: C_2  and  C_3
REMARK    3  A    between atoms: C_7  and  C_8
REMARK    4  A    between atoms: C_8  and  O_9
REMARK    5  A    between atoms: O_9  and  C_10
REMARK    6  A    between atoms: C_14  and  C_15
REMARK    7  A    between atoms: C_16  and  C_17
REMARK    8  A    between atoms: C_17  and  O_19
REMARK                            x       y       z     vdW  Elec       q    Type
REMARK                         _______ _______ _______ _____ _____    ______ ____
ROOT
ATOM      1  O   UNL     1      45.897   6.883  12.883  0.00  0.00    +0.000 OA
ENDROOT
BRANCH   1   2
ATOM      2  C   UNL     1      45.091   5.971  12.255  0.00  0.00    +0.000 A 
ATOM      3  C   UNL     1      43.865   5.718  12.866  0.00  0.00    +0.000 A 
ATOM      4  C   UNL     1      43.007   4.753  12.340  0.00  0.00    +0.000 A 
ATOM      5  C   UNL     1      43.362   4.060  11.181  0.00  0.00    +0.000 A 
ATOM      6  C   UNL     1      44.557   4.359  10.514  0.00  0.00    +0.000 A 
ATOM      7  C   UNL     1      45.420   5.312  11.067  0.00  0.00    +0.000 A 
BRANCH   6   8
ATOM      8  C   UNL     1      44.967   3.702   9.265  0.00  0.00    +0.000 C 
ATOM      9  C   UNL     1      45.859   4.223   8.412  0.00  0.00    +0.000 C 
BRANCH   9  10
ATOM     10  C   UNL     1      46.270   3.445   7.228  0.00  0.00    +0.000 C 
ATOM     11  O   UNL     1      46.199   2.232   7.133  0.00  0.00    +0.000 OA
BRANCH  10  12
ATOM     12  O   UNL     1      46.749   4.237   6.248  0.00  0.00    +0.000 OA
ATOM     13  H   UNL     1      46.361   4.094   5.367  0.00  0.00    +0.000 HD
ENDBRANCH  10  12
ENDBRANCH   9  10
ENDBRANCH   6   8
ENDBRANCH   1   2
BRANCH   1  14
ATOM     14  C   UNL     1      47.282   6.515  12.932  0.00  0.00    +0.000 C 
BRANCH  14  19
ATOM     15  C   UNL     1      47.909   4.496  16.095  0.00  0.00    +0.000 A 
ATOM     16  C   UNL     1      48.687   5.422  16.794  0.00  0.00    +0.000 A 
ATOM     17  C   UNL     1      48.939   6.652  16.213  0.00  0.00    +0.000 A 
ATOM     18  N   UNL     1      48.473   7.018  15.000  0.00  0.00    +0.000 NA
ATOM     19  C   UNL     1      47.711   6.121  14.325  0.00  0.00    +0.000 A 
ATOM     20  C   UNL     1      47.423   4.855  14.835  0.00  0.00    +0.000 A 
BRANCH  15  21
ATOM     21  C   UNL     1      47.617   3.138  16.674  0.00  0.00    +0.000 C 
BRANCH  21  22
ATOM     22  N   UNL     1      46.578   3.209  17.693  0.00  0.00    +0.000 NA
ATOM     23  H   UNL     1      46.735   4.030  18.272  0.00  0.00    +0.000 HD
ATOM     24  H   UNL     1      46.670   2.401  18.310  0.00  0.00    +0.000 HD
ENDBRANCH  21  22
ENDBRANCH  15  21
ENDBRANCH  14  19
ENDBRANCH   1  14
TORSDOF 8
ENDMDL
MODEL 7
REMARK VINA RESULT:    -6.233      3.661      6.206
REMARK INTER + INTRA:          -9.340
REMARK INTER:                  -8.944
REMARK INTRA:                  -0.396
REMARK UNBOUND:                -0.556
REMARK  Name = 
REMARK  8 active torsions:
REMARK  status: ('A' for Active; 'I' for Inactive)
REMARK    1  A    between atoms: N_1  and  C_2
REMARK    2  A    between atoms: C_2  and  C_3
REMARK    3  A    between atoms: C_7  and  C_8
REMARK    4  A    between atoms: C_8  and  O_9
REMARK    5  A    between atoms: O_9  and  C_10
REMARK    6  A    between atoms: C_14  and  C_15
REMARK    7  A    between atoms: C_16  and  C_17
REMARK    8  A    between atoms: C_17  and  O_19
REMARK                            x       y       z     vdW  Elec       q    Type
REMARK                         _______ _______ _______ _____ _____    ______ ____
ROOT
ATOM      1  O   UNL     1      46.580   3.945  15.408  0.00  0.00    +0.000 OA
ENDROOT
BRANCH   1   2
ATOM      2  C   UNL     1      47.509   3.786  16.402  0.00  0.00    +0.000 A 
ATOM      3  C   UNL     1      47.373   4.628  17.503  0.00  0.00    +0.000 A 
ATOM      4  C   UNL     1      48.312   4.591  18.533  0.00  0.00    +0.000 A 
ATOM      5  C   UNL     1      49.374   3.685  18.476  0.00  0.00    +0.000 A 
ATOM      6  C   UNL     1      49.479   2.781  17.412  0.00  0.00    +0.000 A 
ATOM      7  C   UNL     1      48.544   2.848  16.373  0.00  0.00    +0.000 A 
BRANCH   6   8
ATOM      8  C   UNL     1      50.544   1.773  17.316  0.00  0.00    +0.000 C 
ATOM      9  C   UNL     1      51.816   2.002  17.673  0.00  0.00    +0.000 C 
BRANCH   9  10
ATOM     10  C   UNL     1      52.792   0.898  17.621  0.00  0.00    +0.000 C 
ATOM     11  O   UNL     1      53.865   0.943  17.043  0.00  0.00    +0.000 OA
BRANCH  10  12
ATOM     12  O   UNL     1      52.358  -0.189  18.288  0.00  0.00    +0.000 OA
ATOM     13  H   UNL     1      52.851  -1.011  18.117  0.00  0.00    +0.000 HD
ENDBRANCH  10  12
ENDBRANCH   9  10
ENDBRANCH   6   8
ENDBRANCH   1   2
BRANCH   1  14
ATOM     14  C   UNL     1      47.079   4.587  14.227  0.00  0.00    +0.000 C 
BRANCH  14  19
ATOM     15  C   UNL     1      44.408   3.984  11.585  0.00  0.00    +0.000 A 
ATOM     16  C   UNL     1      43.883   5.277  11.508  0.00  0.00    +0.000 A 
ATOM     17  C   UNL     1      44.442   6.270  12.292  0.00  0.00    +0.000 A 
ATOM     18  N   UNL     1      45.475   6.066  13.137  0.00  0.00    +0.000 NA
ATOM     19  C   UNL     1      45.989   4.812  13.205  0.00  0.00    +0.000 A 
ATOM     20  C   UNL     1      45.474   3.753  12.458  0.00  0.00    +0.000 A 
BRANCH  15  21
ATOM     21  C   UNL     1      43.829   2.864  10.765  0.00  0.00    +0.000 C 
BRANCH  21  22
ATOM     22  N   UNL     1      42.967   2.008  11.571  0.00  0.00    +0.000 NA
ATOM     23  H   UNL     1      43.483   1.690  12.388  0.00  0.00    +0.000 HD
ATOM     24  H   UNL     1      42.741   1.172  11.032  0.00  0.00    +0.000 HD
ENDBRANCH  21  22
ENDBRANCH  15  21
ENDBRANCH  14  19
ENDBRANCH   1  14
TORSDOF 8
ENDMDL
MODEL 8
REMARK VINA RESULT:    -6.175      4.716      8.024
REMARK INTER + INTRA:          -9.259
REMARK INTER:                  -8.659
REMARK INTRA:                  -0.600
REMARK UNBOUND:                -0.556
REMARK  Name = 
REMARK  8 active torsions:
REMARK  status: ('A' for Active; 'I' for Inactive)
REMARK    1  A    between atoms: N_1  and  C_2
REMARK    2  A    between atoms: C_2  and  C_3
REMARK    3  A    between atoms: C_7  and  C_8
REMARK    4  A    between atoms: C_8  and  O_9
REMARK    5  A    between atoms: O_9  and  C_10
REMARK    6  A    between atoms: C_14  and  C_15
REMARK    7  A    between atoms: C_16  and  C_17
REMARK    8  A    between atoms: C_17  and  O_19
REMARK                            x       y       z     vdW  Elec       q    Type
REMARK                         _______ _______ _______ _____ _____    ______ ____
ROOT
ATOM      1  O   UNL     1      48.814   6.589  13.983  0.00  0.00    +0.000 OA
ENDROOT
BRANCH   1   2
ATOM      2  C   UNL     1      47.611   6.777  13.355  0.00  0.00    +0.000 A 
ATOM      3  C   UNL     1      47.050   8.046  13.480  0.00  0.00    +0.000 A 
ATOM      4  C   UNL     1      45.794   8.311  12.936  0.00  0.00    +0.000 A 
ATOM      5  C   UNL     1      45.111   7.314  12.237  0.00  0.00    +0.000 A 
ATOM      6  C   UNL     1      45.697   6.058  12.039  0.00  0.00    +0.000 A 
ATOM      7  C   UNL     1      46.946   5.797  12.613  0.00  0.00    +0.000 A 
BRANCH   6   8
ATOM      8  C   UNL     1      45.052   4.981  11.274  0.00  0.00    +0.000 C 
ATOM      9  C   UNL     1      44.512   3.892  11.839  0.00  0.00    +0.000 C 
BRANCH   9  10
ATOM     10  C   UNL     1      43.810   2.910  10.992  0.00  0.00    +0.000 C 
ATOM     11  O   UNL     1      43.973   2.784   9.790  0.00  0.00    +0.000 OA
BRANCH  10  12
ATOM     12  O   UNL     1      42.947   2.158  11.704  0.00  0.00    +0.000 OA
ATOM     13  H   UNL     1      42.338   1.609  11.179  0.00  0.00    +0.000 HD
ENDBRANCH  10  12
ENDBRANCH   9  10
ENDBRANCH   6   8
ENDBRANCH   1   2
BRANCH   1  14
ATOM     14  C   UNL     1      48.848   7.035  15.345  0.00  0.00    +0.000 C 
BRANCH  14  19
ATOM     15  C   UNL     1      48.846   3.881  17.473  0.00  0.00    +0.000 A 
ATOM     16  C   UNL     1      50.191   3.872  17.851  0.00  0.00    +0.000 A 
ATOM     17  C   UNL     1      51.010   4.900  17.419  0.00  0.00    +0.000 A 
ATOM     18  N   UNL     1      50.585   5.923  16.647  0.00  0.00    +0.000 NA
ATOM     19  C   UNL     1      49.277   5.935  16.287  0.00  0.00    +0.000 A 
ATOM     20  C   UNL     1      48.390   4.929  16.669  0.00  0.00    +0.000 A 
BRANCH  15  21
ATOM     21  C   UNL     1      47.915   2.780  17.903  0.00  0.00    +0.000 C 
BRANCH  21  22
ATOM     22  N   UNL     1      46.531   3.096  17.573  0.00  0.00    +0.000 NA
ATOM     23  H   UNL     1      45.916   2.462  18.078  0.00  0.00    +0.000 HD
ATOM     24  H   UNL     1      46.382   2.911  16.581  0.00  0.00    +0.000 HD
ENDBRANCH  21  22
ENDBRANCH  15  21
ENDBRANCH  14  19
ENDBRANCH   1  14
TORSDOF 8
ENDMDL
MODEL 9
REMARK VINA RESULT:    -6.024      3.110      4.099
REMARK INTER + INTRA:          -9.045
REMARK INTER:                  -8.350
REMARK INTRA:                  -0.696
REMARK UNBOUND:                -0.556
REMARK  Name = 
REMARK  8 active torsions:
REMARK  status: ('A' for Active; 'I' for Inactive)
REMARK    1  A    between atoms: N_1  and  C_2
REMARK    2  A    between atoms: C_2  and  C_3
REMARK    3  A    between atoms: C_7  and  C_8
REMARK    4  A    between atoms: C_8  and  O_9
REMARK    5  A    between atoms: O_9  and  C_10
REMARK    6  A    between atoms: C_14  and  C_15
REMARK    7  A    between atoms: C_16  and  C_17
REMARK    8  A    between atoms: C_17  and  O_19
REMARK                            x       y       z     vdW  Elec       q    Type
REMARK                         _______ _______ _______ _____ _____    ______ ____
ROOT
ATOM      1  O   UNL     1      43.856   5.074  11.921  0.00  0.00    +0.000 OA
ENDROOT
BRANCH   1   2
ATOM      2  C   UNL     1      45.130   5.317  12.361  0.00  0.00    +0.000 A 
ATOM      3  C   UNL     1      45.612   4.453  13.341  0.00  0.00    +0.000 A 
ATOM      4  C   UNL     1      46.871   4.664  13.903  0.00  0.00    +0.000 A 
ATOM      5  C   UNL     1      47.664   5.725  13.460  0.00  0.00    +0.000 A 
ATOM      6  C   UNL     1      47.223   6.555  12.422  0.00  0.00    +0.000 A 
ATOM      7  C   UNL     1      45.947   6.347  11.886  0.00  0.00    +0.000 A 
BRANCH   6   8
ATOM      8  C   UNL     1      48.027   7.658  11.877  0.00  0.00    +0.000 C 
ATOM      9  C   UNL     1      49.351   7.769  12.056  0.00  0.00    +0.000 C 
BRANCH   9  10
ATOM     10  C   UNL     1      50.082   8.867  11.396  0.00  0.00    +0.000 C 
ATOM     11  O   UNL     1      49.663  10.004  11.269  0.00  0.00    +0.000 OA
BRANCH  10  12
ATOM     12  O   UNL     1      51.281   8.463  10.933  0.00  0.00    +0.000 OA
ATOM     13  H   UNL     1      51.261   7.708  10.319  0.00  0.00    +0.000 HD
ENDBRANCH  10  12
ENDBRANCH   9  10
ENDBRANCH   6   8
ENDBRANCH   1   2
BRANCH   1  14
ATOM     14  C   UNL     1      43.671   5.257  10.511  0.00  0.00    +0.000 C 
BRANCH  14  19
ATOM     15  C   UNL     1      45.820   3.312   8.047  0.00  0.00    +0.000 A 
ATOM     16  C   UNL     1      45.479   2.015   8.438  0.00  0.00    +0.000 A 
ATOM     17  C   UNL     1      44.555   1.847   9.454  0.00  0.00    +0.000 A 
ATOM     18  N   UNL     1      43.955   2.870  10.098  0.00  0.00    +0.000 NA
ATOM     19  C   UNL     1      44.281   4.130   9.712  0.00  0.00    +0.000 A 
ATOM     20  C   UNL     1      45.213   4.384   8.706  0.00  0.00    +0.000 A 
BRANCH  15  21
ATOM     21  C   UNL     1      46.830   3.551   6.958  0.00  0.00    +0.000 C 
BRANCH  21  22
ATOM     22  N   UNL     1      47.841   2.502   6.933  0.00  0.00    +0.000 NA
ATOM     23  H   UNL     1      48.656   2.813   7.455  0.00  0.00    +0.000 HD
ATOM     24  H   UNL     1      48.151   2.369   5.970  0.00  0.00    +0.000 HD
ENDBRANCH  21  22
ENDBRANCH  15  21
ENDBRANCH  14  19
ENDBRANCH   1  14
TORSDOF 8
ENDMDL
