MODEL 1
REMARK VINA RESULT:    -8.057      0.000      0.000
REMARK INTER + INTRA:         -11.721
REMARK INTER:                 -10.884
REMARK INTRA:                  -0.838
REMARK UNBOUND:                -0.838
REMARK  Name = 
REMARK  9 active torsions:
REMARK  status: ('A' for Active; 'I' for Inactive)
REMARK    1  A    between atoms: C_1  and  C_2
REMARK    2  A    between atoms: N_4  and  C_5
REMARK    3  A    between atoms: C_9  and  C_10
REMARK    4  A    between atoms: C_10  and  C_11
REMARK    5  A    between atoms: C_10  and  C_12
REMARK    6  A    between atoms: C_12  and  O_13
REMARK    7  A    between atoms: O_13  and  C_14
REMARK    8  A    between atoms: C_17  and  C_18
REMARK    9  A    between atoms: C_25  and  C_26
REMARK                            x       y       z     vdW  Elec       q    Type
REMARK                         _______ _______ _______ _____ _____    ______ ____
ROOT
ATOM      1  C   UNL     1      47.523   5.327  15.221  0.00  0.00    +0.000 A 
ATOM      2  C   UNL     1      48.360   6.326  14.708  0.00  0.00    +0.000 A 
ATOM      3  C   UNL     1      48.256   6.761  13.384  0.00  0.00    +0.000 A 
ATOM      4  C   UNL     1      47.313   6.194  12.532  0.00  0.00    +0.000 A 
ATOM      5  C   UNL     1      46.473   5.173  12.989  0.00  0.00    +0.000 A 
ATOM      6  C   UNL     1      46.582   4.777  14.335  0.00  0.00    +0.000 A 
ENDROOT
BRANCH   1  10
ATOM      7  C   UNL     1      49.275   2.128  16.648  0.00  0.00    +0.000 C 
ATOM      8  C   UNL     1      48.336   2.788  17.660  0.00  0.00    +0.000 C 
ATOM      9  C   UNL     1      47.187   3.569  16.970  0.00  0.00    +0.000 C 
ATOM     10  N   UNL     1      47.628   4.898  16.529  0.00  0.00    +0.000 N 
ATOM     11  C   UNL     1      48.264   5.716  17.569  0.00  0.00    +0.000 C 
ATOM     12  C   UNL     1      49.425   4.938  18.248  0.00  0.00    +0.000 C 
ATOM     13  C   UNL     1      50.697   4.965  17.396  0.00  0.00    +0.000 C 
ATOM     14  N   UNL     1      49.074   3.564  18.690  0.00  0.00    +0.000 NA
ATOM     15  H   UNL     1      48.436   3.671  19.480  0.00  0.00    +0.000 HD
ENDBRANCH   1  10
BRANCH   5  16
ATOM     16  C   UNL     1      45.461   4.466  12.093  0.00  0.00    +0.000 C 
ATOM     17  C   UNL     1      44.336   3.845  12.926  0.00  0.00    +0.000 C 
BRANCH  16  18
ATOM     18  C   UNL     1      44.916   5.385  10.986  0.00  0.00    +0.000 C 
BRANCH  18  19
ATOM     19  O   UNL     1      44.173   4.643  10.005  0.00  0.00    +0.000 OA
BRANCH  19  20
ATOM     20  C   UNL     1      45.016   3.946   9.160  0.00  0.00    +0.000 A 
ATOM     21  C   UNL     1      45.029   2.556   9.224  0.00  0.00    +0.000 A 
ATOM     22  N   UNL     1      45.819   1.785   8.429  0.00  0.00    +0.000 NA
ATOM     23  C   UNL     1      46.605   2.487   7.560  0.00  0.00    +0.000 A 
ATOM     24  C   UNL     1      46.595   3.872   7.498  0.00  0.00    +0.000 A 
ATOM     25  N   UNL     1      45.803   4.627   8.293  0.00  0.00    +0.000 NA
BRANCH  23  26
ATOM     26  C   UNL     1      47.502   1.733   6.645  0.00  0.00    +0.000 C 
ATOM     27  N   UNL     1      48.584   2.416   6.168  0.00  0.00    +0.000 N 
ATOM     28  O   UNL     1      47.290   0.568   6.336  0.00  0.00    +0.000 OA
ATOM     29  H   UNL     1      48.746   3.380   6.438  0.00  0.00    +0.000 HD
ATOM     30  H   UNL     1      49.227   1.946   5.545  0.00  0.00    +0.000 HD
ENDBRANCH  23  26
ENDBRANCH  19  20
ENDBRANCH  18  19
ENDBRANCH  16  18
ENDBRANCH   5  16
TORSDOF 6
ENDMDL
MODEL 2
REMARK VINA RESULT:    -7.497      2.479      4.123
REMARK INTER + INTRA:         -10.964
REMARK INTER:                  -9.921
REMARK INTRA:                  -1.043
REMARK UNBOUND:                -0.838
REMARK  Name = 
REMARK  9 active torsions:
REMARK  status: ('A' for Active; 'I' for Inactive)
REMARK    1  A    between atoms: C_1  and  C_2
REMARK    2  A    between atoms: N_4  and  C_5
REMARK    3  A    between atoms: C_9  and  C_10
REMARK    4  A    between atoms: C_10  and  C_11
REMARK    5  A    between atoms: C_10  and  C_12
REMARK    6  A    between atoms: C_12  and  O_13
REMARK    7  A    between atoms: O_13  and  C_14
REMARK    8  A    between atoms: C_17  and  C_18
REMARK    9  A    between atoms: C_25  and  C_26
REMARK                            x       y       z     vdW  Elec       q    Type
REMARK                         _______ _______ _______ _____ _____    ______ ____
ROOT
ATOM      1  C   UNL     1      47.779   6.436  13.188  0.00  0.00    +0.000 A 
ATOM      2  C   UNL     1      47.959   5.531  14.242  0.00  0.00    +0.000 A 
ATOM      3  C   UNL     1      46.967   4.615  14.600  0.00  0.00    +0.000 A 
ATOM      4  C   UNL     1      45.755   4.589  13.914  0.00  0.00    +0.000 A 
ATOM      5  C   UNL     1      45.516   5.492  12.872  0.00  0.00    +0.000 A 
ATOM      6  C   UNL     1      46.546   6.383  12.516  0.00  0.00    +0.000 A 
ENDROOT
BRANCH   1  10
ATOM      7  C   UNL     1      47.415  10.150  12.001  0.00  0.00    +0.000 C 
ATOM      8  C   UNL     1      48.806   9.576  11.725  0.00  0.00    +0.000 C 
ATOM      9  C   UNL     1      48.778   8.035  11.544  0.00  0.00    +0.000 C 
ATOM     10  N   UNL     1      48.760   7.341  12.837  0.00  0.00    +0.000 N 
ATOM     11  C   UNL     1      49.824   7.737  13.768  0.00  0.00    +0.000 C 
ATOM     12  C   UNL     1      49.840   9.279  13.961  0.00  0.00    +0.000 C 
ATOM     13  C   UNL     1      48.757   9.737  14.944  0.00  0.00    +0.000 C 
ATOM     14  N   UNL     1      49.819  10.062  12.698  0.00  0.00    +0.000 NA
ATOM     15  H   UNL     1      50.730   9.921  12.259  0.00  0.00    +0.000 HD
ENDBRANCH   1  10
BRANCH   5  16
ATOM     16  C   UNL     1      44.191   5.559  12.120  0.00  0.00    +0.000 C 
ATOM     17  C   UNL     1      44.119   6.822  11.257  0.00  0.00    +0.000 C 
BRANCH  16  18
ATOM     18  C   UNL     1      43.916   4.286  11.301  0.00  0.00    +0.000 C 
BRANCH  18  19
ATOM     19  O   UNL     1      43.767   4.584   9.903  0.00  0.00    +0.000 OA
BRANCH  19  20
ATOM     20  C   UNL     1      44.700   3.904   9.143  0.00  0.00    +0.000 A 
ATOM     21  C   UNL     1      44.812   2.526   9.295  0.00  0.00    +0.000 A 
ATOM     22  N   UNL     1      45.696   1.772   8.588  0.00  0.00    +0.000 NA
ATOM     23  C   UNL     1      46.471   2.478   7.713  0.00  0.00    +0.000 A 
ATOM     24  C   UNL     1      46.362   3.852   7.563  0.00  0.00    +0.000 A 
ATOM     25  N   UNL     1      45.477   4.591   8.272  0.00  0.00    +0.000 NA
BRANCH  23  26
ATOM     26  C   UNL     1      47.466   1.742   6.889  0.00  0.00    +0.000 C 
ATOM     27  N   UNL     1      48.543   2.464   6.463  0.00  0.00    +0.000 N 
ATOM     28  O   UNL     1      47.334   0.558   6.608  0.00  0.00    +0.000 OA
ATOM     29  H   UNL     1      48.638   3.444   6.708  0.00  0.00    +0.000 HD
ATOM     30  H   UNL     1      49.251   2.008   5.903  0.00  0.00    +0.000 HD
ENDBRANCH  23  26
ENDBRANCH  19  20
ENDBRANCH  18  19
ENDBRANCH  16  18
ENDBRANCH   5  16
TORSDOF 6
ENDMDL
MODEL 3
REMARK VINA RESULT:    -7.396      2.338      3.279
REMARK INTER + INTRA:         -10.828
REMARK INTER:                  -9.950
REMARK INTRA:                  -0.879
REMARK UNBOUND:                -0.838
REMARK  Name = 
REMARK  9 active torsions:
REMARK  status: ('A' for Active; 'I' for Inactive)
REMARK    1  A    between atoms: C_1  and  C_2
REMARK    2  A    between atoms: N_4  and  C_5
REMARK    3  A    between atoms: C_9  and  C_10
REMARK    4  A    between atoms: C_10  and  C_11
REMARK    5  A    between atoms: C_10  and  C_12
REMARK    6  A    between atoms: C_12  and  O_13
REMARK    7  A    between atoms: O_13  and  C_14
REMARK    8  A    between atoms: C_17  and  C_18
REMARK    9  A    between atoms: C_25  and  C_26
REMARK                            x       y       z     vdW  Elec       q    Type
REMARK                         _______ _______ _______ _____ _____    ______ ____
ROOT
ATOM      1  C   UNL     1      47.423   7.252  13.292  0.00  0.00    +0.000 A 
ATOM      2  C   UNL     1      46.881   8.487  12.912  0.00  0.00    +0.000 A 
ATOM      3  C   UNL     1      45.663   8.576  12.234  0.00  0.00    +0.000 A 
ATOM      4  C   UNL     1      44.958   7.422  11.904  0.00  0.00    +0.000 A 
ATOM      5  C   UNL     1      45.471   6.164  12.235  0.00  0.00    +0.000 A 
ATOM      6  C   UNL     1      46.685   6.107  12.945  0.00  0.00    +0.000 A 
ENDROOT
BRANCH   1  10
ATOM      7  C   UNL     1      49.986  10.083  14.159  0.00  0.00    +0.000 C 
ATOM      8  C   UNL     1      50.578   8.681  14.321  0.00  0.00    +0.000 C 
ATOM      9  C   UNL     1      49.892   7.646  13.392  0.00  0.00    +0.000 C 
ATOM     10  N   UNL     1      48.627   7.166  13.961  0.00  0.00    +0.000 N 
ATOM     11  C   UNL     1      48.721   6.654  15.334  0.00  0.00    +0.000 C 
ATOM     12  C   UNL     1      49.393   7.699  16.266  0.00  0.00    +0.000 C 
ATOM     13  C   UNL     1      48.406   8.787  16.700  0.00  0.00    +0.000 C 
ATOM     14  N   UNL     1      50.663   8.267  15.745  0.00  0.00    +0.000 NA
ATOM     15  H   UNL     1      51.351   7.514  15.785  0.00  0.00    +0.000 HD
ENDBRANCH   1  10
BRANCH   5  16
ATOM     16  C   UNL     1      44.781   4.859  11.851  0.00  0.00    +0.000 C 
ATOM     17  C   UNL     1      43.862   4.377  12.977  0.00  0.00    +0.000 C 
BRANCH  16  18
ATOM     18  C   UNL     1      44.039   4.962  10.507  0.00  0.00    +0.000 C 
BRANCH  18  19
ATOM     19  O   UNL     1      43.759   3.662   9.961  0.00  0.00    +0.000 OA
BRANCH  19  20
ATOM     20  C   UNL     1      44.759   3.255   9.099  0.00  0.00    +0.000 A 
ATOM     21  C   UNL     1      45.150   1.919   9.110  0.00  0.00    +0.000 A 
ATOM     22  N   UNL     1      46.119   1.424   8.295  0.00  0.00    +0.000 NA
ATOM     23  C   UNL     1      46.685   2.346   7.462  0.00  0.00    +0.000 A 
ATOM     24  C   UNL     1      46.299   3.678   7.453  0.00  0.00    +0.000 A 
ATOM     25  N   UNL     1      45.331   4.158   8.268  0.00  0.00    +0.000 NA
BRANCH  23  26
ATOM     26  C   UNL     1      47.754   1.901   6.529  0.00  0.00    +0.000 C 
ATOM     27  N   UNL     1      48.780   2.779   6.330  0.00  0.00    +0.000 N 
ATOM     28  O   UNL     1      47.721   0.813   5.970  0.00  0.00    +0.000 OA
ATOM     29  H   UNL     1      48.793   3.675   6.804  0.00  0.00    +0.000 HD
ATOM     30  H   UNL     1      49.535   2.521   5.707  0.00  0.00    +0.000 HD
ENDBRANCH  23  26
ENDBRANCH  19  20
ENDBRANCH  18  19
ENDBRANCH  16  18
ENDBRANCH   5  16
TORSDOF 6
ENDMDL
MODEL 4
REMARK VINA RESULT:    -7.392      3.547      7.741
REMARK INTER + INTRA:         -10.822
REMARK INTER:                  -9.511
REMARK INTRA:                  -1.311
REMARK UNBOUND:                -0.838
REMARK  Name = 
REMARK  9 active torsions:
REMARK  status: ('A' for Active; 'I' for Inactive)
REMARK    1  A    between atoms: C_1  and  C_2
REMARK    2  A    between atoms: N_4  and  C_5
REMARK    3  A    between atoms: C_9  and  C_10
REMARK    4  A    between atoms: C_10  and  C_11
REMARK    5  A    between atoms: C_10  and  C_12
REMARK    6  A    between atoms: C_12  and  O_13
REMARK    7  A    between atoms: O_13  and  C_14
REMARK    8  A    between atoms: C_17  and  C_18
REMARK    9  A    between atoms: C_25  and  C_26
REMARK                            x       y       z     vdW  Elec       q    Type
REMARK                         _______ _______ _______ _____ _____    ______ ____
ROOT
ATOM      1  C   UNL     1      45.400   6.930  11.329  0.00  0.00    +0.000 A 
ATOM      2  C   UNL     1      44.773   8.083  11.818  0.00  0.00    +0.000 A 
ATOM      3  C   UNL     1      45.507   9.180  12.277  0.00  0.00    +0.000 A 
ATOM      4  C   UNL     1      46.898   9.145  12.269  0.00  0.00    +0.000 A 
ATOM      5  C   UNL     1      47.572   8.005  11.817  0.00  0.00    +0.000 A 
ATOM      6  C   UNL     1      46.805   6.928  11.334  0.00  0.00    +0.000 A 
ENDROOT
BRANCH   1  10
ATOM      7  C   UNL     1      45.617   3.173  12.413  0.00  0.00    +0.000 C 
ATOM      8  C   UNL     1      44.843   3.367  11.107  0.00  0.00    +0.000 C 
ATOM      9  C   UNL     1      45.300   4.634  10.339  0.00  0.00    +0.000 C 
ATOM     10  N   UNL     1      44.673   5.847  10.878  0.00  0.00    +0.000 N 
ATOM     11  C   UNL     1      43.209   5.796  10.976  0.00  0.00    +0.000 C 
ATOM     12  C   UNL     1      42.754   4.535  11.760  0.00  0.00    +0.000 C 
ATOM     13  C   UNL     1      42.885   4.732  13.273  0.00  0.00    +0.000 C 
ATOM     14  N   UNL     1      43.373   3.264  11.303  0.00  0.00    +0.000 NA
ATOM     15  H   UNL     1      42.975   3.065  10.384  0.00  0.00    +0.000 HD
ENDBRANCH   1  10
BRANCH   5  16
ATOM     16  C   UNL     1      49.092   7.876  11.838  0.00  0.00    +0.000 C 
ATOM     17  C   UNL     1      49.756   9.250  11.714  0.00  0.00    +0.000 C 
BRANCH  16  18
ATOM     18  C   UNL     1      49.598   7.103  13.069  0.00  0.00    +0.000 C 
BRANCH  18  19
ATOM     19  O   UNL     1      49.010   7.602  14.281  0.00  0.00    +0.000 OA
BRANCH  19  20
ATOM     20  C   UNL     1      48.615   6.569  15.109  0.00  0.00    +0.000 A 
ATOM     21  C   UNL     1      49.137   6.506  16.398  0.00  0.00    +0.000 A 
ATOM     22  N   UNL     1      48.803   5.532  17.286  0.00  0.00    +0.000 NA
ATOM     23  C   UNL     1      47.912   4.613  16.811  0.00  0.00    +0.000 A 
ATOM     24  C   UNL     1      47.393   4.672  15.526  0.00  0.00    +0.000 A 
ATOM     25  N   UNL     1      47.732   5.649  14.652  0.00  0.00    +0.000 NA
BRANCH  23  26
ATOM     26  C   UNL     1      47.481   3.509  17.709  0.00  0.00    +0.000 C 
ATOM     27  N   UNL     1      48.174   3.381  18.878  0.00  0.00    +0.000 N 
ATOM     28  O   UNL     1      46.558   2.757  17.423  0.00  0.00    +0.000 OA
ATOM     29  H   UNL     1      48.934   4.015  19.100  0.00  0.00    +0.000 HD
ATOM     30  H   UNL     1      47.916   2.647  19.525  0.00  0.00    +0.000 HD
ENDBRANCH  23  26
ENDBRANCH  19  20
ENDBRANCH  18  19
ENDBRANCH  16  18
ENDBRANCH   5  16
TORSDOF 6
ENDMDL
MODEL 5
REMARK VINA RESULT:    -7.224      3.743      5.393
REMARK INTER + INTRA:         -10.596
REMARK INTER:                  -9.269
REMARK INTRA:                  -1.327
REMARK UNBOUND:                -0.838
REMARK  Name = 
REMARK  9 active torsions:
REMARK  status: ('A' for Active; 'I' for Inactive)
REMARK    1  A    between atoms: C_1  and  C_2
REMARK    2  A    between atoms: N_4  and  C_5
REMARK    3  A    between atoms: C_9  and  C_10
REMARK    4  A    between atoms: C_10  and  C_11
REMARK    5  A    between atoms: C_10  and  C_12
REMARK    6  A    between atoms: C_12  and  O_13
REMARK    7  A    between atoms: O_13  and  C_14
REMARK    8  A    between atoms: C_17  and  C_18
REMARK    9  A    between atoms: C_25  and  C_26
REMARK                            x       y       z     vdW  Elec       q    Type
REMARK                         _______ _______ _______ _____ _____    ______ ____
ROOT
ATOM      1  C   UNL     1      50.711   5.707  17.095  0.00  0.00    +0.000 A 
ATOM      2  C   UNL     1      52.057   6.003  16.847  0.00  0.00    +0.000 A 
ATOM      3  C   UNL     1      52.435   6.996  15.940  0.00  0.00    +0.000 A 
ATOM      4  C   UNL     1      51.467   7.715  15.245  0.00  0.00    +0.000 A 
ATOM      5  C   UNL     1      50.109   7.437  15.436  0.00  0.00    +0.000 A 
ATOM      6  C   UNL     1      49.759   6.451  16.378  0.00  0.00    +0.000 A 
ENDROOT
BRANCH   1  10
ATOM      7  C   UNL     1      47.861   5.747  19.781  0.00  0.00    +0.000 C 
ATOM      8  C   UNL     1      48.861   4.609  19.999  0.00  0.00    +0.000 C 
ATOM      9  C   UNL     1      50.267   4.951  19.439  0.00  0.00    +0.000 C 
ATOM     10  N   UNL     1      50.340   4.724  17.990  0.00  0.00    +0.000 N 
ATOM     11  C   UNL     1      49.913   3.390  17.551  0.00  0.00    +0.000 C 
ATOM     12  C   UNL     1      48.498   3.056  18.099  0.00  0.00    +0.000 C 
ATOM     13  C   UNL     1      47.398   3.723  17.267  0.00  0.00    +0.000 C 
ATOM     14  N   UNL     1      48.325   3.296  19.555  0.00  0.00    +0.000 NA
ATOM     15  H   UNL     1      48.881   2.584  20.031  0.00  0.00    +0.000 HD
ENDBRANCH   1  10
BRANCH   5  16
ATOM     16  C   UNL     1      49.000   8.144  14.663  0.00  0.00    +0.000 C 
ATOM     17  C   UNL     1      49.036   9.653  14.917  0.00  0.00    +0.000 C 
BRANCH  16  18
ATOM     18  C   UNL     1      49.031   7.814  13.160  0.00  0.00    +0.000 C 
BRANCH  18  19
ATOM     19  O   UNL     1      48.989   6.396  12.933  0.00  0.00    +0.000 OA
BRANCH  19  20
ATOM     20  C   UNL     1      47.693   5.918  12.986  0.00  0.00    +0.000 A 
ATOM     21  C   UNL     1      46.734   6.489  12.155  0.00  0.00    +0.000 A 
ATOM     22  N   UNL     1      45.436   6.082  12.131  0.00  0.00    +0.000 NA
ATOM     23  C   UNL     1      45.146   5.065  12.995  0.00  0.00    +0.000 A 
ATOM     24  C   UNL     1      46.100   4.497  13.826  0.00  0.00    +0.000 A 
ATOM     25  N   UNL     1      47.389   4.910  13.838  0.00  0.00    +0.000 NA
BRANCH  23  26
ATOM     26  C   UNL     1      43.753   4.546  13.042  0.00  0.00    +0.000 C 
ATOM     27  N   UNL     1      42.766   5.484  13.119  0.00  0.00    +0.000 N 
ATOM     28  O   UNL     1      43.502   3.348  13.010  0.00  0.00    +0.000 OA
ATOM     29  H   UNL     1      42.993   6.472  13.141  0.00  0.00    +0.000 HD
ATOM     30  H   UNL     1      41.801   5.182  13.149  0.00  0.00    +0.000 HD
ENDBRANCH  23  26
ENDBRANCH  19  20
ENDBRANCH  18  19
ENDBRANCH  16  18
ENDBRANCH   5  16
TORSDOF 6
ENDMDL
MODEL 6
REMARK VINA RESULT:    -7.128      4.374      6.814
REMARK INTER + INTRA:         -10.465
REMARK INTER:                  -9.552
REMARK INTRA:                  -0.914
REMARK UNBOUND:                -0.838
REMARK  Name = 
REMARK  9 active torsions:
REMARK  status: ('A' for Active; 'I' for Inactive)
REMARK    1  A    between atoms: C_1  and  C_2
REMARK    2  A    between atoms: N_4  and  C_5
REMARK    3  A    between atoms: C_9  and  C_10
REMARK    4  A    between atoms: C_10  and  C_11
REMARK    5  A    between atoms: C_10  and  C_12
REMARK    6  A    between atoms: C_12  and  O_13
REMARK    7  A    between atoms: O_13  and  C_14
REMARK    8  A    between atoms: C_17  and  C_18
REMARK    9  A    between atoms: C_25  and  C_26
REMARK                            x       y       z     vdW  Elec       q    Type
REMARK                         _______ _______ _______ _____ _____    ______ ____
ROOT
ATOM      1  C   UNL     1      45.241   9.607  11.529  0.00  0.00    +0.000 A 
ATOM      2  C   UNL     1      46.586   9.542  11.915  0.00  0.00    +0.000 A 
ATOM      3  C   UNL     1      47.190   8.334  12.270  0.00  0.00    +0.000 A 
ATOM      4  C   UNL     1      46.454   7.152  12.259  0.00  0.00    +0.000 A 
ATOM      5  C   UNL     1      45.101   7.168  11.908  0.00  0.00    +0.000 A 
ATOM      6  C   UNL     1      44.528   8.396  11.527  0.00  0.00    +0.000 A 
ENDROOT
BRANCH   1  10
ATOM      7  C   UNL     1      43.822  10.751   8.062  0.00  0.00    +0.000 C 
ATOM      8  C   UNL     1      44.005  11.915   9.039  0.00  0.00    +0.000 C 
ATOM      9  C   UNL     1      45.127  11.640  10.074  0.00  0.00    +0.000 C 
ATOM     10  N   UNL     1      44.645  10.802  11.180  0.00  0.00    +0.000 N 
ATOM     11  C   UNL     1      43.431  11.291  11.844  0.00  0.00    +0.000 C 
ATOM     12  C   UNL     1      42.304  11.550  10.807  0.00  0.00    +0.000 C 
ATOM     13  C   UNL     1      41.602  10.252  10.398  0.00  0.00    +0.000 C 
ATOM     14  N   UNL     1      42.717  12.360   9.632  0.00  0.00    +0.000 NA
ATOM     15  H   UNL     1      42.873  13.308   9.977  0.00  0.00    +0.000 HD
ENDBRANCH   1  10
BRANCH   5  16
ATOM     16  C   UNL     1      44.221   5.922  11.933  0.00  0.00    +0.000 C 
ATOM     17  C   UNL     1      42.855   6.206  11.303  0.00  0.00    +0.000 C 
BRANCH  16  18
ATOM     18  C   UNL     1      44.910   4.705  11.289  0.00  0.00    +0.000 C 
BRANCH  18  19
ATOM     19  O   UNL     1      44.169   4.222  10.157  0.00  0.00    +0.000 OA
BRANCH  19  20
ATOM     20  C   UNL     1      45.010   3.694   9.196  0.00  0.00    +0.000 A 
ATOM     21  C   UNL     1      45.251   2.323   9.197  0.00  0.00    +0.000 A 
ATOM     22  N   UNL     1      46.057   1.712   8.288  0.00  0.00    +0.000 NA
ATOM     23  C   UNL     1      46.617   2.554   7.371  0.00  0.00    +0.000 A 
ATOM     24  C   UNL     1      46.381   3.920   7.370  0.00  0.00    +0.000 A 
ATOM     25  N   UNL     1      45.574   4.516   8.279  0.00  0.00    +0.000 NA
BRANCH  23  26
ATOM     26  C   UNL     1      47.513   1.980   6.331  0.00  0.00    +0.000 C 
ATOM     27  N   UNL     1      48.761   2.525   6.248  0.00  0.00    +0.000 N 
ATOM     28  O   UNL     1      47.157   1.071   5.593  0.00  0.00    +0.000 OA
ATOM     29  H   UNL     1      49.040   3.275   6.870  0.00  0.00    +0.000 HD
ATOM     30  H   UNL     1      49.410   2.166   5.559  0.00  0.00    +0.000 HD
ENDBRANCH  23  26
ENDBRANCH  19  20
ENDBRANCH  18  19
ENDBRANCH  16  18
ENDBRANCH   5  16
TORSDOF 6
ENDMDL
MODEL 7
REMARK VINA RESULT:    -6.910      2.831      4.534
REMARK INTER + INTRA:         -10.171
REMARK INTER:                  -9.229
REMARK INTRA:                  -0.941
REMARK UNBOUND:                -0.838
REMARK  Name = 
REMARK  9 active torsions:
REMARK  status: ('A' for Active; 'I' for Inactive)
REMARK    1  A    between atoms: C_1  and  C_2
REMARK    2  A    between atoms: N_4  and  C_5
REMARK    3  A    between atoms: C_9  and  C_10
REMARK    4  A    between atoms: C_10  and  C_11
REMARK    5  A    between atoms: C_10  and  C_12
REMARK    6  A    between atoms: C_12  and  O_13
REMARK    7  A    between atoms: O_13  and  C_14
REMARK    8  A    between atoms: C_17  and  C_18
REMARK    9  A    between atoms: C_25  and  C_26
REMARK                            x       y       z     vdW  Elec       q    Type
REMARK                         _______ _______ _______ _____ _____    ______ ____
ROOT
ATOM      1  C   UNL     1      50.620   5.799  17.195  0.00  0.00    +0.000 A 
ATOM      2  C   UNL     1      51.877   6.417  17.209  0.00  0.00    +0.000 A 
ATOM      3  C   UNL     1      52.226   7.390  16.270  0.00  0.00    +0.000 A 
ATOM      4  C   UNL     1      51.324   7.763  15.277  0.00  0.00    +0.000 A 
ATOM      5  C   UNL     1      50.067   7.154  15.203  0.00  0.00    +0.000 A 
ATOM      6  C   UNL     1      49.732   6.198  16.182  0.00  0.00    +0.000 A 
ENDROOT
BRANCH   1  10
ATOM      7  C   UNL     1      47.835   5.890  19.947  0.00  0.00    +0.000 C 
ATOM      8  C   UNL     1      48.848   4.764  20.169  0.00  0.00    +0.000 C 
ATOM      9  C   UNL     1      50.237   5.100  19.568  0.00  0.00    +0.000 C 
ATOM     10  N   UNL     1      50.277   4.837  18.124  0.00  0.00    +0.000 N 
ATOM     11  C   UNL     1      49.849   3.489  17.728  0.00  0.00    +0.000 C 
ATOM     12  C   UNL     1      48.450   3.161  18.318  0.00  0.00    +0.000 C 
ATOM     13  C   UNL     1      47.326   3.800  17.497  0.00  0.00    +0.000 C 
ATOM     14  N   UNL     1      48.310   3.437  19.772  0.00  0.00    +0.000 NA
ATOM     15  H   UNL     1      48.882   2.741  20.252  0.00  0.00    +0.000 HD
ENDBRANCH   1  10
BRANCH   5  16
ATOM     16  C   UNL     1      49.054   7.470  14.107  0.00  0.00    +0.000 C 
ATOM     17  C   UNL     1      49.744   7.579  12.744  0.00  0.00    +0.000 C 
BRANCH  16  18
ATOM     18  C   UNL     1      47.886   6.468  14.080  0.00  0.00    +0.000 C 
BRANCH  18  19
ATOM     19  O   UNL     1      46.785   6.967  13.304  0.00  0.00    +0.000 OA
BRANCH  19  20
ATOM     20  C   UNL     1      46.076   5.935  12.720  0.00  0.00    +0.000 A 
ATOM     21  C   UNL     1      45.770   4.814  13.485  0.00  0.00    +0.000 A 
ATOM     22  N   UNL     1      45.071   3.752  12.999  0.00  0.00    +0.000 NA
ATOM     23  C   UNL     1      44.694   3.873  11.693  0.00  0.00    +0.000 A 
ATOM     24  C   UNL     1      45.000   4.988  10.928  0.00  0.00    +0.000 A 
ATOM     25  N   UNL     1      45.695   6.039  11.424  0.00  0.00    +0.000 NA
BRANCH  23  26
ATOM     26  C   UNL     1      43.921   2.766  11.070  0.00  0.00    +0.000 C 
ATOM     27  N   UNL     1      44.416   2.275   9.896  0.00  0.00    +0.000 N 
ATOM     28  O   UNL     1      42.902   2.315  11.577  0.00  0.00    +0.000 OA
ATOM     29  H   UNL     1      45.264   2.658   9.493  0.00  0.00    +0.000 HD
ATOM     30  H   UNL     1      43.929   1.517   9.435  0.00  0.00    +0.000 HD
ENDBRANCH  23  26
ENDBRANCH  19  20
ENDBRANCH  18  19
ENDBRANCH  16  18
ENDBRANCH   5  16
TORSDOF 6
ENDMDL
MODEL 8
REMARK VINA RESULT:    -6.627      2.745      4.394
REMARK INTER + INTRA:          -9.789
REMARK INTER:                  -8.754
REMARK INTRA:                  -1.036
REMARK UNBOUND:                -0.838
REMARK  Name = 
REMARK  9 active torsions:
REMARK  status: ('A' for Active; 'I' for Inactive)
REMARK    1  A    between atoms: C_1  and  C_2
REMARK    2  A    between atoms: N_4  and  C_5
REMARK    3  A    between atoms: C_9  and  C_10
REMARK    4  A    between atoms: C_10  and  C_11
REMARK    5  A    between atoms: C_10  and  C_12
REMARK    6  A    between atoms: C_12  and  O_13
REMARK    7  A    between atoms: O_13  and  C_14
REMARK    8  A    between atoms: C_17  and  C_18
REMARK    9  A    between atoms: C_25  and  C_26
REMARK                            x       y       z     vdW  Elec       q    Type
REMARK                         _______ _______ _______ _____ _____    ______ ____
ROOT
ATOM      1  C   UNL     1      50.210   6.342  16.668  0.00  0.00    +0.000 A 
ATOM      2  C   UNL     1      51.592   6.561  16.745  0.00  0.00    +0.000 A 
ATOM      3  C   UNL     1      52.276   7.284  15.764  0.00  0.00    +0.000 A 
ATOM      4  C   UNL     1      51.591   7.799  14.667  0.00  0.00    +0.000 A 
ATOM      5  C   UNL     1      50.216   7.583  14.530  0.00  0.00    +0.000 A 
ATOM      6  C   UNL     1      49.550   6.877  15.549  0.00  0.00    +0.000 A 
ENDROOT
BRANCH   1  10
ATOM      7  C   UNL     1      47.166   3.909  16.285  0.00  0.00    +0.000 C 
ATOM      8  C   UNL     1      47.403   4.334  17.737  0.00  0.00    +0.000 C 
ATOM      9  C   UNL     1      48.085   5.724  17.835  0.00  0.00    +0.000 C 
ATOM     10  N   UNL     1      49.536   5.627  17.637  0.00  0.00    +0.000 N 
ATOM     11  C   UNL     1      50.215   4.651  18.498  0.00  0.00    +0.000 C 
ATOM     12  C   UNL     1      49.541   3.256  18.386  0.00  0.00    +0.000 C 
ATOM     13  C   UNL     1      49.990   2.511  17.125  0.00  0.00    +0.000 C 
ATOM     14  N   UNL     1      48.062   3.268  18.535  0.00  0.00    +0.000 NA
ATOM     15  H   UNL     1      47.875   3.486  19.514  0.00  0.00    +0.000 HD
ENDBRANCH   1  10
BRANCH   5  16
ATOM     16  C   UNL     1      49.417   8.066  13.324  0.00  0.00    +0.000 C 
ATOM     17  C   UNL     1      50.338   8.701  12.278  0.00  0.00    +0.000 C 
BRANCH  16  18
ATOM     18  C   UNL     1      48.541   6.955  12.718  0.00  0.00    +0.000 C 
BRANCH  18  19
ATOM     19  O   UNL     1      47.143   7.223  12.913  0.00  0.00    +0.000 OA
BRANCH  19  20
ATOM     20  C   UNL     1      46.363   6.179  12.455  0.00  0.00    +0.000 A 
ATOM     21  C   UNL     1      46.091   6.093  11.092  0.00  0.00    +0.000 A 
ATOM     22  N   UNL     1      45.340   5.099  10.547  0.00  0.00    +0.000 NA
ATOM     23  C   UNL     1      44.867   4.188  11.448  0.00  0.00    +0.000 A 
ATOM     24  C   UNL     1      45.134   4.274  12.806  0.00  0.00    +0.000 A 
ATOM     25  N   UNL     1      45.885   5.268  13.335  0.00  0.00    +0.000 NA
BRANCH  23  26
ATOM     26  C   UNL     1      44.037   3.059  10.949  0.00  0.00    +0.000 C 
ATOM     27  N   UNL     1      44.598   2.288   9.973  0.00  0.00    +0.000 N 
ATOM     28  O   UNL     1      42.917   2.830  11.387  0.00  0.00    +0.000 OA
ATOM     29  H   UNL     1      45.528   2.491   9.625  0.00  0.00    +0.000 HD
ATOM     30  H   UNL     1      44.075   1.504   9.603  0.00  0.00    +0.000 HD
ENDBRANCH  23  26
ENDBRANCH  19  20
ENDBRANCH  18  19
ENDBRANCH  16  18
ENDBRANCH   5  16
TORSDOF 6
ENDMDL
MODEL 9
REMARK VINA RESULT:    -6.530      3.331      5.024
REMARK INTER + INTRA:          -9.658
REMARK INTER:                  -8.584
REMARK INTRA:                  -1.074
REMARK UNBOUND:                -0.838
REMARK  Name = 
REMARK  9 active torsions:
REMARK  status: ('A' for Active; 'I' for Inactive)
REMARK    1  A    between atoms: C_1  and  C_2
REMARK    2  A    between atoms: N_4  and  C_5
REMARK    3  A    between atoms: C_9  and  C_10
REMARK    4  A    between atoms: C_10  and  C_11
REMARK    5  A    between atoms: C_10  and  C_12
REMARK    6  A    between atoms: C_12  and  O_13
REMARK    7  A    between atoms: O_13  and  C_14
REMARK    8  A    between atoms: C_17  and  C_18
REMARK    9  A    between atoms: C_25  and  C_26
REMARK                            x       y       z     vdW  Elec       q    Type
REMARK                         _______ _______ _______ _____ _____    ______ ____
ROOT
ATOM      1  C   UNL     1      48.095   7.141  18.184  0.00  0.00    +0.000 A 
ATOM      2  C   UNL     1      47.934   8.353  18.866  0.00  0.00    +0.000 A 
ATOM      3  C   UNL     1      48.226   9.579  18.264  0.00  0.00    +0.000 A 
ATOM      4  C   UNL     1      48.704   9.621  16.957  0.00  0.00    +0.000 A 
ATOM      5  C   UNL     1      48.910   8.437  16.243  0.00  0.00    +0.000 A 
ATOM      6  C   UNL     1      48.578   7.219  16.867  0.00  0.00    +0.000 A 
ENDROOT
BRANCH   1  10
ATOM      7  C   UNL     1      49.857   3.672  17.736  0.00  0.00    +0.000 C 
ATOM      8  C   UNL     1      48.493   3.557  18.422  0.00  0.00    +0.000 C 
ATOM      9  C   UNL     1      47.535   4.707  18.016  0.00  0.00    +0.000 C 
ATOM     10  N   UNL     1      47.807   5.930  18.782  0.00  0.00    +0.000 N 
ATOM     11  C   UNL     1      47.825   5.757  20.239  0.00  0.00    +0.000 C 
ATOM     12  C   UNL     1      48.798   4.616  20.645  0.00  0.00    +0.000 C 
ATOM     13  C   UNL     1      50.255   5.088  20.646  0.00  0.00    +0.000 C 
ATOM     14  N   UNL     1      48.618   3.350  19.889  0.00  0.00    +0.000 NA
ATOM     15  H   UNL     1      47.729   2.955  20.198  0.00  0.00    +0.000 HD
ENDBRANCH   1  10
BRANCH   5  16
ATOM     16  C   UNL     1      49.487   8.407  14.831  0.00  0.00    +0.000 C 
ATOM     17  C   UNL     1      50.831   7.673  14.808  0.00  0.00    +0.000 C 
BRANCH  16  18
ATOM     18  C   UNL     1      48.498   7.828  13.805  0.00  0.00    +0.000 C 
BRANCH  18  19
ATOM     19  O   UNL     1      48.757   6.437  13.554  0.00  0.00    +0.000 OA
BRANCH  19  20
ATOM     20  C   UNL     1      47.604   5.771  13.184  0.00  0.00    +0.000 A 
ATOM     21  C   UNL     1      46.738   6.381  12.280  0.00  0.00    +0.000 A 
ATOM     22  N   UNL     1      45.585   5.801  11.852  0.00  0.00    +0.000 NA
ATOM     23  C   UNL     1      45.339   4.568  12.384  0.00  0.00    +0.000 A 
ATOM     24  C   UNL     1      46.199   3.960  13.287  0.00  0.00    +0.000 A 
ATOM     25  N   UNL     1      47.345   4.547  13.703  0.00  0.00    +0.000 NA
BRANCH  23  26
ATOM     26  C   UNL     1      44.103   3.849  11.975  0.00  0.00    +0.000 C 
ATOM     27  N   UNL     1      43.940   2.596  12.490  0.00  0.00    +0.000 N 
ATOM     28  O   UNL     1      43.276   4.349  11.223  0.00  0.00    +0.000 OA
ATOM     29  H   UNL     1      44.633   2.200  13.115  0.00  0.00    +0.000 HD
ATOM     30  H   UNL     1      43.112   2.067  12.246  0.00  0.00    +0.000 HD
ENDBRANCH  23  26
ENDBRANCH  19  20
ENDBRANCH  18  19
ENDBRANCH  16  18
ENDBRANCH   5  16
TORSDOF 6
ENDMDL
