MODEL 1
REMARK VINA RESULT:    -8.016      0.000      0.000
REMARK INTER + INTRA:         -11.820
REMARK INTER:                 -10.827
REMARK INTRA:                  -0.993
REMARK UNBOUND:                -0.993
REMARK  Name = 
REMARK  7 active torsions:
REMARK  status: ('A' for Active; 'I' for Inactive)
REMARK    1  A    between atoms: C_1  and  C_2
REMARK    2  A    between atoms: C_7  and  C_8
REMARK    3  A    between atoms: C_8  and  O_9
REMARK    4  A    between atoms: O_9  and  C_10
REMARK    5  A    between atoms: C_13  and  C_14
REMARK    6  A    between atoms: C_14  and  N_15
REMARK    7  A    between atoms: C_16  and  C_18
REMARK                            x       y       z     vdW  Elec       q    Type
REMARK                         _______ _______ _______ _____ _____    ______ ____
ROOT
ATOM      1  C   UNL     1      44.176   4.319  12.642  0.00  0.00    +0.000 C 
ENDROOT
BRANCH   1   5
ATOM      2  C   UNL     1      45.264   3.890   8.489  0.00  0.00    +0.000 A 
ATOM      3  C   UNL     1      45.564   5.072   9.165  0.00  0.00    +0.000 A 
ATOM      4  C   UNL     1      45.214   5.224  10.511  0.00  0.00    +0.000 A 
ATOM      5  C   UNL     1      44.554   4.190  11.191  0.00  0.00    +0.000 A 
ATOM      6  C   UNL     1      44.180   3.045  10.479  0.00  0.00    +0.000 A 
ATOM      7  C   UNL     1      44.526   2.898   9.136  0.00  0.00    +0.000 A 
BRANCH   2   8
ATOM      8  O   UNL     1      45.727   3.793   7.201  0.00  0.00    +0.000 OA
BRANCH   8   9
ATOM      9  C   UNL     1      47.028   3.206   7.092  0.00  0.00    +0.000 C 
BRANCH   9  16
ATOM     10  C   UNL     1      46.923   0.278   7.815  0.00  0.00    +0.000 C 
ATOM     11  C   UNL     1      46.985   0.742   6.385  0.00  0.00    +0.000 A 
ATOM     12  C   UNL     1      46.955  -0.216   5.357  0.00  0.00    +0.000 A 
ATOM     13  C   UNL     1      46.976   0.169   4.018  0.00  0.00    +0.000 A 
ATOM     14  C   UNL     1      47.030   1.516   3.683  0.00  0.00    +0.000 A 
ATOM     15  C   UNL     1      47.070   2.480   4.689  0.00  0.00    +0.000 A 
ATOM     16  C   UNL     1      47.055   2.112   6.047  0.00  0.00    +0.000 A 
ENDBRANCH   9  16
ENDBRANCH   8   9
ENDBRANCH   2   8
ENDBRANCH   1   5
BRANCH   1  17
ATOM     17  N   UNL     1      45.211   5.012  13.358  0.00  0.00    +0.000 N 
ATOM     18  C   UNL     1      46.336   4.378  13.812  0.00  0.00    +0.000 C 
ATOM     19  O   UNL     1      46.545   3.186  13.607  0.00  0.00    +0.000 OA
ATOM     20  H   UNL     1      44.954   5.908  13.759  0.00  0.00    +0.000 HD
BRANCH  18  21
ATOM     21  C   UNL     1      47.316   5.234  14.490  0.00  0.00    +0.000 A 
ATOM     22  C   UNL     1      47.919   6.277  13.800  0.00  0.00    +0.000 A 
ATOM     23  S   UNL     1      48.938   7.238  14.774  0.00  0.00    +0.000 S 
ATOM     24  C   UNL     1      48.652   6.259  16.137  0.00  0.00    +0.000 A 
ATOM     25  N   UNL     1      49.233   6.539  17.334  0.00  0.00    +0.000 NA
ATOM     26  C   UNL     1      48.946   5.699  18.275  0.00  0.00    +0.000 A 
ATOM     27  N   UNL     1      48.139   4.604  18.124  0.00  0.00    +0.000 N 
ATOM     28  C   UNL     1      47.527   4.283  16.934  0.00  0.00    +0.000 A 
ATOM     29  O   UNL     1      46.811   3.295  16.835  0.00  0.00    +0.000 OA
ATOM     30  C   UNL     1      47.797   5.210  15.852  0.00  0.00    +0.000 A 
ATOM     31  H   UNL     1      47.960   3.979  18.897  0.00  0.00    +0.000 HD
ENDBRANCH  18  21
ENDBRANCH   1  17
TORSDOF 6
ENDMDL
MODEL 2
REMARK VINA RESULT:    -7.951      2.032      2.762
REMARK INTER + INTRA:         -11.732
REMARK INTER:                 -11.006
REMARK INTRA:                  -0.727
REMARK UNBOUND:                -0.993
REMARK  Name = 
REMARK  7 active torsions:
REMARK  status: ('A' for Active; 'I' for Inactive)
REMARK    1  A    between atoms: C_1  and  C_2
REMARK    2  A    between atoms: C_7  and  C_8
REMARK    3  A    between atoms: C_8  and  O_9
REMARK    4  A    between atoms: O_9  and  C_10
REMARK    5  A    between atoms: C_13  and  C_14
REMARK    6  A    between atoms: C_14  and  N_15
REMARK    7  A    between atoms: C_16  and  C_18
REMARK                            x       y       z     vdW  Elec       q    Type
REMARK                         _______ _______ _______ _____ _____    ______ ____
ROOT
ATOM      1  C   UNL     1      46.673   6.541  13.158  0.00  0.00    +0.000 C 
ENDROOT
BRANCH   1   5
ATOM      2  C   UNL     1      44.990   3.926  10.167  0.00  0.00    +0.000 A 
ATOM      3  C   UNL     1      45.443   5.193   9.804  0.00  0.00    +0.000 A 
ATOM      4  C   UNL     1      45.988   6.051  10.765  0.00  0.00    +0.000 A 
ATOM      5  C   UNL     1      46.080   5.646  12.104  0.00  0.00    +0.000 A 
ATOM      6  C   UNL     1      45.542   4.407  12.472  0.00  0.00    +0.000 A 
ATOM      7  C   UNL     1      44.995   3.556  11.514  0.00  0.00    +0.000 A 
BRANCH   2   8
ATOM      8  O   UNL     1      44.558   3.118   9.146  0.00  0.00    +0.000 OA
BRANCH   8   9
ATOM      9  C   UNL     1      45.377   1.965   8.928  0.00  0.00    +0.000 C 
BRANCH   9  16
ATOM     10  C   UNL     1      46.842  -0.373   7.705  0.00  0.00    +0.000 C 
ATOM     11  C   UNL     1      46.849   0.991   7.070  0.00  0.00    +0.000 A 
ATOM     12  C   UNL     1      47.527   1.170   5.852  0.00  0.00    +0.000 A 
ATOM     13  C   UNL     1      47.532   2.406   5.208  0.00  0.00    +0.000 A 
ATOM     14  C   UNL     1      46.862   3.485   5.773  0.00  0.00    +0.000 A 
ATOM     15  C   UNL     1      46.193   3.329   6.985  0.00  0.00    +0.000 A 
ATOM     16  C   UNL     1      46.181   2.090   7.653  0.00  0.00    +0.000 A 
ENDBRANCH   9  16
ENDBRANCH   8   9
ENDBRANCH   2   8
ENDBRANCH   1   5
BRANCH   1  17
ATOM     17  N   UNL     1      46.848   5.808  14.382  0.00  0.00    +0.000 N 
ATOM     18  C   UNL     1      48.034   5.795  15.063  0.00  0.00    +0.000 C 
ATOM     19  O   UNL     1      49.013   6.435  14.689  0.00  0.00    +0.000 OA
ATOM     20  H   UNL     1      46.163   5.083  14.570  0.00  0.00    +0.000 HD
BRANCH  18  21
ATOM     21  C   UNL     1      48.038   5.031  16.316  0.00  0.00    +0.000 A 
ATOM     22  C   UNL     1      47.679   3.690  16.310  0.00  0.00    +0.000 A 
ATOM     23  S   UNL     1      47.855   2.932  17.829  0.00  0.00    +0.000 S 
ATOM     24  C   UNL     1      48.362   4.385  18.558  0.00  0.00    +0.000 A 
ATOM     25  N   UNL     1      48.685   4.431  19.878  0.00  0.00    +0.000 NA
ATOM     26  C   UNL     1      49.030   5.602  20.302  0.00  0.00    +0.000 A 
ATOM     27  N   UNL     1      49.074   6.730  19.528  0.00  0.00    +0.000 N 
ATOM     28  C   UNL     1      48.760   6.732  18.189  0.00  0.00    +0.000 A 
ATOM     29  O   UNL     1      48.810   7.761  17.527  0.00  0.00    +0.000 OA
ATOM     30  C   UNL     1      48.390   5.434  17.658  0.00  0.00    +0.000 A 
ATOM     31  H   UNL     1      49.344   7.621  19.922  0.00  0.00    +0.000 HD
ENDBRANCH  18  21
ENDBRANCH   1  17
TORSDOF 6
ENDMDL
MODEL 3
REMARK VINA RESULT:    -7.476      4.242      8.942
REMARK INTER + INTRA:         -11.091
REMARK INTER:                  -9.825
REMARK INTRA:                  -1.266
REMARK UNBOUND:                -0.993
REMARK  Name = 
REMARK  7 active torsions:
REMARK  status: ('A' for Active; 'I' for Inactive)
REMARK    1  A    between atoms: C_1  and  C_2
REMARK    2  A    between atoms: C_7  and  C_8
REMARK    3  A    between atoms: C_8  and  O_9
REMARK    4  A    between atoms: O_9  and  C_10
REMARK    5  A    between atoms: C_13  and  C_14
REMARK    6  A    between atoms: C_14  and  N_15
REMARK    7  A    between atoms: C_16  and  C_18
REMARK                            x       y       z     vdW  Elec       q    Type
REMARK                         _______ _______ _______ _____ _____    ______ ____
ROOT
ATOM      1  C   UNL     1      48.564   7.751  12.248  0.00  0.00    +0.000 C 
ENDROOT
BRANCH   1   5
ATOM      2  C   UNL     1      49.701   6.589  16.245  0.00  0.00    +0.000 A 
ATOM      3  C   UNL     1      50.586   7.326  15.460  0.00  0.00    +0.000 A 
ATOM      4  C   UNL     1      50.230   7.706  14.161  0.00  0.00    +0.000 A 
ATOM      5  C   UNL     1      48.981   7.346  13.636  0.00  0.00    +0.000 A 
ATOM      6  C   UNL     1      48.137   6.532  14.400  0.00  0.00    +0.000 A 
ATOM      7  C   UNL     1      48.496   6.150  15.692  0.00  0.00    +0.000 A 
BRANCH   2   8
ATOM      8  O   UNL     1      50.094   6.341  17.535  0.00  0.00    +0.000 OA
BRANCH   8   9
ATOM      9  C   UNL     1      49.441   5.218  18.138  0.00  0.00    +0.000 C 
BRANCH   9  16
ATOM     10  C   UNL     1      48.186   2.761  16.918  0.00  0.00    +0.000 C 
ATOM     11  C   UNL     1      49.635   2.797  17.320  0.00  0.00    +0.000 A 
ATOM     12  C   UNL     1      50.434   1.665  17.086  0.00  0.00    +0.000 A 
ATOM     13  C   UNL     1      51.789   1.664  17.411  0.00  0.00    +0.000 A 
ATOM     14  C   UNL     1      52.368   2.793  17.978  0.00  0.00    +0.000 A 
ATOM     15  C   UNL     1      51.589   3.921  18.227  0.00  0.00    +0.000 A 
ATOM     16  C   UNL     1      50.218   3.940  17.911  0.00  0.00    +0.000 A 
ENDBRANCH   9  16
ENDBRANCH   8   9
ENDBRANCH   2   8
ENDBRANCH   1   5
BRANCH   1  17
ATOM     17  N   UNL     1      47.740   6.729  11.665  0.00  0.00    +0.000 N 
ATOM     18  C   UNL     1      46.392   6.886  11.493  0.00  0.00    +0.000 C 
ATOM     19  O   UNL     1      45.809   7.923  11.796  0.00  0.00    +0.000 OA
ATOM     20  H   UNL     1      48.133   5.793  11.648  0.00  0.00    +0.000 HD
BRANCH  18  21
ATOM     21  C   UNL     1      45.700   5.766  10.847  0.00  0.00    +0.000 A 
ATOM     22  C   UNL     1      45.837   5.562   9.481  0.00  0.00    +0.000 A 
ATOM     23  S   UNL     1      45.062   4.148   8.922  0.00  0.00    +0.000 S 
ATOM     24  C   UNL     1      44.469   3.791  10.478  0.00  0.00    +0.000 A 
ATOM     25  N   UNL     1      43.714   2.683  10.702  0.00  0.00    +0.000 NA
ATOM     26  C   UNL     1      43.313   2.549  11.924  0.00  0.00    +0.000 A 
ATOM     27  N   UNL     1      43.593   3.426  12.937  0.00  0.00    +0.000 N 
ATOM     28  C   UNL     1      44.355   4.557  12.759  0.00  0.00    +0.000 A 
ATOM     29  O   UNL     1      44.585   5.321  13.689  0.00  0.00    +0.000 OA
ATOM     30  C   UNL     1      44.851   4.740  11.408  0.00  0.00    +0.000 A 
ATOM     31  H   UNL     1      43.242   3.270  13.872  0.00  0.00    +0.000 HD
ENDBRANCH  18  21
ENDBRANCH   1  17
TORSDOF 6
ENDMDL
MODEL 4
REMARK VINA RESULT:    -7.256      4.876      9.025
REMARK INTER + INTRA:         -10.794
REMARK INTER:                  -8.726
REMARK INTRA:                  -2.068
REMARK UNBOUND:                -0.993
REMARK  Name = 
REMARK  7 active torsions:
REMARK  status: ('A' for Active; 'I' for Inactive)
REMARK    1  A    between atoms: C_1  and  C_2
REMARK    2  A    between atoms: C_7  and  C_8
REMARK    3  A    between atoms: C_8  and  O_9
REMARK    4  A    between atoms: O_9  and  C_10
REMARK    5  A    between atoms: C_13  and  C_14
REMARK    6  A    between atoms: C_14  and  N_15
REMARK    7  A    between atoms: C_16  and  C_18
REMARK                            x       y       z     vdW  Elec       q    Type
REMARK                         _______ _______ _______ _____ _____    ______ ____
ROOT
ATOM      1  C   UNL     1      48.274   9.118  14.907  0.00  0.00    +0.000 C 
ENDROOT
BRANCH   1   5
ATOM      2  C   UNL     1      50.605   6.726  17.639  0.00  0.00    +0.000 A 
ATOM      3  C   UNL     1      49.729   7.690  18.136  0.00  0.00    +0.000 A 
ATOM      4  C   UNL     1      48.970   8.474  17.260  0.00  0.00    +0.000 A 
ATOM      5  C   UNL     1      49.086   8.300  15.874  0.00  0.00    +0.000 A 
ATOM      6  C   UNL     1      50.031   7.391  15.385  0.00  0.00    +0.000 A 
ATOM      7  C   UNL     1      50.790   6.615  16.260  0.00  0.00    +0.000 A 
BRANCH   2   8
ATOM      8  O   UNL     1      51.237   5.941  18.569  0.00  0.00    +0.000 OA
BRANCH   8   9
ATOM      9  C   UNL     1      50.368   5.034  19.255  0.00  0.00    +0.000 C 
BRANCH   9  16
ATOM     10  C   UNL     1      47.479   4.960  18.388  0.00  0.00    +0.000 C 
ATOM     11  C   UNL     1      48.481   3.951  17.899  0.00  0.00    +0.000 A 
ATOM     12  C   UNL     1      48.066   2.970  16.983  0.00  0.00    +0.000 A 
ATOM     13  C   UNL     1      48.967   2.035  16.475  0.00  0.00    +0.000 A 
ATOM     14  C   UNL     1      50.297   2.064  16.878  0.00  0.00    +0.000 A 
ATOM     15  C   UNL     1      50.725   3.024  17.793  0.00  0.00    +0.000 A 
ATOM     16  C   UNL     1      49.829   3.972  18.320  0.00  0.00    +0.000 A 
ENDBRANCH   9  16
ENDBRANCH   8   9
ENDBRANCH   2   8
ENDBRANCH   1   5
BRANCH   1  17
ATOM     17  N   UNL     1      47.248   8.303  14.317  0.00  0.00    +0.000 N 
ATOM     18  C   UNL     1      47.204   8.043  12.975  0.00  0.00    +0.000 C 
ATOM     19  O   UNL     1      48.056   8.461  12.196  0.00  0.00    +0.000 OA
ATOM     20  H   UNL     1      46.411   8.165  14.874  0.00  0.00    +0.000 HD
BRANCH  18  21
ATOM     21  C   UNL     1      46.117   7.161  12.535  0.00  0.00    +0.000 A 
ATOM     22  C   UNL     1      45.044   7.684  11.826  0.00  0.00    +0.000 A 
ATOM     23  S   UNL     1      43.937   6.500  11.295  0.00  0.00    +0.000 S 
ATOM     24  C   UNL     1      44.824   5.254  12.042  0.00  0.00    +0.000 A 
ATOM     25  N   UNL     1      44.415   3.960  11.965  0.00  0.00    +0.000 NA
ATOM     26  C   UNL     1      45.171   3.123  12.599  0.00  0.00    +0.000 A 
ATOM     27  N   UNL     1      46.291   3.465  13.306  0.00  0.00    +0.000 N 
ATOM     28  C   UNL     1      46.745   4.760  13.410  0.00  0.00    +0.000 A 
ATOM     29  O   UNL     1      47.752   5.030  14.053  0.00  0.00    +0.000 OA
ATOM     30  C   UNL     1      45.945   5.735  12.694  0.00  0.00    +0.000 A 
ATOM     31  H   UNL     1      46.836   2.765  13.788  0.00  0.00    +0.000 HD
ENDBRANCH  18  21
ENDBRANCH   1  17
TORSDOF 6
ENDMDL
MODEL 5
REMARK VINA RESULT:    -7.228      5.094     11.205
REMARK INTER + INTRA:         -10.756
REMARK INTER:                  -9.640
REMARK INTRA:                  -1.117
REMARK UNBOUND:                -0.993
REMARK  Name = 
REMARK  7 active torsions:
REMARK  status: ('A' for Active; 'I' for Inactive)
REMARK    1  A    between atoms: C_1  and  C_2
REMARK    2  A    between atoms: C_7  and  C_8
REMARK    3  A    between atoms: C_8  and  O_9
REMARK    4  A    between atoms: O_9  and  C_10
REMARK    5  A    between atoms: C_13  and  C_14
REMARK    6  A    between atoms: C_14  and  N_15
REMARK    7  A    between atoms: C_16  and  C_18
REMARK                            x       y       z     vdW  Elec       q    Type
REMARK                         _______ _______ _______ _____ _____    ______ ____
ROOT
ATOM      1  C   UNL     1      47.629   3.671  16.560  0.00  0.00    +0.000 C 
ENDROOT
BRANCH   1   5
ATOM      2  C   UNL     1      48.233   5.677  20.332  0.00  0.00    +0.000 A 
ATOM      3  C   UNL     1      49.140   4.705  19.911  0.00  0.00    +0.000 A 
ATOM      4  C   UNL     1      48.953   4.046  18.691  0.00  0.00    +0.000 A 
ATOM      5  C   UNL     1      47.850   4.353  17.883  0.00  0.00    +0.000 A 
ATOM      6  C   UNL     1      46.900   5.266  18.356  0.00  0.00    +0.000 A 
ATOM      7  C   UNL     1      47.086   5.918  19.574  0.00  0.00    +0.000 A 
BRANCH   2   8
ATOM      8  O   UNL     1      48.545   6.337  21.493  0.00  0.00    +0.000 OA
BRANCH   8   9
ATOM      9  C   UNL     1      49.117   7.633  21.292  0.00  0.00    +0.000 C 
BRANCH   9  16
ATOM     10  C   UNL     1      48.703   9.150  18.717  0.00  0.00    +0.000 C 
ATOM     11  C   UNL     1      47.840   9.387  19.926  0.00  0.00    +0.000 A 
ATOM     12  C   UNL     1      46.788  10.315  19.840  0.00  0.00    +0.000 A 
ATOM     13  C   UNL     1      45.942  10.542  20.924  0.00  0.00    +0.000 A 
ATOM     14  C   UNL     1      46.135   9.848  22.113  0.00  0.00    +0.000 A 
ATOM     15  C   UNL     1      47.179   8.932  22.220  0.00  0.00    +0.000 A 
ATOM     16  C   UNL     1      48.047   8.692  21.139  0.00  0.00    +0.000 A 
ENDBRANCH   9  16
ENDBRANCH   8   9
ENDBRANCH   2   8
ENDBRANCH   1   5
BRANCH   1  17
ATOM     17  N   UNL     1      47.071   4.600  15.616  0.00  0.00    +0.000 N 
ATOM     18  C   UNL     1      46.870   4.276  14.302  0.00  0.00    +0.000 C 
ATOM     19  O   UNL     1      47.123   3.160  13.856  0.00  0.00    +0.000 OA
ATOM     20  H   UNL     1      47.097   5.578  15.884  0.00  0.00    +0.000 HD
BRANCH  18  21
ATOM     21  C   UNL     1      46.255   5.322  13.478  0.00  0.00    +0.000 A 
ATOM     22  C   UNL     1      46.955   6.490  13.207  0.00  0.00    +0.000 A 
ATOM     23  S   UNL     1      46.137   7.540  12.139  0.00  0.00    +0.000 S 
ATOM     24  C   UNL     1      44.796   6.494  12.047  0.00  0.00    +0.000 A 
ATOM     25  N   UNL     1      43.719   6.802  11.277  0.00  0.00    +0.000 NA
ATOM     26  C   UNL     1      42.765   5.930  11.322  0.00  0.00    +0.000 A 
ATOM     27  N   UNL     1      42.790   4.785  12.070  0.00  0.00    +0.000 N 
ATOM     28  C   UNL     1      43.858   4.429  12.860  0.00  0.00    +0.000 A 
ATOM     29  O   UNL     1      43.845   3.396  13.518  0.00  0.00    +0.000 OA
ATOM     30  C   UNL     1      44.967   5.364  12.826  0.00  0.00    +0.000 A 
ATOM     31  H   UNL     1      42.007   4.146  12.069  0.00  0.00    +0.000 HD
ENDBRANCH  18  21
ENDBRANCH   1  17
TORSDOF 6
ENDMDL
MODEL 6
REMARK VINA RESULT:    -6.973      2.898      4.676
REMARK INTER + INTRA:         -10.411
REMARK INTER:                  -9.371
REMARK INTRA:                  -1.040
REMARK UNBOUND:                -0.993
REMARK  Name = 
REMARK  7 active torsions:
REMARK  status: ('A' for Active; 'I' for Inactive)
REMARK    1  A    between atoms: C_1  and  C_2
REMARK    2  A    between atoms: C_7  and  C_8
REMARK    3  A    between atoms: C_8  and  O_9
REMARK    4  A    between atoms: O_9  and  C_10
REMARK    5  A    between atoms: C_13  and  C_14
REMARK    6  A    between atoms: C_14  and  N_15
REMARK    7  A    between atoms: C_16  and  C_18
REMARK                            x       y       z     vdW  Elec       q    Type
REMARK                         _______ _______ _______ _____ _____    ______ ____
ROOT
ATOM      1  C   UNL     1      48.810   7.192  13.913  0.00  0.00    +0.000 C 
ENDROOT
BRANCH   1   5
ATOM      2  C   UNL     1      44.942   5.642  12.793  0.00  0.00    +0.000 A 
ATOM      3  C   UNL     1      45.262   6.970  12.517  0.00  0.00    +0.000 A 
ATOM      4  C   UNL     1      46.513   7.485  12.878  0.00  0.00    +0.000 A 
ATOM      5  C   UNL     1      47.453   6.671  13.525  0.00  0.00    +0.000 A 
ATOM      6  C   UNL     1      47.088   5.366  13.875  0.00  0.00    +0.000 A 
ATOM      7  C   UNL     1      45.840   4.857  13.519  0.00  0.00    +0.000 A 
BRANCH   2   8
ATOM      8  O   UNL     1      43.734   5.197  12.321  0.00  0.00    +0.000 OA
BRANCH   8   9
ATOM      9  C   UNL     1      43.544   5.404  10.917  0.00  0.00    +0.000 C 
BRANCH   9  16
ATOM     10  C   UNL     1      43.287   2.450  11.477  0.00  0.00    +0.000 C 
ATOM     11  C   UNL     1      44.134   2.975  10.350  0.00  0.00    +0.000 A 
ATOM     12  C   UNL     1      44.794   2.060   9.513  0.00  0.00    +0.000 A 
ATOM     13  C   UNL     1      45.562   2.499   8.435  0.00  0.00    +0.000 A 
ATOM     14  C   UNL     1      45.686   3.859   8.179  0.00  0.00    +0.000 A 
ATOM     15  C   UNL     1      45.047   4.781   9.005  0.00  0.00    +0.000 A 
ATOM     16  C   UNL     1      44.272   4.359  10.101  0.00  0.00    +0.000 A 
ENDBRANCH   9  16
ENDBRANCH   8   9
ENDBRANCH   2   8
ENDBRANCH   1   5
BRANCH   1  17
ATOM     17  N   UNL     1      49.019   7.011  15.324  0.00  0.00    +0.000 N 
ATOM     18  C   UNL     1      50.264   7.059  15.890  0.00  0.00    +0.000 C 
ATOM     19  O   UNL     1      51.275   7.293  15.234  0.00  0.00    +0.000 OA
ATOM     20  H   UNL     1      48.261   6.570  15.835  0.00  0.00    +0.000 HD
BRANCH  18  21
ATOM     21  C   UNL     1      50.304   6.894  17.347  0.00  0.00    +0.000 A 
ATOM     22  C   UNL     1      50.930   7.851  18.135  0.00  0.00    +0.000 A 
ATOM     23  S   UNL     1      50.777   7.560  19.809  0.00  0.00    +0.000 S 
ATOM     24  C   UNL     1      49.918   6.115  19.536  0.00  0.00    +0.000 A 
ATOM     25  N   UNL     1      49.475   5.357  20.575  0.00  0.00    +0.000 NA
ATOM     26  C   UNL     1      48.859   4.276  20.221  0.00  0.00    +0.000 A 
ATOM     27  N   UNL     1      48.654   3.883  18.926  0.00  0.00    +0.000 N 
ATOM     28  C   UNL     1      49.081   4.618  17.844  0.00  0.00    +0.000 A 
ATOM     29  O   UNL     1      48.881   4.236  16.698  0.00  0.00    +0.000 OA
ATOM     30  C   UNL     1      49.757   5.855  18.188  0.00  0.00    +0.000 A 
ATOM     31  H   UNL     1      48.173   3.021  18.715  0.00  0.00    +0.000 HD
ENDBRANCH  18  21
ENDBRANCH   1  17
TORSDOF 6
ENDMDL
MODEL 7
REMARK VINA RESULT:    -6.950      2.704      3.928
REMARK INTER + INTRA:         -10.380
REMARK INTER:                  -9.908
REMARK INTRA:                  -0.472
REMARK UNBOUND:                -0.993
REMARK  Name = 
REMARK  7 active torsions:
REMARK  status: ('A' for Active; 'I' for Inactive)
REMARK    1  A    between atoms: C_1  and  C_2
REMARK    2  A    between atoms: C_7  and  C_8
REMARK    3  A    between atoms: C_8  and  O_9
REMARK    4  A    between atoms: O_9  and  C_10
REMARK    5  A    between atoms: C_13  and  C_14
REMARK    6  A    between atoms: C_14  and  N_15
REMARK    7  A    between atoms: C_16  and  C_18
REMARK                            x       y       z     vdW  Elec       q    Type
REMARK                         _______ _______ _______ _____ _____    ______ ____
ROOT
ATOM      1  C   UNL     1      47.506   7.281  13.868  0.00  0.00    +0.000 C 
ENDROOT
BRANCH   1   5
ATOM      2  C   UNL     1      45.289   4.999  10.953  0.00  0.00    +0.000 A 
ATOM      3  C   UNL     1      45.451   4.501  12.245  0.00  0.00    +0.000 A 
ATOM      4  C   UNL     1      46.171   5.230  13.198  0.00  0.00    +0.000 A 
ATOM      5  C   UNL     1      46.738   6.467  12.861  0.00  0.00    +0.000 A 
ATOM      6  C   UNL     1      46.643   6.915  11.539  0.00  0.00    +0.000 A 
ATOM      7  C   UNL     1      45.930   6.184  10.590  0.00  0.00    +0.000 A 
BRANCH   2   8
ATOM      8  O   UNL     1      44.492   4.263  10.114  0.00  0.00    +0.000 OA
BRANCH   8   9
ATOM      9  C   UNL     1      44.789   4.438   8.725  0.00  0.00    +0.000 C 
BRANCH   9  16
ATOM     10  C   UNL     1      44.386   1.518   9.370  0.00  0.00    +0.000 C 
ATOM     11  C   UNL     1      45.522   1.992   8.503  0.00  0.00    +0.000 A 
ATOM     12  C   UNL     1      46.397   1.042   7.950  0.00  0.00    +0.000 A 
ATOM     13  C   UNL     1      47.442   1.431   7.114  0.00  0.00    +0.000 A 
ATOM     14  C   UNL     1      47.632   2.776   6.820  0.00  0.00    +0.000 A 
ATOM     15  C   UNL     1      46.781   3.733   7.369  0.00  0.00    +0.000 A 
ATOM     16  C   UNL     1      45.723   3.361   8.219  0.00  0.00    +0.000 A 
ENDBRANCH   9  16
ENDBRANCH   8   9
ENDBRANCH   2   8
ENDBRANCH   1   5
BRANCH   1  17
ATOM     17  N   UNL     1      48.065   6.418  14.872  0.00  0.00    +0.000 N 
ATOM     18  C   UNL     1      48.982   6.859  15.786  0.00  0.00    +0.000 C 
ATOM     19  O   UNL     1      49.360   8.026  15.826  0.00  0.00    +0.000 OA
ATOM     20  H   UNL     1      47.974   5.421  14.705  0.00  0.00    +0.000 HD
BRANCH  18  21
ATOM     21  C   UNL     1      49.424   5.865  16.770  0.00  0.00    +0.000 A 
ATOM     22  C   UNL     1      48.486   5.148  17.501  0.00  0.00    +0.000 A 
ATOM     23  S   UNL     1      49.174   3.956  18.509  0.00  0.00    +0.000 S 
ATOM     24  C   UNL     1      50.752   4.394  18.044  0.00  0.00    +0.000 A 
ATOM     25  N   UNL     1      51.836   3.746  18.548  0.00  0.00    +0.000 NA
ATOM     26  C   UNL     1      52.972   4.199  18.127  0.00  0.00    +0.000 A 
ATOM     27  N   UNL     1      53.120   5.244  17.256  0.00  0.00    +0.000 N 
ATOM     28  C   UNL     1      52.054   5.927  16.718  0.00  0.00    +0.000 A 
ATOM     29  O   UNL     1      52.224   6.859  15.941  0.00  0.00    +0.000 OA
ATOM     30  C   UNL     1      50.755   5.440  17.140  0.00  0.00    +0.000 A 
ATOM     31  H   UNL     1      54.037   5.558  16.971  0.00  0.00    +0.000 HD
ENDBRANCH  18  21
ENDBRANCH   1  17
TORSDOF 6
ENDMDL
MODEL 8
REMARK VINA RESULT:    -6.815      5.153      9.375
REMARK INTER + INTRA:         -10.198
REMARK INTER:                  -8.611
REMARK INTRA:                  -1.587
REMARK UNBOUND:                -0.993
REMARK  Name = 
REMARK  7 active torsions:
REMARK  status: ('A' for Active; 'I' for Inactive)
REMARK    1  A    between atoms: C_1  and  C_2
REMARK    2  A    between atoms: C_7  and  C_8
REMARK    3  A    between atoms: C_8  and  O_9
REMARK    4  A    between atoms: O_9  and  C_10
REMARK    5  A    between atoms: C_13  and  C_14
REMARK    6  A    between atoms: C_14  and  N_15
REMARK    7  A    between atoms: C_16  and  C_18
REMARK                            x       y       z     vdW  Elec       q    Type
REMARK                         _______ _______ _______ _____ _____    ______ ____
ROOT
ATOM      1  C   UNL     1      48.410   8.547  14.186  0.00  0.00    +0.000 C 
ENDROOT
BRANCH   1   5
ATOM      2  C   UNL     1      50.415   7.039  17.697  0.00  0.00    +0.000 A 
ATOM      3  C   UNL     1      49.211   7.730  17.830  0.00  0.00    +0.000 A 
ATOM      4  C   UNL     1      48.553   8.227  16.699  0.00  0.00    +0.000 A 
ATOM      5  C   UNL     1      49.100   8.037  15.422  0.00  0.00    +0.000 A 
ATOM      6  C   UNL     1      50.351   7.418  15.309  0.00  0.00    +0.000 A 
ATOM      7  C   UNL     1      51.007   6.929  16.437  0.00  0.00    +0.000 A 
BRANCH   2   8
ATOM      8  O   UNL     1      50.941   6.508  18.847  0.00  0.00    +0.000 OA
BRANCH   8   9
ATOM      9  C   UNL     1      50.125   5.496  19.449  0.00  0.00    +0.000 C 
BRANCH   9  16
ATOM     10  C   UNL     1      47.552   4.595  18.157  0.00  0.00    +0.000 C 
ATOM     11  C   UNL     1      48.845   3.852  17.958  0.00  0.00    +0.000 A 
ATOM     12  C   UNL     1      48.859   2.727  17.116  0.00  0.00    +0.000 A 
ATOM     13  C   UNL     1      50.040   2.026  16.874  0.00  0.00    +0.000 A 
ATOM     14  C   UNL     1      51.225   2.437  17.473  0.00  0.00    +0.000 A 
ATOM     15  C   UNL     1      51.227   3.544  18.319  0.00  0.00    +0.000 A 
ATOM     16  C   UNL     1      50.045   4.261  18.579  0.00  0.00    +0.000 A 
ENDBRANCH   9  16
ENDBRANCH   8   9
ENDBRANCH   2   8
ENDBRANCH   1   5
BRANCH   1  17
ATOM     17  N   UNL     1      47.374   7.632  13.791  0.00  0.00    +0.000 N 
ATOM     18  C   UNL     1      47.636   6.494  13.079  0.00  0.00    +0.000 C 
ATOM     19  O   UNL     1      48.776   6.166  12.762  0.00  0.00    +0.000 OA
ATOM     20  H   UNL     1      46.426   7.995  13.809  0.00  0.00    +0.000 HD
BRANCH  18  21
ATOM     21  C   UNL     1      46.475   5.646  12.788  0.00  0.00    +0.000 A 
ATOM     22  C   UNL     1      46.520   4.288  13.076  0.00  0.00    +0.000 A 
ATOM     23  S   UNL     1      45.045   3.482  12.785  0.00  0.00    +0.000 S 
ATOM     24  C   UNL     1      44.313   4.909  12.211  0.00  0.00    +0.000 A 
ATOM     25  N   UNL     1      43.019   4.914  11.795  0.00  0.00    +0.000 NA
ATOM     26  C   UNL     1      42.602   6.059  11.363  0.00  0.00    +0.000 A 
ATOM     27  N   UNL     1      43.364   7.195  11.305  0.00  0.00    +0.000 N 
ATOM     28  C   UNL     1      44.675   7.239  11.718  0.00  0.00    +0.000 A 
ATOM     29  O   UNL     1      45.328   8.273  11.650  0.00  0.00    +0.000 OA
ATOM     30  C   UNL     1      45.184   5.983  12.235  0.00  0.00    +0.000 A 
ATOM     31  H   UNL     1      42.982   8.059  10.948  0.00  0.00    +0.000 HD
ENDBRANCH  18  21
ENDBRANCH   1  17
TORSDOF 6
ENDMDL
MODEL 9
REMARK VINA RESULT:    -6.785      3.679      9.495
REMARK INTER + INTRA:         -10.157
REMARK INTER:                  -8.633
REMARK INTRA:                  -1.524
REMARK UNBOUND:                -0.993
REMARK  Name = 
REMARK  7 active torsions:
REMARK  status: ('A' for Active; 'I' for Inactive)
REMARK    1  A    between atoms: C_1  and  C_2
REMARK    2  A    between atoms: C_7  and  C_8
REMARK    3  A    between atoms: C_8  and  O_9
REMARK    4  A    between atoms: O_9  and  C_10
REMARK    5  A    between atoms: C_13  and  C_14
REMARK    6  A    between atoms: C_14  and  N_15
REMARK    7  A    between atoms: C_16  and  C_18
REMARK                            x       y       z     vdW  Elec       q    Type
REMARK                         _______ _______ _______ _____ _____    ______ ____
ROOT
ATOM      1  C   UNL     1      47.518   8.035  12.289  0.00  0.00    +0.000 C 
ENDROOT
BRANCH   1   5
ATOM      2  C   UNL     1      49.656   7.987  16.037  0.00  0.00    +0.000 A 
ATOM      3  C   UNL     1      50.107   7.208  14.973  0.00  0.00    +0.000 A 
ATOM      4  C   UNL     1      49.420   7.213  13.754  0.00  0.00    +0.000 A 
ATOM      5  C   UNL     1      48.270   7.999  13.593  0.00  0.00    +0.000 A 
ATOM      6  C   UNL     1      47.778   8.708  14.694  0.00  0.00    +0.000 A 
ATOM      7  C   UNL     1      48.461   8.698  15.909  0.00  0.00    +0.000 A 
BRANCH   2   8
ATOM      8  O   UNL     1      50.441   7.994  17.162  0.00  0.00    +0.000 OA
BRANCH   8   9
ATOM      9  C   UNL     1      49.907   7.234  18.251  0.00  0.00    +0.000 C 
BRANCH   9  16
ATOM     10  C   UNL     1      47.626   5.285  17.932  0.00  0.00    +0.000 C 
ATOM     11  C   UNL     1      49.063   4.842  17.883  0.00  0.00    +0.000 A 
ATOM     12  C   UNL     1      49.349   3.487  17.645  0.00  0.00    +0.000 A 
ATOM     13  C   UNL     1      50.665   3.037  17.558  0.00  0.00    +0.000 A 
ATOM     14  C   UNL     1      51.717   3.932  17.710  0.00  0.00    +0.000 A 
ATOM     15  C   UNL     1      51.452   5.278  17.957  0.00  0.00    +0.000 A 
ATOM     16  C   UNL     1      50.131   5.751  18.054  0.00  0.00    +0.000 A 
ENDBRANCH   9  16
ENDBRANCH   8   9
ENDBRANCH   2   8
ENDBRANCH   1   5
BRANCH   1  17
ATOM     17  N   UNL     1      46.846   6.783  12.076  0.00  0.00    +0.000 N 
ATOM     18  C   UNL     1      45.482   6.682  12.043  0.00  0.00    +0.000 C 
ATOM     19  O   UNL     1      44.749   7.660  12.161  0.00  0.00    +0.000 OA
ATOM     20  H   UNL     1      47.399   5.947  12.233  0.00  0.00    +0.000 HD
BRANCH  18  21
ATOM     21  C   UNL     1      44.952   5.341  11.776  0.00  0.00    +0.000 A 
ATOM     22  C   UNL     1      44.289   4.645  12.779  0.00  0.00    +0.000 A 
ATOM     23  S   UNL     1      43.638   3.157  12.259  0.00  0.00    +0.000 S 
ATOM     24  C   UNL     1      44.268   3.365  10.690  0.00  0.00    +0.000 A 
ATOM     25  N   UNL     1      44.062   2.432   9.723  0.00  0.00    +0.000 NA
ATOM     26  C   UNL     1      44.617   2.708   8.589  0.00  0.00    +0.000 A 
ATOM     27  N   UNL     1      45.362   3.828   8.337  0.00  0.00    +0.000 N 
ATOM     28  C   UNL     1      45.594   4.801   9.282  0.00  0.00    +0.000 A 
ATOM     29  O   UNL     1      46.267   5.791   9.022  0.00  0.00    +0.000 OA
ATOM     30  C   UNL     1      44.971   4.549  10.568  0.00  0.00    +0.000 A 
ATOM     31  H   UNL     1      45.778   3.983   7.430  0.00  0.00    +0.000 HD
ENDBRANCH  18  21
ENDBRANCH   1  17
TORSDOF 6
ENDMDL
