MODEL 1
REMARK VINA RESULT:    -7.000      0.000      0.000
REMARK INTER + INTRA:         -10.847
REMARK INTER:                  -9.865
REMARK INTRA:                  -0.983
REMARK UNBOUND:                -0.983
REMARK  Name = 
REMARK  9 active torsions:
REMARK  status: ('A' for Active; 'I' for Inactive)
REMARK    1  A    between atoms: C_1  and  O_2
REMARK    2  A    between atoms: O_2  and  C_3
REMARK    3  A    between atoms: C_6  and  C_7
REMARK    4  A    between atoms: C_7  and  C_8
REMARK    5  A    between atoms: C_8  and  O_9
REMARK    6  A    between atoms: O_9  and  C_10
REMARK    7  A    between atoms: C_13  and  O_14
REMARK    8  A    between atoms: C_15  and  C_16
REMARK    9  A    between atoms: C_16  and  N_17
REMARK                            x       y       z     vdW  Elec       q    Type
REMARK                         _______ _______ _______ _____ _____    ______ ____
ROOT
ATOM      1  C   UNL     1      44.941   5.481  12.016  0.00  0.00    +0.000 A 
ATOM      2  C   UNL     1      45.867   6.337  11.419  0.00  0.00    +0.000 A 
ATOM      3  C   UNL     1      47.126   6.528  11.991  0.00  0.00    +0.000 A 
ATOM      4  C   UNL     1      47.463   5.866  13.170  0.00  0.00    +0.000 A 
ATOM      5  C   UNL     1      46.553   5.012  13.800  0.00  0.00    +0.000 A 
ATOM      6  C   UNL     1      45.293   4.821  13.201  0.00  0.00    +0.000 A 
ENDROOT
BRANCH   4   7
ATOM      7  O   UNL     1      48.699   6.057  13.720  0.00  0.00    +0.000 OA
ATOM      8  H   UNL     1      49.342   5.510  13.240  0.00  0.00    +0.000 HD
ENDBRANCH   4   7
BRANCH   1   9
ATOM      9  O   UNL     1      43.682   5.214  11.538  0.00  0.00    +0.000 OA
BRANCH   9  10
ATOM     10  C   UNL     1      43.613   4.667  10.219  0.00  0.00    +0.000 C 
BRANCH  10  11
ATOM     11  C   UNL     1      44.132   3.229  10.228  0.00  0.00    +0.000 C 
BRANCH  11  15
ATOM     12  C   UNL     1      46.990   2.531   7.052  0.00  0.00    +0.000 A 
ATOM     13  C   UNL     1      46.489   1.462   7.793  0.00  0.00    +0.000 A 
ATOM     14  C   UNL     1      45.560   1.687   8.817  0.00  0.00    +0.000 A 
ATOM     15  C   UNL     1      45.114   2.983   9.108  0.00  0.00    +0.000 A 
ATOM     16  C   UNL     1      45.627   4.052   8.367  0.00  0.00    +0.000 A 
ATOM     17  C   UNL     1      46.554   3.825   7.347  0.00  0.00    +0.000 A 
BRANCH  12  19
ATOM     18  C   UNL     1      47.485   1.773   4.851  0.00  0.00    +0.000 C 
ATOM     19  O   UNL     1      47.897   2.452   6.032  0.00  0.00    +0.000 OA
ENDBRANCH  12  19
ENDBRANCH  11  15
ENDBRANCH  10  11
ENDBRANCH   9  10
ENDBRANCH   1   9
BRANCH   5  20
ATOM     20  C   UNL     1      46.891   4.301  15.087  0.00  0.00    +0.000 C 
BRANCH  20  21
ATOM     21  N   UNL     1      47.717   3.116  14.847  0.00  0.00    +0.000 NA
ATOM     22  H   UNL     1      48.275   3.289  14.010  0.00  0.00    +0.000 HD
ATOM     23  H   UNL     1      47.104   2.338  14.618  0.00  0.00    +0.000 HD
ENDBRANCH  20  21
ENDBRANCH   5  20
TORSDOF 8
ENDMDL
MODEL 2
REMARK VINA RESULT:    -6.726      2.274      6.210
REMARK INTER + INTRA:         -10.462
REMARK INTER:                  -9.359
REMARK INTRA:                  -1.102
REMARK UNBOUND:                -0.983
REMARK  Name = 
REMARK  9 active torsions:
REMARK  status: ('A' for Active; 'I' for Inactive)
REMARK    1  A    between atoms: C_1  and  O_2
REMARK    2  A    between atoms: O_2  and  C_3
REMARK    3  A    between atoms: C_6  and  C_7
REMARK    4  A    between atoms: C_7  and  C_8
REMARK    5  A    between atoms: C_8  and  O_9
REMARK    6  A    between atoms: O_9  and  C_10
REMARK    7  A    between atoms: C_13  and  O_14
REMARK    8  A    between atoms: C_15  and  C_16
REMARK    9  A    between atoms: C_16  and  N_17
REMARK                            x       y       z     vdW  Elec       q    Type
REMARK                         _______ _______ _______ _____ _____    ______ ____
ROOT
ATOM      1  C   UNL     1      44.614   2.934   9.668  0.00  0.00    +0.000 A 
ATOM      2  C   UNL     1      44.774   4.287   9.364  0.00  0.00    +0.000 A 
ATOM      3  C   UNL     1      45.601   4.683   8.312  0.00  0.00    +0.000 A 
ATOM      4  C   UNL     1      46.279   3.726   7.561  0.00  0.00    +0.000 A 
ATOM      5  C   UNL     1      46.152   2.364   7.848  0.00  0.00    +0.000 A 
ATOM      6  C   UNL     1      45.301   1.982   8.904  0.00  0.00    +0.000 A 
ENDROOT
BRANCH   4   7
ATOM      7  O   UNL     1      47.084   4.124   6.531  0.00  0.00    +0.000 OA
ATOM      8  H   UNL     1      47.982   4.266   6.872  0.00  0.00    +0.000 HD
ENDBRANCH   4   7
BRANCH   1   9
ATOM      9  O   UNL     1      43.823   2.432  10.671  0.00  0.00    +0.000 OA
BRANCH   9  10
ATOM     10  C   UNL     1      43.138   3.398  11.474  0.00  0.00    +0.000 C 
BRANCH  10  11
ATOM     11  C   UNL     1      43.777   3.463  12.861  0.00  0.00    +0.000 C 
BRANCH  11  15
ATOM     12  C   UNL     1      46.643   6.700  13.105  0.00  0.00    +0.000 A 
ATOM     13  C   UNL     1      45.312   6.963  12.782  0.00  0.00    +0.000 A 
ATOM     14  C   UNL     1      44.384   5.916  12.709  0.00  0.00    +0.000 A 
ATOM     15  C   UNL     1      44.772   4.594  12.964  0.00  0.00    +0.000 A 
ATOM     16  C   UNL     1      46.110   4.336  13.279  0.00  0.00    +0.000 A 
ATOM     17  C   UNL     1      47.034   5.382  13.351  0.00  0.00    +0.000 A 
BRANCH  12  19
ATOM     18  C   UNL     1      48.967   7.125  13.388  0.00  0.00    +0.000 C 
ATOM     19  O   UNL     1      47.645   7.623  13.209  0.00  0.00    +0.000 OA
ENDBRANCH  12  19
ENDBRANCH  11  15
ENDBRANCH  10  11
ENDBRANCH   9  10
ENDBRANCH   1   9
BRANCH   5  20
ATOM     20  C   UNL     1      46.892   1.313   7.058  0.00  0.00    +0.000 C 
BRANCH  20  21
ATOM     21  N   UNL     1      48.312   1.643   6.921  0.00  0.00    +0.000 NA
ATOM     22  H   UNL     1      48.738   1.575   7.845  0.00  0.00    +0.000 HD
ATOM     23  H   UNL     1      48.390   2.619   6.648  0.00  0.00    +0.000 HD
ENDBRANCH  20  21
ENDBRANCH   5  20
TORSDOF 8
ENDMDL
MODEL 3
REMARK VINA RESULT:    -6.699      1.553      2.032
REMARK INTER + INTRA:         -10.423
REMARK INTER:                  -9.535
REMARK INTRA:                  -0.887
REMARK UNBOUND:                -0.983
REMARK  Name = 
REMARK  9 active torsions:
REMARK  status: ('A' for Active; 'I' for Inactive)
REMARK    1  A    between atoms: C_1  and  O_2
REMARK    2  A    between atoms: O_2  and  C_3
REMARK    3  A    between atoms: C_6  and  C_7
REMARK    4  A    between atoms: C_7  and  C_8
REMARK    5  A    between atoms: C_8  and  O_9
REMARK    6  A    between atoms: O_9  and  C_10
REMARK    7  A    between atoms: C_13  and  O_14
REMARK    8  A    between atoms: C_15  and  C_16
REMARK    9  A    between atoms: C_16  and  N_17
REMARK                            x       y       z     vdW  Elec       q    Type
REMARK                         _______ _______ _______ _____ _____    ______ ____
ROOT
ATOM      1  C   UNL     1      44.847   4.859  12.610  0.00  0.00    +0.000 A 
ATOM      2  C   UNL     1      45.805   3.975  13.109  0.00  0.00    +0.000 A 
ATOM      3  C   UNL     1      47.024   4.453  13.595  0.00  0.00    +0.000 A 
ATOM      4  C   UNL     1      47.293   5.820  13.577  0.00  0.00    +0.000 A 
ATOM      5  C   UNL     1      46.360   6.730  13.071  0.00  0.00    +0.000 A 
ATOM      6  C   UNL     1      45.131   6.230  12.598  0.00  0.00    +0.000 A 
ENDROOT
BRANCH   4   7
ATOM      7  O   UNL     1      48.487   6.277  14.058  0.00  0.00    +0.000 OA
ATOM      8  H   UNL     1      48.337   7.120  14.517  0.00  0.00    +0.000 HD
ENDBRANCH   4   7
BRANCH   1   9
ATOM      9  O   UNL     1      43.617   4.502  12.116  0.00  0.00    +0.000 OA
BRANCH   9  10
ATOM     10  C   UNL     1      43.623   3.584  11.019  0.00  0.00    +0.000 C 
BRANCH  10  11
ATOM     11  C   UNL     1      44.004   4.318   9.733  0.00  0.00    +0.000 C 
BRANCH  11  15
ATOM     12  C   UNL     1      46.902   2.070   7.431  0.00  0.00    +0.000 A 
ATOM     13  C   UNL     1      46.066   1.418   8.338  0.00  0.00    +0.000 A 
ATOM     14  C   UNL     1      45.125   2.144   9.078  0.00  0.00    +0.000 A 
ATOM     15  C   UNL     1      45.002   3.531   8.917  0.00  0.00    +0.000 A 
ATOM     16  C   UNL     1      45.848   4.181   8.013  0.00  0.00    +0.000 A 
ATOM     17  C   UNL     1      46.787   3.454   7.276  0.00  0.00    +0.000 A 
BRANCH  12  19
ATOM     18  C   UNL     1      47.485   1.135   5.322  0.00  0.00    +0.000 C 
ATOM     19  O   UNL     1      47.859   1.485   6.650  0.00  0.00    +0.000 OA
ENDBRANCH  12  19
ENDBRANCH  11  15
ENDBRANCH  10  11
ENDBRANCH   9  10
ENDBRANCH   1   9
BRANCH   5  20
ATOM     20  C   UNL     1      46.640   8.211  13.025  0.00  0.00    +0.000 C 
BRANCH  20  21
ATOM     21  N   UNL     1      46.945   8.743  14.354  0.00  0.00    +0.000 NA
ATOM     22  H   UNL     1      46.268   8.352  15.010  0.00  0.00    +0.000 HD
ATOM     23  H   UNL     1      46.777   9.746  14.345  0.00  0.00    +0.000 HD
ENDBRANCH  20  21
ENDBRANCH   5  20
TORSDOF 8
ENDMDL
MODEL 4
REMARK VINA RESULT:    -6.204      2.254      2.902
REMARK INTER + INTRA:          -9.725
REMARK INTER:                  -9.310
REMARK INTRA:                  -0.415
REMARK UNBOUND:                -0.983
REMARK  Name = 
REMARK  9 active torsions:
REMARK  status: ('A' for Active; 'I' for Inactive)
REMARK    1  A    between atoms: C_1  and  O_2
REMARK    2  A    between atoms: O_2  and  C_3
REMARK    3  A    between atoms: C_6  and  C_7
REMARK    4  A    between atoms: C_7  and  C_8
REMARK    5  A    between atoms: C_8  and  O_9
REMARK    6  A    between atoms: O_9  and  C_10
REMARK    7  A    between atoms: C_13  and  O_14
REMARK    8  A    between atoms: C_15  and  C_16
REMARK    9  A    between atoms: C_16  and  N_17
REMARK                            x       y       z     vdW  Elec       q    Type
REMARK                         _______ _______ _______ _____ _____    ______ ____
ROOT
ATOM      1  C   UNL     1      44.508   4.474  11.479  0.00  0.00    +0.000 A 
ATOM      2  C   UNL     1      45.379   4.137  12.516  0.00  0.00    +0.000 A 
ATOM      3  C   UNL     1      46.036   5.133  13.241  0.00  0.00    +0.000 A 
ATOM      4  C   UNL     1      45.829   6.475  12.927  0.00  0.00    +0.000 A 
ATOM      5  C   UNL     1      44.974   6.845  11.885  0.00  0.00    +0.000 A 
ATOM      6  C   UNL     1      44.309   5.827  11.174  0.00  0.00    +0.000 A 
ENDROOT
BRANCH   4   7
ATOM      7  O   UNL     1      46.474   7.442  13.645  0.00  0.00    +0.000 OA
ATOM      8  H   UNL     1      47.432   7.326  13.535  0.00  0.00    +0.000 HD
ENDBRANCH   4   7
BRANCH   1   9
ATOM      9  O   UNL     1      43.807   3.581  10.708  0.00  0.00    +0.000 OA
BRANCH   9  10
ATOM     10  C   UNL     1      44.316   3.351   9.392  0.00  0.00    +0.000 C 
BRANCH  10  11
ATOM     11  C   UNL     1      45.567   2.475   9.468  0.00  0.00    +0.000 C 
BRANCH  11  15
ATOM     12  C   UNL     1      47.186   1.599   5.549  0.00  0.00    +0.000 A 
ATOM     13  C   UNL     1      47.129   0.604   6.524  0.00  0.00    +0.000 A 
ATOM     14  C   UNL     1      46.600   0.886   7.790  0.00  0.00    +0.000 A 
ATOM     15  C   UNL     1      46.114   2.164   8.096  0.00  0.00    +0.000 A 
ATOM     16  C   UNL     1      46.182   3.161   7.116  0.00  0.00    +0.000 A 
ATOM     17  C   UNL     1      46.711   2.877   5.855  0.00  0.00    +0.000 A 
BRANCH  12  19
ATOM     18  C   UNL     1      46.997   0.550   3.422  0.00  0.00    +0.000 C 
ATOM     19  O   UNL     1      47.675   1.460   4.281  0.00  0.00    +0.000 OA
ENDBRANCH  12  19
ENDBRANCH  11  15
ENDBRANCH  10  11
ENDBRANCH   9  10
ENDBRANCH   1   9
BRANCH   5  20
ATOM     20  C   UNL     1      44.751   8.291  11.516  0.00  0.00    +0.000 C 
BRANCH  20  21
ATOM     21  N   UNL     1      43.399   8.514  11.003  0.00  0.00    +0.000 NA
ATOM     22  H   UNL     1      42.962   9.236  11.578  0.00  0.00    +0.000 HD
ATOM     23  H   UNL     1      42.854   7.669  11.155  0.00  0.00    +0.000 HD
ENDBRANCH  20  21
ENDBRANCH   5  20
TORSDOF 8
ENDMDL
MODEL 5
REMARK VINA RESULT:    -6.202      1.247      1.731
REMARK INTER + INTRA:          -9.723
REMARK INTER:                  -9.046
REMARK INTRA:                  -0.677
REMARK UNBOUND:                -0.983
REMARK  Name = 
REMARK  9 active torsions:
REMARK  status: ('A' for Active; 'I' for Inactive)
REMARK    1  A    between atoms: C_1  and  O_2
REMARK    2  A    between atoms: O_2  and  C_3
REMARK    3  A    between atoms: C_6  and  C_7
REMARK    4  A    between atoms: C_7  and  C_8
REMARK    5  A    between atoms: C_8  and  O_9
REMARK    6  A    between atoms: O_9  and  C_10
REMARK    7  A    between atoms: C_13  and  O_14
REMARK    8  A    between atoms: C_15  and  C_16
REMARK    9  A    between atoms: C_16  and  N_17
REMARK                            x       y       z     vdW  Elec       q    Type
REMARK                         _______ _______ _______ _____ _____    ______ ____
ROOT
ATOM      1  C   UNL     1      46.232   4.915  12.576  0.00  0.00    +0.000 A 
ATOM      2  C   UNL     1      46.747   6.206  12.453  0.00  0.00    +0.000 A 
ATOM      3  C   UNL     1      47.481   6.778  13.494  0.00  0.00    +0.000 A 
ATOM      4  C   UNL     1      47.697   6.061  14.669  0.00  0.00    +0.000 A 
ATOM      5  C   UNL     1      47.182   4.772  14.830  0.00  0.00    +0.000 A 
ATOM      6  C   UNL     1      46.457   4.206  13.763  0.00  0.00    +0.000 A 
ENDROOT
BRANCH   4   7
ATOM      7  O   UNL     1      48.419   6.629  15.681  0.00  0.00    +0.000 OA
ATOM      8  H   UNL     1      48.011   7.479  15.917  0.00  0.00    +0.000 HD
ENDBRANCH   4   7
BRANCH   1   9
ATOM      9  O   UNL     1      45.506   4.254  11.618  0.00  0.00    +0.000 OA
BRANCH   9  10
ATOM     10  C   UNL     1      44.613   5.056  10.841  0.00  0.00    +0.000 C 
BRANCH  10  11
ATOM     11  C   UNL     1      43.984   4.207   9.736  0.00  0.00    +0.000 C 
BRANCH  11  15
ATOM     12  C   UNL     1      46.953   2.149   7.349  0.00  0.00    +0.000 A 
ATOM     13  C   UNL     1      46.799   3.531   7.240  0.00  0.00    +0.000 A 
ATOM     14  C   UNL     1      45.843   4.197   8.016  0.00  0.00    +0.000 A 
ATOM     15  C   UNL     1      45.033   3.493   8.917  0.00  0.00    +0.000 A 
ATOM     16  C   UNL     1      45.186   2.106   9.015  0.00  0.00    +0.000 A 
ATOM     17  C   UNL     1      46.140   1.443   8.239  0.00  0.00    +0.000 A 
BRANCH  12  19
ATOM     18  C   UNL     1      47.465   0.979   5.341  0.00  0.00    +0.000 C 
ATOM     19  O   UNL     1      47.842   1.378   6.653  0.00  0.00    +0.000 OA
ENDBRANCH  12  19
ENDBRANCH  11  15
ENDBRANCH  10  11
ENDBRANCH   9  10
ENDBRANCH   1   9
BRANCH   5  20
ATOM     20  C   UNL     1      47.388   3.988  16.102  0.00  0.00    +0.000 C 
BRANCH  20  21
ATOM     21  N   UNL     1      46.836   4.688  17.263  0.00  0.00    +0.000 NA
ATOM     22  H   UNL     1      46.671   3.996  17.995  0.00  0.00    +0.000 HD
ATOM     23  H   UNL     1      45.921   5.053  17.012  0.00  0.00    +0.000 HD
ENDBRANCH  20  21
ENDBRANCH   5  20
TORSDOF 8
ENDMDL
MODEL 6
REMARK VINA RESULT:    -6.188      2.328      6.883
REMARK INTER + INTRA:          -9.703
REMARK INTER:                  -8.863
REMARK INTRA:                  -0.840
REMARK UNBOUND:                -0.983
REMARK  Name = 
REMARK  9 active torsions:
REMARK  status: ('A' for Active; 'I' for Inactive)
REMARK    1  A    between atoms: C_1  and  O_2
REMARK    2  A    between atoms: O_2  and  C_3
REMARK    3  A    between atoms: C_6  and  C_7
REMARK    4  A    between atoms: C_7  and  C_8
REMARK    5  A    between atoms: C_8  and  O_9
REMARK    6  A    between atoms: O_9  and  C_10
REMARK    7  A    between atoms: C_13  and  O_14
REMARK    8  A    between atoms: C_15  and  C_16
REMARK    9  A    between atoms: C_16  and  N_17
REMARK                            x       y       z     vdW  Elec       q    Type
REMARK                         _______ _______ _______ _____ _____    ______ ____
ROOT
ATOM      1  C   UNL     1      44.699   3.567   8.798  0.00  0.00    +0.000 A 
ATOM      2  C   UNL     1      44.638   2.280   9.335  0.00  0.00    +0.000 A 
ATOM      3  C   UNL     1      45.446   1.262   8.828  0.00  0.00    +0.000 A 
ATOM      4  C   UNL     1      46.318   1.525   7.774  0.00  0.00    +0.000 A 
ATOM      5  C   UNL     1      46.394   2.799   7.204  0.00  0.00    +0.000 A 
ATOM      6  C   UNL     1      45.580   3.817   7.738  0.00  0.00    +0.000 A 
ENDROOT
BRANCH   4   7
ATOM      7  O   UNL     1      47.108   0.522   7.287  0.00  0.00    +0.000 OA
ATOM      8  H   UNL     1      46.550  -0.111   6.806  0.00  0.00    +0.000 HD
ENDBRANCH   4   7
BRANCH   1   9
ATOM      9  O   UNL     1      43.958   4.642   9.222  0.00  0.00    +0.000 OA
BRANCH   9  10
ATOM     10  C   UNL     1      44.155   5.045  10.580  0.00  0.00    +0.000 C 
BRANCH  10  11
ATOM     11  C   UNL     1      45.425   5.888  10.690  0.00  0.00    +0.000 C 
BRANCH  11  15
ATOM     12  C   UNL     1      47.447   5.275  14.470  0.00  0.00    +0.000 A 
ATOM     13  C   UNL     1      47.689   6.427  13.722  0.00  0.00    +0.000 A 
ATOM     14  C   UNL     1      47.031   6.628  12.502  0.00  0.00    +0.000 A 
ATOM     15  C   UNL     1      46.116   5.684  12.017  0.00  0.00    +0.000 A 
ATOM     16  C   UNL     1      45.884   4.526  12.767  0.00  0.00    +0.000 A 
ATOM     17  C   UNL     1      46.543   4.328  13.983  0.00  0.00    +0.000 A 
BRANCH  12  19
ATOM     18  C   UNL     1      48.761   5.979  16.324  0.00  0.00    +0.000 C 
ATOM     19  O   UNL     1      48.019   4.956  15.669  0.00  0.00    +0.000 OA
ENDBRANCH  12  19
ENDBRANCH  11  15
ENDBRANCH  10  11
ENDBRANCH   9  10
ENDBRANCH   1   9
BRANCH   5  20
ATOM     20  C   UNL     1      47.317   3.099   6.050  0.00  0.00    +0.000 C 
BRANCH  20  21
ATOM     21  N   UNL     1      48.687   2.666   6.329  0.00  0.00    +0.000 NA
ATOM     22  H   UNL     1      49.018   2.139   5.520  0.00  0.00    +0.000 HD
ATOM     23  H   UNL     1      48.665   2.006   7.102  0.00  0.00    +0.000 HD
ENDBRANCH  20  21
ENDBRANCH   5  20
TORSDOF 8
ENDMDL
MODEL 7
REMARK VINA RESULT:    -6.059      2.339      2.974
REMARK INTER + INTRA:          -9.521
REMARK INTER:                  -8.843
REMARK INTRA:                  -0.677
REMARK UNBOUND:                -0.983
REMARK  Name = 
REMARK  9 active torsions:
REMARK  status: ('A' for Active; 'I' for Inactive)
REMARK    1  A    between atoms: C_1  and  O_2
REMARK    2  A    between atoms: O_2  and  C_3
REMARK    3  A    between atoms: C_6  and  C_7
REMARK    4  A    between atoms: C_7  and  C_8
REMARK    5  A    between atoms: C_8  and  O_9
REMARK    6  A    between atoms: O_9  and  C_10
REMARK    7  A    between atoms: C_13  and  O_14
REMARK    8  A    between atoms: C_15  and  C_16
REMARK    9  A    between atoms: C_16  and  N_17
REMARK                            x       y       z     vdW  Elec       q    Type
REMARK                         _______ _______ _______ _____ _____    ______ ____
ROOT
ATOM      1  C   UNL     1      46.035   5.803  12.188  0.00  0.00    +0.000 A 
ATOM      2  C   UNL     1      47.168   5.751  13.001  0.00  0.00    +0.000 A 
ATOM      3  C   UNL     1      47.625   6.897  13.655  0.00  0.00    +0.000 A 
ATOM      4  C   UNL     1      46.950   8.106  13.493  0.00  0.00    +0.000 A 
ATOM      5  C   UNL     1      45.821   8.195  12.674  0.00  0.00    +0.000 A 
ATOM      6  C   UNL     1      45.367   7.025  12.034  0.00  0.00    +0.000 A 
ENDROOT
BRANCH   4   7
ATOM      7  O   UNL     1      47.403   9.221  14.140  0.00  0.00    +0.000 OA
ATOM      8  H   UNL     1      48.350   9.329  13.952  0.00  0.00    +0.000 HD
ENDBRANCH   4   7
BRANCH   1   9
ATOM      9  O   UNL     1      45.496   4.741  11.507  0.00  0.00    +0.000 OA
BRANCH   9  10
ATOM     10  C   UNL     1      44.432   5.049  10.602  0.00  0.00    +0.000 C 
BRANCH  10  11
ATOM     11  C   UNL     1      43.991   3.781   9.871  0.00  0.00    +0.000 C 
BRANCH  11  15
ATOM     12  C   UNL     1      47.055   2.282   7.204  0.00  0.00    +0.000 A 
ATOM     13  C   UNL     1      46.748   3.642   7.228  0.00  0.00    +0.000 A 
ATOM     14  C   UNL     1      45.761   4.128   8.094  0.00  0.00    +0.000 A 
ATOM     15  C   UNL     1      45.073   3.262   8.955  0.00  0.00    +0.000 A 
ATOM     16  C   UNL     1      45.378   1.897   8.920  0.00  0.00    +0.000 A 
ATOM     17  C   UNL     1      46.363   1.415   8.054  0.00  0.00    +0.000 A 
BRANCH  12  19
ATOM     18  C   UNL     1      47.572   1.274   5.111  0.00  0.00    +0.000 C 
ATOM     19  O   UNL     1      47.990   1.679   6.410  0.00  0.00    +0.000 OA
ENDBRANCH  12  19
ENDBRANCH  11  15
ENDBRANCH  10  11
ENDBRANCH   9  10
ENDBRANCH   1   9
BRANCH   5  20
ATOM     20  C   UNL     1      45.089   9.498  12.471  0.00  0.00    +0.000 C 
BRANCH  20  21
ATOM     21  N   UNL     1      46.007  10.585  12.127  0.00  0.00    +0.000 NA
ATOM     22  H   UNL     1      46.206  11.107  12.980  0.00  0.00    +0.000 HD
ATOM     23  H   UNL     1      45.523  11.232  11.510  0.00  0.00    +0.000 HD
ENDBRANCH  20  21
ENDBRANCH   5  20
TORSDOF 8
ENDMDL
MODEL 8
REMARK VINA RESULT:    -5.892      1.716      2.176
REMARK INTER + INTRA:          -9.286
REMARK INTER:                  -8.626
REMARK INTRA:                  -0.660
REMARK UNBOUND:                -0.983
REMARK  Name = 
REMARK  9 active torsions:
REMARK  status: ('A' for Active; 'I' for Inactive)
REMARK    1  A    between atoms: C_1  and  O_2
REMARK    2  A    between atoms: O_2  and  C_3
REMARK    3  A    between atoms: C_6  and  C_7
REMARK    4  A    between atoms: C_7  and  C_8
REMARK    5  A    between atoms: C_8  and  O_9
REMARK    6  A    between atoms: O_9  and  C_10
REMARK    7  A    between atoms: C_13  and  O_14
REMARK    8  A    between atoms: C_15  and  C_16
REMARK    9  A    between atoms: C_16  and  N_17
REMARK                            x       y       z     vdW  Elec       q    Type
REMARK                         _______ _______ _______ _____ _____    ______ ____
ROOT
ATOM      1  C   UNL     1      45.299   6.260  12.410  0.00  0.00    +0.000 A 
ATOM      2  C   UNL     1      44.911   7.576  12.149  0.00  0.00    +0.000 A 
ATOM      3  C   UNL     1      45.692   8.645  12.590  0.00  0.00    +0.000 A 
ATOM      4  C   UNL     1      46.866   8.403  13.301  0.00  0.00    +0.000 A 
ATOM      5  C   UNL     1      47.275   7.098  13.591  0.00  0.00    +0.000 A 
ATOM      6  C   UNL     1      46.480   6.032  13.126  0.00  0.00    +0.000 A 
ENDROOT
BRANCH   4   7
ATOM      7  O   UNL     1      47.626   9.456  13.725  0.00  0.00    +0.000 OA
ATOM      8  H   UNL     1      47.139  10.280  13.558  0.00  0.00    +0.000 HD
ENDBRANCH   4   7
BRANCH   1   9
ATOM      9  O   UNL     1      44.613   5.137  12.019  0.00  0.00    +0.000 OA
BRANCH   9  10
ATOM     10  C   UNL     1      44.145   5.125  10.668  0.00  0.00    +0.000 C 
BRANCH  10  11
ATOM     11  C   UNL     1      43.952   3.682  10.202  0.00  0.00    +0.000 C 
BRANCH  11  15
ATOM     12  C   UNL     1      46.891   2.525   7.240  0.00  0.00    +0.000 A 
ATOM     13  C   UNL     1      46.552   3.868   7.407  0.00  0.00    +0.000 A 
ATOM     14  C   UNL     1      45.605   4.242   8.368  0.00  0.00    +0.000 A 
ATOM     15  C   UNL     1      44.991   3.281   9.182  0.00  0.00    +0.000 A 
ATOM     16  C   UNL     1      45.329   1.935   9.004  0.00  0.00    +0.000 A 
ATOM     17  C   UNL     1      46.273   1.564   8.044  0.00  0.00    +0.000 A 
BRANCH  12  19
ATOM     18  C   UNL     1      47.310   1.722   5.040  0.00  0.00    +0.000 C 
ATOM     19  O   UNL     1      47.793   2.026   6.344  0.00  0.00    +0.000 OA
ENDBRANCH  12  19
ENDBRANCH  11  15
ENDBRANCH  10  11
ENDBRANCH   9  10
ENDBRANCH   1   9
BRANCH   5  20
ATOM     20  C   UNL     1      48.532   6.815  14.376  0.00  0.00    +0.000 C 
BRANCH  20  21
ATOM     21  N   UNL     1      49.733   7.053  13.574  0.00  0.00    +0.000 NA
ATOM     22  H   UNL     1      49.511   6.824  12.605  0.00  0.00    +0.000 HD
ATOM     23  H   UNL     1      50.447   6.388  13.861  0.00  0.00    +0.000 HD
ENDBRANCH  20  21
ENDBRANCH   5  20
TORSDOF 8
ENDMDL
MODEL 9
REMARK VINA RESULT:    -5.574      3.683      7.986
REMARK INTER + INTRA:          -8.838
REMARK INTER:                  -8.430
REMARK INTRA:                  -0.407
REMARK UNBOUND:                -0.983
REMARK  Name = 
REMARK  9 active torsions:
REMARK  status: ('A' for Active; 'I' for Inactive)
REMARK    1  A    between atoms: C_1  and  O_2
REMARK    2  A    between atoms: O_2  and  C_3
REMARK    3  A    between atoms: C_6  and  C_7
REMARK    4  A    between atoms: C_7  and  C_8
REMARK    5  A    between atoms: C_8  and  O_9
REMARK    6  A    between atoms: O_9  and  C_10
REMARK    7  A    between atoms: C_13  and  O_14
REMARK    8  A    between atoms: C_15  and  C_16
REMARK    9  A    between atoms: C_16  and  N_17
REMARK                            x       y       z     vdW  Elec       q    Type
REMARK                         _______ _______ _______ _____ _____    ______ ____
ROOT
ATOM      1  C   UNL     1      46.278   4.531  13.306  0.00  0.00    +0.000 A 
ATOM      2  C   UNL     1      46.139   5.900  13.071  0.00  0.00    +0.000 A 
ATOM      3  C   UNL     1      45.225   6.367  12.125  0.00  0.00    +0.000 A 
ATOM      4  C   UNL     1      44.447   5.464  11.403  0.00  0.00    +0.000 A 
ATOM      5  C   UNL     1      44.572   4.086  11.605  0.00  0.00    +0.000 A 
ATOM      6  C   UNL     1      45.490   3.635  12.573  0.00  0.00    +0.000 A 
ENDROOT
BRANCH   4   7
ATOM      7  O   UNL     1      43.553   5.931  10.482  0.00  0.00    +0.000 OA
ATOM      8  H   UNL     1      42.995   6.606  10.903  0.00  0.00    +0.000 HD
ENDBRANCH   4   7
BRANCH   1   9
ATOM      9  O   UNL     1      47.136   3.964  14.214  0.00  0.00    +0.000 OA
BRANCH   9  10
ATOM     10  C   UNL     1      47.322   4.680  15.437  0.00  0.00    +0.000 C 
BRANCH  10  11
ATOM     11  C   UNL     1      47.383   3.699  16.607  0.00  0.00    +0.000 C 
BRANCH  11  15
ATOM     12  C   UNL     1      51.483   2.807  17.675  0.00  0.00    +0.000 A 
ATOM     13  C   UNL     1      50.960   4.081  17.899  0.00  0.00    +0.000 A 
ATOM     14  C   UNL     1      49.632   4.367  17.559  0.00  0.00    +0.000 A 
ATOM     15  C   UNL     1      48.807   3.383  16.997  0.00  0.00    +0.000 A 
ATOM     16  C   UNL     1      49.340   2.111  16.767  0.00  0.00    +0.000 A 
ATOM     17  C   UNL     1      50.666   1.828  17.107  0.00  0.00    +0.000 A 
BRANCH  12  19
ATOM     18  C   UNL     1      53.711   3.408  18.256  0.00  0.00    +0.000 C 
ATOM     19  O   UNL     1      52.756   2.397  17.958  0.00  0.00    +0.000 OA
ENDBRANCH  12  19
ENDBRANCH  11  15
ENDBRANCH  10  11
ENDBRANCH   9  10
ENDBRANCH   1   9
BRANCH   5  20
ATOM     20  C   UNL     1      43.753   3.092  10.820  0.00  0.00    +0.000 C 
BRANCH  20  21
ATOM     21  N   UNL     1      43.202   2.046  11.684  0.00  0.00    +0.000 NA
ATOM     22  H   UNL     1      42.374   1.666  11.224  0.00  0.00    +0.000 HD
ATOM     23  H   UNL     1      42.871   2.479  12.542  0.00  0.00    +0.000 HD
ENDBRANCH  20  21
ENDBRANCH   5  20
TORSDOF 8
ENDMDL
