MODEL 1
REMARK VINA RESULT:    -7.898      0.000      0.000
REMARK INTER + INTRA:         -10.922
REMARK INTER:                 -10.206
REMARK INTRA:                  -0.715
REMARK UNBOUND:                -0.715
REMARK  Name = 
REMARK  5 active torsions:
REMARK  status: ('A' for Active; 'I' for Inactive)
REMARK    1  A    between atoms: C_2  and  C_3
REMARK    2  A    between atoms: C_6  and  O_7
REMARK    3  A    between atoms: O_7  and  C_8
REMARK    4  A    between atoms: C_8  and  C_9
REMARK    5  A    between atoms: C_14  and  C_15
REMARK                            x       y       z     vdW  Elec       q    Type
REMARK                         _______ _______ _______ _____ _____    ______ ____
ROOT
ATOM      1  C   UNL     1      45.066   4.365  11.935  0.00  0.00    +0.000 A 
ATOM      2  C   UNL     1      45.712   3.560  12.876  0.00  0.00    +0.000 A 
ATOM      3  C   UNL     1      46.777   4.073  13.603  0.00  0.00    +0.000 A 
ATOM      4  F   UNL     1      47.392   3.296  14.505  0.00  0.00    +0.000 F 
ATOM      5  C   UNL     1      47.219   5.380  13.414  0.00  0.00    +0.000 A 
ATOM      6  C   UNL     1      46.612   6.214  12.461  0.00  0.00    +0.000 A 
ATOM      7  C   UNL     1      45.544   5.670  11.720  0.00  0.00    +0.000 A 
ENDROOT
BRANCH   6   8
ATOM      8  C   UNL     1      47.069   7.602  12.233  0.00  0.00    +0.000 A 
ATOM      9  C   UNL     1      48.386   7.911  11.866  0.00  0.00    +0.000 A 
ATOM     10  C   UNL     1      48.775   9.234  11.650  0.00  0.00    +0.000 A 
ATOM     11  C   UNL     1      47.829  10.230  11.798  0.00  0.00    +0.000 A 
ATOM     12  N   UNL     1      46.551   9.996  12.152  0.00  0.00    +0.000 NA
ATOM     13  C   UNL     1      46.210   8.700  12.364  0.00  0.00    +0.000 A 
ENDBRANCH   6   8
BRANCH   1  14
ATOM     14  C   UNL     1      43.926   3.804  11.116  0.00  0.00    +0.000 C 
BRANCH  14  15
ATOM     15  O   UNL     1      43.933   4.372   9.801  0.00  0.00    +0.000 OA
BRANCH  15  19
ATOM     16  C   UNL     1      46.602   2.415   7.357  0.00  0.00    +0.000 A 
ATOM     17  C   UNL     1      45.857   1.691   8.290  0.00  0.00    +0.000 A 
ATOM     18  C   UNL     1      44.950   2.362   9.109  0.00  0.00    +0.000 A 
ATOM     19  C   UNL     1      44.822   3.735   8.963  0.00  0.00    +0.000 A 
ATOM     20  N   UNL     1      45.522   4.458   8.063  0.00  0.00    +0.000 NA
ATOM     21  C   UNL     1      46.395   3.784   7.280  0.00  0.00    +0.000 A 
BRANCH  16  23
ATOM     22  N   UNL     1      48.335   1.278   5.811  0.00  0.00    +0.000 NA
ATOM     23  C   UNL     1      47.553   1.783   6.504  0.00  0.00    +0.000 C 
ENDBRANCH  16  23
ENDBRANCH  15  19
ENDBRANCH  14  15
ENDBRANCH   1  14
TORSDOF 5
ENDMDL
MODEL 2
REMARK VINA RESULT:    -7.635      2.486      3.831
REMARK INTER + INTRA:         -10.582
REMARK INTER:                  -9.919
REMARK INTRA:                  -0.662
REMARK UNBOUND:                -0.715
REMARK  Name = 
REMARK  5 active torsions:
REMARK  status: ('A' for Active; 'I' for Inactive)
REMARK    1  A    between atoms: C_2  and  C_3
REMARK    2  A    between atoms: C_6  and  O_7
REMARK    3  A    between atoms: O_7  and  C_8
REMARK    4  A    between atoms: C_8  and  C_9
REMARK    5  A    between atoms: C_14  and  C_15
REMARK                            x       y       z     vdW  Elec       q    Type
REMARK                         _______ _______ _______ _____ _____    ______ ____
ROOT
ATOM      1  C   UNL     1      45.498   4.813  12.110  0.00  0.00    +0.000 A 
ATOM      2  C   UNL     1      45.863   6.052  11.578  0.00  0.00    +0.000 A 
ATOM      3  C   UNL     1      46.786   6.842  12.249  0.00  0.00    +0.000 A 
ATOM      4  F   UNL     1      47.131   8.030  11.733  0.00  0.00    +0.000 F 
ATOM      5  C   UNL     1      47.361   6.425  13.446  0.00  0.00    +0.000 A 
ATOM      6  C   UNL     1      47.004   5.196  14.026  0.00  0.00    +0.000 A 
ATOM      7  C   UNL     1      46.051   4.416  13.340  0.00  0.00    +0.000 A 
ENDROOT
BRANCH   6   8
ATOM      8  C   UNL     1      47.591   4.734  15.302  0.00  0.00    +0.000 A 
ATOM      9  C   UNL     1      47.485   3.408  15.744  0.00  0.00    +0.000 A 
ATOM     10  C   UNL     1      48.062   3.009  16.950  0.00  0.00    +0.000 A 
ATOM     11  C   UNL     1      48.749   3.950  17.693  0.00  0.00    +0.000 A 
ATOM     12  N   UNL     1      48.882   5.237  17.323  0.00  0.00    +0.000 NA
ATOM     13  C   UNL     1      48.300   5.593  16.150  0.00  0.00    +0.000 A 
ENDBRANCH   6   8
BRANCH   1  14
ATOM     14  C   UNL     1      44.470   3.959  11.402  0.00  0.00    +0.000 C 
BRANCH  14  15
ATOM     15  O   UNL     1      44.255   4.444  10.072  0.00  0.00    +0.000 OA
BRANCH  15  19
ATOM     16  C   UNL     1      46.617   2.444   7.363  0.00  0.00    +0.000 A 
ATOM     17  C   UNL     1      45.935   1.728   8.348  0.00  0.00    +0.000 A 
ATOM     18  C   UNL     1      45.131   2.414   9.258  0.00  0.00    +0.000 A 
ATOM     19  C   UNL     1      45.040   3.793   9.146  0.00  0.00    +0.000 A 
ATOM     20  N   UNL     1      45.680   4.509   8.197  0.00  0.00    +0.000 NA
ATOM     21  C   UNL     1      46.453   3.819   7.327  0.00  0.00    +0.000 A 
BRANCH  16  23
ATOM     22  N   UNL     1      48.144   1.259   5.645  0.00  0.00    +0.000 NA
ATOM     23  C   UNL     1      47.463   1.795   6.416  0.00  0.00    +0.000 C 
ENDBRANCH  16  23
ENDBRANCH  15  19
ENDBRANCH  14  15
ENDBRANCH   1  14
TORSDOF 5
ENDMDL
MODEL 3
REMARK VINA RESULT:    -7.438      2.233      2.803
REMARK INTER + INTRA:         -10.328
REMARK INTER:                  -9.569
REMARK INTRA:                  -0.759
REMARK UNBOUND:                -0.715
REMARK  Name = 
REMARK  5 active torsions:
REMARK  status: ('A' for Active; 'I' for Inactive)
REMARK    1  A    between atoms: C_2  and  C_3
REMARK    2  A    between atoms: C_6  and  O_7
REMARK    3  A    between atoms: O_7  and  C_8
REMARK    4  A    between atoms: C_8  and  C_9
REMARK    5  A    between atoms: C_14  and  C_15
REMARK                            x       y       z     vdW  Elec       q    Type
REMARK                         _______ _______ _______ _____ _____    ______ ____
ROOT
ATOM      1  C   UNL     1      44.576   4.629  11.451  0.00  0.00    +0.000 A 
ATOM      2  C   UNL     1      43.614   5.593  11.139  0.00  0.00    +0.000 A 
ATOM      3  C   UNL     1      43.894   6.936  11.351  0.00  0.00    +0.000 A 
ATOM      4  F   UNL     1      42.967   7.856  11.050  0.00  0.00    +0.000 F 
ATOM      5  C   UNL     1      45.120   7.347  11.869  0.00  0.00    +0.000 A 
ATOM      6  C   UNL     1      46.105   6.408  12.216  0.00  0.00    +0.000 A 
ATOM      7  C   UNL     1      45.795   5.048  12.012  0.00  0.00    +0.000 A 
ENDROOT
BRANCH   6   8
ATOM      8  C   UNL     1      47.410   6.816  12.778  0.00  0.00    +0.000 A 
ATOM      9  C   UNL     1      48.233   7.766  12.158  0.00  0.00    +0.000 A 
ATOM     10  C   UNL     1      49.455   8.132  12.725  0.00  0.00    +0.000 A 
ATOM     11  C   UNL     1      49.828   7.541  13.918  0.00  0.00    +0.000 A 
ATOM     12  N   UNL     1      49.083   6.621  14.558  0.00  0.00    +0.000 NA
ATOM     13  C   UNL     1      47.907   6.281  13.973  0.00  0.00    +0.000 A 
ENDBRANCH   6   8
BRANCH   1  14
ATOM     14  C   UNL     1      44.267   3.163  11.253  0.00  0.00    +0.000 C 
BRANCH  14  15
ATOM     15  O   UNL     1      43.731   2.941   9.943  0.00  0.00    +0.000 OA
BRANCH  15  19
ATOM     16  C   UNL     1      46.626   2.170   7.126  0.00  0.00    +0.000 A 
ATOM     17  C   UNL     1      46.026   3.429   7.175  0.00  0.00    +0.000 A 
ATOM     18  C   UNL     1      45.050   3.684   8.139  0.00  0.00    +0.000 A 
ATOM     19  C   UNL     1      44.712   2.665   9.017  0.00  0.00    +0.000 A 
ATOM     20  N   UNL     1      45.283   1.442   8.998  0.00  0.00    +0.000 NA
ATOM     21  C   UNL     1      46.227   1.222   8.054  0.00  0.00    +0.000 A 
BRANCH  16  23
ATOM     22  N   UNL     1      48.431   1.584   5.369  0.00  0.00    +0.000 NA
ATOM     23  C   UNL     1      47.618   1.851   6.153  0.00  0.00    +0.000 C 
ENDBRANCH  16  23
ENDBRANCH  15  19
ENDBRANCH  14  15
ENDBRANCH   1  14
TORSDOF 5
ENDMDL
MODEL 4
REMARK VINA RESULT:    -7.087      2.054      6.796
REMARK INTER + INTRA:          -9.874
REMARK INTER:                  -9.091
REMARK INTRA:                  -0.783
REMARK UNBOUND:                -0.715
REMARK  Name = 
REMARK  5 active torsions:
REMARK  status: ('A' for Active; 'I' for Inactive)
REMARK    1  A    between atoms: C_2  and  C_3
REMARK    2  A    between atoms: C_6  and  O_7
REMARK    3  A    between atoms: O_7  and  C_8
REMARK    4  A    between atoms: C_8  and  C_9
REMARK    5  A    between atoms: C_14  and  C_15
REMARK                            x       y       z     vdW  Elec       q    Type
REMARK                         _______ _______ _______ _____ _____    ______ ____
ROOT
ATOM      1  C   UNL     1      44.594   5.123  10.667  0.00  0.00    +0.000 A 
ATOM      2  C   UNL     1      43.772   4.271  11.409  0.00  0.00    +0.000 A 
ATOM      3  C   UNL     1      43.668   2.935  11.050  0.00  0.00    +0.000 A 
ATOM      4  F   UNL     1      42.877   2.122  11.766  0.00  0.00    +0.000 F 
ATOM      5  C   UNL     1      44.369   2.420   9.963  0.00  0.00    +0.000 A 
ATOM      6  C   UNL     1      45.188   3.248   9.178  0.00  0.00    +0.000 A 
ATOM      7  C   UNL     1      45.266   4.606   9.546  0.00  0.00    +0.000 A 
ENDROOT
BRANCH   6   8
ATOM      8  C   UNL     1      45.935   2.729   8.012  0.00  0.00    +0.000 A 
ATOM      9  C   UNL     1      46.206   3.513   6.882  0.00  0.00    +0.000 A 
ATOM     10  C   UNL     1      46.924   2.990   5.805  0.00  0.00    +0.000 A 
ATOM     11  C   UNL     1      47.367   1.683   5.884  0.00  0.00    +0.000 A 
ATOM     12  N   UNL     1      47.134   0.881   6.939  0.00  0.00    +0.000 NA
ATOM     13  C   UNL     1      46.425   1.419   7.963  0.00  0.00    +0.000 A 
ENDBRANCH   6   8
BRANCH   1  14
ATOM     14  C   UNL     1      44.689   6.587  11.031  0.00  0.00    +0.000 C 
BRANCH  14  15
ATOM     15  O   UNL     1      45.187   6.735  12.366  0.00  0.00    +0.000 OA
BRANCH  15  19
ATOM     16  C   UNL     1      49.097   8.005  12.494  0.00  0.00    +0.000 A 
ATOM     17  C   UNL     1      48.799   6.659  12.713  0.00  0.00    +0.000 A 
ATOM     18  C   UNL     1      47.471   6.236  12.661  0.00  0.00    +0.000 A 
ATOM     19  C   UNL     1      46.491   7.180  12.390  0.00  0.00    +0.000 A 
ATOM     20  N   UNL     1      46.752   8.485  12.165  0.00  0.00    +0.000 NA
ATOM     21  C   UNL     1      48.048   8.868  12.221  0.00  0.00    +0.000 A 
BRANCH  16  23
ATOM     22  N   UNL     1      51.528   8.881  12.593  0.00  0.00    +0.000 NA
ATOM     23  C   UNL     1      50.436   8.494  12.550  0.00  0.00    +0.000 C 
ENDBRANCH  16  23
ENDBRANCH  15  19
ENDBRANCH  14  15
ENDBRANCH   1  14
TORSDOF 5
ENDMDL
MODEL 5
REMARK VINA RESULT:    -6.910      3.387      7.318
REMARK INTER + INTRA:          -9.646
REMARK INTER:                  -8.974
REMARK INTRA:                  -0.671
REMARK UNBOUND:                -0.715
REMARK  Name = 
REMARK  5 active torsions:
REMARK  status: ('A' for Active; 'I' for Inactive)
REMARK    1  A    between atoms: C_2  and  C_3
REMARK    2  A    between atoms: C_6  and  O_7
REMARK    3  A    between atoms: O_7  and  C_8
REMARK    4  A    between atoms: C_8  and  C_9
REMARK    5  A    between atoms: C_14  and  C_15
REMARK                            x       y       z     vdW  Elec       q    Type
REMARK                         _______ _______ _______ _____ _____    ______ ____
ROOT
ATOM      1  C   UNL     1      45.273   6.148  12.040  0.00  0.00    +0.000 A 
ATOM      2  C   UNL     1      43.892   6.213  12.241  0.00  0.00    +0.000 A 
ATOM      3  C   UNL     1      43.045   5.463  11.436  0.00  0.00    +0.000 A 
ATOM      4  F   UNL     1      41.721   5.531  11.633  0.00  0.00    +0.000 F 
ATOM      5  C   UNL     1      43.544   4.641  10.429  0.00  0.00    +0.000 A 
ATOM      6  C   UNL     1      44.924   4.565  10.180  0.00  0.00    +0.000 A 
ATOM      7  C   UNL     1      45.767   5.348  10.995  0.00  0.00    +0.000 A 
ENDROOT
BRANCH   6   8
ATOM      8  C   UNL     1      45.479   3.709   9.110  0.00  0.00    +0.000 A 
ATOM      9  C   UNL     1      46.080   4.236   7.959  0.00  0.00    +0.000 A 
ATOM     10  C   UNL     1      46.602   3.394   6.976  0.00  0.00    +0.000 A 
ATOM     11  C   UNL     1      46.519   2.028   7.170  0.00  0.00    +0.000 A 
ATOM     12  N   UNL     1      45.952   1.463   8.251  0.00  0.00    +0.000 NA
ATOM     13  C   UNL     1      45.446   2.311   9.182  0.00  0.00    +0.000 A 
ENDBRANCH   6   8
BRANCH   1  14
ATOM     14  C   UNL     1      46.200   6.985  12.891  0.00  0.00    +0.000 C 
BRANCH  14  15
ATOM     15  O   UNL     1      47.489   6.365  12.978  0.00  0.00    +0.000 OA
BRANCH  15  19
ATOM     16  C   UNL     1      48.155   4.801  16.723  0.00  0.00    +0.000 A 
ATOM     17  C   UNL     1      47.253   4.175  15.862  0.00  0.00    +0.000 A 
ATOM     18  C   UNL     1      47.038   4.708  14.591  0.00  0.00    +0.000 A 
ATOM     19  C   UNL     1      47.737   5.851  14.231  0.00  0.00    +0.000 A 
ATOM     20  N   UNL     1      48.623   6.471  15.040  0.00  0.00    +0.000 NA
ATOM     21  C   UNL     1      48.813   5.933  16.266  0.00  0.00    +0.000 A 
BRANCH  16  23
ATOM     22  N   UNL     1      48.598   3.916  19.112  0.00  0.00    +0.000 NA
ATOM     23  C   UNL     1      48.402   4.308  18.038  0.00  0.00    +0.000 C 
ENDBRANCH  16  23
ENDBRANCH  15  19
ENDBRANCH  14  15
ENDBRANCH   1  14
TORSDOF 5
ENDMDL
MODEL 6
REMARK VINA RESULT:    -6.184      4.923      7.717
REMARK INTER + INTRA:          -8.707
REMARK INTER:                  -7.955
REMARK INTRA:                  -0.751
REMARK UNBOUND:                -0.715
REMARK  Name = 
REMARK  5 active torsions:
REMARK  status: ('A' for Active; 'I' for Inactive)
REMARK    1  A    between atoms: C_2  and  C_3
REMARK    2  A    between atoms: C_6  and  O_7
REMARK    3  A    between atoms: O_7  and  C_8
REMARK    4  A    between atoms: C_8  and  C_9
REMARK    5  A    between atoms: C_14  and  C_15
REMARK                            x       y       z     vdW  Elec       q    Type
REMARK                         _______ _______ _______ _____ _____    ______ ____
ROOT
ATOM      1  C   UNL     1      48.621   6.807  14.385  0.00  0.00    +0.000 A 
ATOM      2  C   UNL     1      49.342   7.518  13.422  0.00  0.00    +0.000 A 
ATOM      3  C   UNL     1      48.872   7.574  12.117  0.00  0.00    +0.000 A 
ATOM      4  F   UNL     1      49.569   8.258  11.197  0.00  0.00    +0.000 F 
ATOM      5  C   UNL     1      47.693   6.935  11.743  0.00  0.00    +0.000 A 
ATOM      6  C   UNL     1      46.952   6.191  12.676  0.00  0.00    +0.000 A 
ATOM      7  C   UNL     1      47.454   6.130  13.992  0.00  0.00    +0.000 A 
ENDROOT
BRANCH   6   8
ATOM      8  C   UNL     1      45.702   5.494  12.304  0.00  0.00    +0.000 A 
ATOM      9  C   UNL     1      44.959   4.738  13.221  0.00  0.00    +0.000 A 
ATOM     10  C   UNL     1      43.778   4.104  12.833  0.00  0.00    +0.000 A 
ATOM     11  C   UNL     1      43.355   4.246  11.525  0.00  0.00    +0.000 A 
ATOM     12  N   UNL     1      44.026   4.955  10.599  0.00  0.00    +0.000 NA
ATOM     13  C   UNL     1      45.175   5.550  11.008  0.00  0.00    +0.000 A 
ENDBRANCH   6   8
BRANCH   1  14
ATOM     14  C   UNL     1      49.141   6.714  15.801  0.00  0.00    +0.000 C 
BRANCH  14  15
ATOM     15  O   UNL     1      48.432   5.701  16.524  0.00  0.00    +0.000 OA
BRANCH  15  19
ATOM     16  C   UNL     1      50.896   2.544  17.462  0.00  0.00    +0.000 A 
ATOM     17  C   UNL     1      51.327   3.851  17.695  0.00  0.00    +0.000 A 
ATOM     18  C   UNL     1      50.482   4.915  17.380  0.00  0.00    +0.000 A 
ATOM     19  C   UNL     1      49.236   4.629  16.843  0.00  0.00    +0.000 A 
ATOM     20  N   UNL     1      48.790   3.374  16.617  0.00  0.00    +0.000 NA
ATOM     21  C   UNL     1      49.629   2.361  16.931  0.00  0.00    +0.000 A 
BRANCH  16  23
ATOM     22  N   UNL     1      52.396   0.506  17.997  0.00  0.00    +0.000 NA
ATOM     23  C   UNL     1      51.724   1.420  17.751  0.00  0.00    +0.000 C 
ENDBRANCH  16  23
ENDBRANCH  15  19
ENDBRANCH  14  15
ENDBRANCH   1  14
TORSDOF 5
ENDMDL
MODEL 7
REMARK VINA RESULT:    -6.125      4.044      7.965
REMARK INTER + INTRA:          -8.630
REMARK INTER:                  -7.879
REMARK INTRA:                  -0.751
REMARK UNBOUND:                -0.715
REMARK  Name = 
REMARK  5 active torsions:
REMARK  status: ('A' for Active; 'I' for Inactive)
REMARK    1  A    between atoms: C_2  and  C_3
REMARK    2  A    between atoms: C_6  and  O_7
REMARK    3  A    between atoms: O_7  and  C_8
REMARK    4  A    between atoms: C_8  and  C_9
REMARK    5  A    between atoms: C_14  and  C_15
REMARK                            x       y       z     vdW  Elec       q    Type
REMARK                         _______ _______ _______ _____ _____    ______ ____
ROOT
ATOM      1  C   UNL     1      47.185   7.659  12.788  0.00  0.00    +0.000 A 
ATOM      2  C   UNL     1      46.336   8.769  12.793  0.00  0.00    +0.000 A 
ATOM      3  C   UNL     1      45.134   8.717  12.101  0.00  0.00    +0.000 A 
ATOM      4  F   UNL     1      44.324   9.785  12.109  0.00  0.00    +0.000 F 
ATOM      5  C   UNL     1      44.752   7.576  11.399  0.00  0.00    +0.000 A 
ATOM      6  C   UNL     1      45.587   6.448  11.350  0.00  0.00    +0.000 A 
ATOM      7  C   UNL     1      46.812   6.527  12.043  0.00  0.00    +0.000 A 
ENDROOT
BRANCH   6   8
ATOM      8  C   UNL     1      45.210   5.229  10.603  0.00  0.00    +0.000 A 
ATOM      9  C   UNL     1      45.537   5.041   9.254  0.00  0.00    +0.000 A 
ATOM     10  C   UNL     1      45.172   3.871   8.587  0.00  0.00    +0.000 A 
ATOM     11  C   UNL     1      44.488   2.898   9.292  0.00  0.00    +0.000 A 
ATOM     12  N   UNL     1      44.144   3.023  10.587  0.00  0.00    +0.000 NA
ATOM     13  C   UNL     1      44.505   4.177  11.201  0.00  0.00    +0.000 A 
ENDBRANCH   6   8
BRANCH   1  14
ATOM     14  C   UNL     1      48.510   7.718  13.513  0.00  0.00    +0.000 C 
BRANCH  14  15
ATOM     15  O   UNL     1      48.889   6.411  13.961  0.00  0.00    +0.000 OA
BRANCH  15  19
ATOM     16  C   UNL     1      48.260   5.930  17.997  0.00  0.00    +0.000 A 
ATOM     17  C   UNL     1      48.787   7.129  17.517  0.00  0.00    +0.000 A 
ATOM     18  C   UNL     1      48.991   7.287  16.146  0.00  0.00    +0.000 A 
ATOM     19  C   UNL     1      48.657   6.234  15.307  0.00  0.00    +0.000 A 
ATOM     20  N   UNL     1      48.136   5.067  15.743  0.00  0.00    +0.000 NA
ATOM     21  C   UNL     1      47.948   4.941  17.077  0.00  0.00    +0.000 A 
BRANCH  16  23
ATOM     22  N   UNL     1      47.875   5.520  20.521  0.00  0.00    +0.000 NA
ATOM     23  C   UNL     1      48.045   5.710  19.389  0.00  0.00    +0.000 C 
ENDBRANCH  16  23
ENDBRANCH  15  19
ENDBRANCH  14  15
ENDBRANCH   1  14
TORSDOF 5
ENDMDL
MODEL 8
REMARK VINA RESULT:    -6.083      4.836      8.279
REMARK INTER + INTRA:          -8.577
REMARK INTER:                  -7.842
REMARK INTRA:                  -0.734
REMARK UNBOUND:                -0.715
REMARK  Name = 
REMARK  5 active torsions:
REMARK  status: ('A' for Active; 'I' for Inactive)
REMARK    1  A    between atoms: C_2  and  C_3
REMARK    2  A    between atoms: C_6  and  O_7
REMARK    3  A    between atoms: O_7  and  C_8
REMARK    4  A    between atoms: C_8  and  C_9
REMARK    5  A    between atoms: C_14  and  C_15
REMARK                            x       y       z     vdW  Elec       q    Type
REMARK                         _______ _______ _______ _____ _____    ______ ____
ROOT
ATOM      1  C   UNL     1      44.669   9.204  11.511  0.00  0.00    +0.000 A 
ATOM      2  C   UNL     1      45.726   9.496  12.377  0.00  0.00    +0.000 A 
ATOM      3  C   UNL     1      46.359   8.467  13.060  0.00  0.00    +0.000 A 
ATOM      4  F   UNL     1      47.372   8.754  13.889  0.00  0.00    +0.000 F 
ATOM      5  C   UNL     1      45.962   7.141  12.900  0.00  0.00    +0.000 A 
ATOM      6  C   UNL     1      44.889   6.808  12.057  0.00  0.00    +0.000 A 
ATOM      7  C   UNL     1      44.247   7.869  11.387  0.00  0.00    +0.000 A 
ENDROOT
BRANCH   6   8
ATOM      8  C   UNL     1      44.440   5.411  11.878  0.00  0.00    +0.000 A 
ATOM      9  C   UNL     1      44.413   4.783  10.625  0.00  0.00    +0.000 A 
ATOM     10  C   UNL     1      43.992   3.459  10.499  0.00  0.00    +0.000 A 
ATOM     11  C   UNL     1      43.612   2.779  11.641  0.00  0.00    +0.000 A 
ATOM     12  N   UNL     1      43.614   3.328  12.869  0.00  0.00    +0.000 NA
ATOM     13  C   UNL     1      44.018   4.620  12.954  0.00  0.00    +0.000 A 
ENDBRANCH   6   8
BRANCH   1  14
ATOM     14  C   UNL     1      43.955  10.322  10.787  0.00  0.00    +0.000 C 
BRANCH  14  15
ATOM     15  O   UNL     1      43.405  11.251  11.729  0.00  0.00    +0.000 OA
BRANCH  15  19
ATOM     16  C   UNL     1      39.305  10.965  11.900  0.00  0.00    +0.000 A 
ATOM     17  C   UNL     1      40.008  10.261  10.921  0.00  0.00    +0.000 A 
ATOM     18  C   UNL     1      41.399  10.358  10.875  0.00  0.00    +0.000 A 
ATOM     19  C   UNL     1      42.033  11.159  11.813  0.00  0.00    +0.000 A 
ATOM     20  N   UNL     1      41.379  11.842  12.776  0.00  0.00    +0.000 NA
ATOM     21  C   UNL     1      40.031  11.730  12.799  0.00  0.00    +0.000 A 
BRANCH  16  23
ATOM     22  N   UNL     1      36.725  10.880  12.045  0.00  0.00    +0.000 NA
ATOM     23  C   UNL     1      37.883  10.913  11.984  0.00  0.00    +0.000 C 
ENDBRANCH  16  23
ENDBRANCH  15  19
ENDBRANCH  14  15
ENDBRANCH   1  14
TORSDOF 5
ENDMDL
MODEL 9
REMARK VINA RESULT:    -5.988      4.242      6.855
REMARK INTER + INTRA:          -8.454
REMARK INTER:                  -7.807
REMARK INTRA:                  -0.646
REMARK UNBOUND:                -0.715
REMARK  Name = 
REMARK  5 active torsions:
REMARK  status: ('A' for Active; 'I' for Inactive)
REMARK    1  A    between atoms: C_2  and  C_3
REMARK    2  A    between atoms: C_6  and  O_7
REMARK    3  A    between atoms: O_7  and  C_8
REMARK    4  A    between atoms: C_8  and  C_9
REMARK    5  A    between atoms: C_14  and  C_15
REMARK                            x       y       z     vdW  Elec       q    Type
REMARK                         _______ _______ _______ _____ _____    ______ ____
ROOT
ATOM      1  C   UNL     1      46.065   4.294  13.062  0.00  0.00    +0.000 A 
ATOM      2  C   UNL     1      45.102   3.593  12.331  0.00  0.00    +0.000 A 
ATOM      3  C   UNL     1      44.259   4.281  11.471  0.00  0.00    +0.000 A 
ATOM      4  F   UNL     1      43.336   3.603  10.773  0.00  0.00    +0.000 F 
ATOM      5  C   UNL     1      44.351   5.663  11.318  0.00  0.00    +0.000 A 
ATOM      6  C   UNL     1      45.289   6.407  12.051  0.00  0.00    +0.000 A 
ATOM      7  C   UNL     1      46.125   5.693  12.933  0.00  0.00    +0.000 A 
ENDROOT
BRANCH   6   8
ATOM      8  C   UNL     1      45.401   7.875  11.915  0.00  0.00    +0.000 A 
ATOM      9  C   UNL     1      44.409   8.652  11.303  0.00  0.00    +0.000 A 
ATOM     10  C   UNL     1      44.547  10.037  11.203  0.00  0.00    +0.000 A 
ATOM     11  C   UNL     1      45.681  10.624  11.731  0.00  0.00    +0.000 A 
ATOM     12  N   UNL     1      46.669   9.930  12.327  0.00  0.00    +0.000 NA
ATOM     13  C   UNL     1      46.507   8.585  12.397  0.00  0.00    +0.000 A 
ENDBRANCH   6   8
BRANCH   1  14
ATOM     14  C   UNL     1      46.967   3.557  14.025  0.00  0.00    +0.000 C 
BRANCH  14  15
ATOM     15  O   UNL     1      46.680   3.948  15.372  0.00  0.00    +0.000 OA
BRANCH  15  19
ATOM     16  C   UNL     1      50.065   4.067  17.706  0.00  0.00    +0.000 A 
ATOM     17  C   UNL     1      49.401   5.253  17.389  0.00  0.00    +0.000 A 
ATOM     18  C   UNL     1      48.250   5.202  16.603  0.00  0.00    +0.000 A 
ATOM     19  C   UNL     1      47.807   3.963  16.164  0.00  0.00    +0.000 A 
ATOM     20  N   UNL     1      48.425   2.801  16.464  0.00  0.00    +0.000 NA
ATOM     21  C   UNL     1      49.538   2.877  17.228  0.00  0.00    +0.000 A 
BRANCH  16  23
ATOM     22  N   UNL     1      52.219   4.069  19.136  0.00  0.00    +0.000 NA
ATOM     23  C   UNL     1      51.254   4.061  18.493  0.00  0.00    +0.000 C 
ENDBRANCH  16  23
ENDBRANCH  15  19
ENDBRANCH  14  15
ENDBRANCH   1  14
TORSDOF 5
ENDMDL
