MODEL 1
REMARK VINA RESULT:    -8.319      0.000      0.000
REMARK INTER + INTRA:         -13.160
REMARK INTER:                 -11.724
REMARK INTRA:                  -1.436
REMARK UNBOUND:                -1.436
REMARK  Name = 
REMARK  8 active torsions:
REMARK  status: ('A' for Active; 'I' for Inactive)
REMARK    1  A    between atoms: C_1  and  N_2
REMARK    2  A    between atoms: C_4  and  C_5
REMARK    3  A    between atoms: N_7  and  C_8
REMARK    4  A    between atoms: C_8  and  C_9
REMARK    5  A    between atoms: C_12  and  O_13
REMARK    6  A    between atoms: O_13  and  C_14
REMARK    7  A    between atoms: C_14  and  C_15
REMARK    8  A    between atoms: C_15  and  C_16
REMARK                            x       y       z     vdW  Elec       q    Type
REMARK                         _______ _______ _______ _____ _____    ______ ____
ROOT
ATOM      1  C   UNL     1      46.150   7.112  12.375  0.00  0.00    +0.000 A 
ATOM      2  C   UNL     1      46.538   6.589  11.136  0.00  0.00    +0.000 A 
ATOM      3  C   UNL     1      45.785   5.576  10.542  0.00  0.00    +0.000 A 
ATOM      4  C   UNL     1      44.640   5.144  11.195  0.00  0.00    +0.000 A 
ATOM      5  N   UNL     1      44.242   5.627  12.391  0.00  0.00    +0.000 NA
ATOM      6  C   UNL     1      45.002   6.589  12.954  0.00  0.00    +0.000 A 
ENDROOT
BRANCH   1   7
ATOM      7  C   UNL     1      46.942   8.185  13.056  0.00  0.00    +0.000 C 
BRANCH   7  10
ATOM      8  C   UNL     1      48.456   6.952  14.528  0.00  0.00    +0.000 C 
ATOM      9  O   UNL     1      49.161   6.629  13.578  0.00  0.00    +0.000 OA
ATOM     10  N   UNL     1      47.368   7.789  14.378  0.00  0.00    +0.000 N 
ATOM     11  H   UNL     1      46.728   7.899  15.152  0.00  0.00    +0.000 HD
BRANCH   8  15
ATOM     12  C   UNL     1      50.190   6.800  19.202  0.00  0.00    +0.000 C 
ATOM     13  N   UNL     1      49.507   6.433  17.982  0.00  0.00    +0.000 N 
ATOM     14  C   UNL     1      49.413   7.201  16.855  0.00  0.00    +0.000 A 
ATOM     15  C   UNL     1      48.710   6.488  15.889  0.00  0.00    +0.000 A 
ATOM     16  C   UNL     1      48.356   5.224  16.491  0.00  0.00    +0.000 A 
ATOM     17  C   UNL     1      47.673   4.050  16.176  0.00  0.00    +0.000 A 
ATOM     18 CL   UNL     1      46.891   3.846  14.686  0.00  0.00    +0.000 Cl
ATOM     19  N   UNL     1      47.533   3.040  17.053  0.00  0.00    +0.000 NA
ATOM     20  C   UNL     1      48.090   3.203  18.258  0.00  0.00    +0.000 A 
ATOM     21  N   UNL     1      48.770   4.266  18.707  0.00  0.00    +0.000 NA
ATOM     22  C   UNL     1      48.869   5.240  17.786  0.00  0.00    +0.000 A 
ENDBRANCH   8  15
ENDBRANCH   7  10
ENDBRANCH   1   7
BRANCH   4  23
ATOM     23  O   UNL     1      43.891   4.150  10.594  0.00  0.00    +0.000 OA
BRANCH  23  24
ATOM     24  C   UNL     1      44.585   2.893  10.624  0.00  0.00    +0.000 C 
BRANCH  24  25
ATOM     25  C   UNL     1      44.288   2.100   9.353  0.00  0.00    +0.000 C 
BRANCH  25  26
ATOM     26  C   UNL     1      45.420   2.189   8.357  0.00  0.00    +0.000 A 
ATOM     27  C   UNL     1      46.301   1.115   8.156  0.00  0.00    +0.000 A 
ATOM     28  C   UNL     1      47.332   1.221   7.217  0.00  0.00    +0.000 A 
ATOM     29  C   UNL     1      47.479   2.389   6.479  0.00  0.00    +0.000 A 
ATOM     30  F   UNL     1      48.471   2.485   5.584  0.00  0.00    +0.000 F 
ATOM     31  C   UNL     1      46.611   3.457   6.650  0.00  0.00    +0.000 A 
ATOM     32  C   UNL     1      45.588   3.346   7.585  0.00  0.00    +0.000 A 
ATOM     33  F   UNL     1      44.741   4.374   7.737  0.00  0.00    +0.000 F 
ENDBRANCH  25  26
ENDBRANCH  24  25
ENDBRANCH  23  24
ENDBRANCH   4  23
TORSDOF 7
ENDMDL
MODEL 2
REMARK VINA RESULT:    -7.916      2.613      3.097
REMARK INTER + INTRA:         -12.591
REMARK INTER:                 -11.490
REMARK INTRA:                  -1.101
REMARK UNBOUND:                -1.436
REMARK  Name = 
REMARK  8 active torsions:
REMARK  status: ('A' for Active; 'I' for Inactive)
REMARK    1  A    between atoms: C_1  and  N_2
REMARK    2  A    between atoms: C_4  and  C_5
REMARK    3  A    between atoms: N_7  and  C_8
REMARK    4  A    between atoms: C_8  and  C_9
REMARK    5  A    between atoms: C_12  and  O_13
REMARK    6  A    between atoms: O_13  and  C_14
REMARK    7  A    between atoms: C_14  and  C_15
REMARK    8  A    between atoms: C_15  and  C_16
REMARK                            x       y       z     vdW  Elec       q    Type
REMARK                         _______ _______ _______ _____ _____    ______ ____
ROOT
ATOM      1  C   UNL     1      47.602   6.088  14.382  0.00  0.00    +0.000 A 
ATOM      2  C   UNL     1      47.393   6.668  13.126  0.00  0.00    +0.000 A 
ATOM      3  C   UNL     1      46.615   6.007  12.176  0.00  0.00    +0.000 A 
ATOM      4  C   UNL     1      46.035   4.799  12.532  0.00  0.00    +0.000 A 
ATOM      5  N   UNL     1      46.220   4.214  13.735  0.00  0.00    +0.000 NA
ATOM      6  C   UNL     1      46.997   4.863  14.625  0.00  0.00    +0.000 A 
ENDROOT
BRANCH   1   7
ATOM      7  C   UNL     1      48.448   6.755  15.423  0.00  0.00    +0.000 C 
BRANCH   7  10
ATOM      8  C   UNL     1      49.640   5.690  17.274  0.00  0.00    +0.000 C 
ATOM      9  O   UNL     1      48.834   6.136  18.085  0.00  0.00    +0.000 OA
ATOM     10  N   UNL     1      49.490   5.882  15.916  0.00  0.00    +0.000 N 
ATOM     11  H   UNL     1      50.254   5.638  15.302  0.00  0.00    +0.000 HD
BRANCH   8  15
ATOM     12  C   UNL     1      54.226   4.602  18.903  0.00  0.00    +0.000 C 
ATOM     13  N   UNL     1      52.881   4.449  18.399  0.00  0.00    +0.000 N 
ATOM     14  C   UNL     1      51.980   5.460  18.202  0.00  0.00    +0.000 A 
ATOM     15  C   UNL     1      50.812   4.917  17.675  0.00  0.00    +0.000 A 
ATOM     16  C   UNL     1      51.035   3.495  17.565  0.00  0.00    +0.000 A 
ATOM     17  C   UNL     1      50.364   2.341  17.163  0.00  0.00    +0.000 A 
ATOM     18 CL   UNL     1      48.751   2.383  16.646  0.00  0.00    +0.000 Cl
ATOM     19  N   UNL     1      50.928   1.122  17.223  0.00  0.00    +0.000 NA
ATOM     20  C   UNL     1      52.182   1.056  17.685  0.00  0.00    +0.000 A 
ATOM     21  N   UNL     1      52.950   2.068  18.109  0.00  0.00    +0.000 NA
ATOM     22  C   UNL     1      52.327   3.256  18.028  0.00  0.00    +0.000 A 
ENDBRANCH   8  15
ENDBRANCH   7  10
ENDBRANCH   1   7
BRANCH   4  23
ATOM     23  O   UNL     1      45.252   4.156  11.591  0.00  0.00    +0.000 OA
BRANCH  23  24
ATOM     24  C   UNL     1      44.886   5.051  10.529  0.00  0.00    +0.000 C 
BRANCH  24  25
ATOM     25  C   UNL     1      44.236   4.273   9.387  0.00  0.00    +0.000 C 
BRANCH  25  26
ATOM     26  C   UNL     1      45.249   3.465   8.610  0.00  0.00    +0.000 A 
ATOM     27  C   UNL     1      46.184   4.085   7.767  0.00  0.00    +0.000 A 
ATOM     28  C   UNL     1      47.120   3.314   7.071  0.00  0.00    +0.000 A 
ATOM     29  C   UNL     1      47.125   1.932   7.219  0.00  0.00    +0.000 A 
ATOM     30  F   UNL     1      48.021   1.198   6.545  0.00  0.00    +0.000 F 
ATOM     31  C   UNL     1      46.219   1.299   8.058  0.00  0.00    +0.000 A 
ATOM     32  C   UNL     1      45.292   2.072   8.748  0.00  0.00    +0.000 A 
ATOM     33  F   UNL     1      44.428   1.459   9.570  0.00  0.00    +0.000 F 
ENDBRANCH  25  26
ENDBRANCH  24  25
ENDBRANCH  23  24
ENDBRANCH   4  23
TORSDOF 7
ENDMDL
MODEL 3
REMARK VINA RESULT:    -7.824      2.062      2.894
REMARK INTER + INTRA:         -12.462
REMARK INTER:                 -11.489
REMARK INTRA:                  -0.973
REMARK UNBOUND:                -1.436
REMARK  Name = 
REMARK  8 active torsions:
REMARK  status: ('A' for Active; 'I' for Inactive)
REMARK    1  A    between atoms: C_1  and  N_2
REMARK    2  A    between atoms: C_4  and  C_5
REMARK    3  A    between atoms: N_7  and  C_8
REMARK    4  A    between atoms: C_8  and  C_9
REMARK    5  A    between atoms: C_12  and  O_13
REMARK    6  A    between atoms: O_13  and  C_14
REMARK    7  A    between atoms: C_14  and  C_15
REMARK    8  A    between atoms: C_15  and  C_16
REMARK                            x       y       z     vdW  Elec       q    Type
REMARK                         _______ _______ _______ _____ _____    ______ ____
ROOT
ATOM      1  C   UNL     1      46.727   5.903  12.693  0.00  0.00    +0.000 A 
ATOM      2  C   UNL     1      46.203   4.797  13.372  0.00  0.00    +0.000 A 
ATOM      3  C   UNL     1      45.264   3.978  12.747  0.00  0.00    +0.000 A 
ATOM      4  C   UNL     1      44.906   4.273  11.440  0.00  0.00    +0.000 A 
ATOM      5  N   UNL     1      45.392   5.333  10.760  0.00  0.00    +0.000 NA
ATOM      6  C   UNL     1      46.281   6.123  11.398  0.00  0.00    +0.000 A 
ENDROOT
BRANCH   1   7
ATOM      7  C   UNL     1      47.722   6.820  13.336  0.00  0.00    +0.000 C 
BRANCH   7  10
ATOM      8  C   UNL     1      48.892   6.671  15.479  0.00  0.00    +0.000 C 
ATOM      9  O   UNL     1      49.975   6.849  14.931  0.00  0.00    +0.000 OA
ATOM     10  N   UNL     1      47.704   6.715  14.777  0.00  0.00    +0.000 N 
ATOM     11  H   UNL     1      46.857   6.407  15.234  0.00  0.00    +0.000 HD
BRANCH   8  15
ATOM     12  C   UNL     1      48.795   4.223  19.823  0.00  0.00    +0.000 C 
ATOM     13  N   UNL     1      48.719   5.289  18.850  0.00  0.00    +0.000 N 
ATOM     14  C   UNL     1      48.988   5.175  17.514  0.00  0.00    +0.000 A 
ATOM     15  C   UNL     1      48.768   6.409  16.909  0.00  0.00    +0.000 A 
ATOM     16  C   UNL     1      48.356   7.311  17.959  0.00  0.00    +0.000 A 
ATOM     17  C   UNL     1      47.994   8.646  18.133  0.00  0.00    +0.000 A 
ATOM     18 CL   UNL     1      48.024   9.752  16.849  0.00  0.00    +0.000 Cl
ATOM     19  N   UNL     1      47.668   9.153  19.335  0.00  0.00    +0.000 NA
ATOM     20  C   UNL     1      47.696   8.313  20.376  0.00  0.00    +0.000 A 
ATOM     21  N   UNL     1      48.024   7.014  20.368  0.00  0.00    +0.000 NA
ATOM     22  C   UNL     1      48.344   6.572  19.140  0.00  0.00    +0.000 A 
ENDBRANCH   8  15
ENDBRANCH   7  10
ENDBRANCH   1   7
BRANCH   4  23
ATOM     23  O   UNL     1      43.986   3.449  10.820  0.00  0.00    +0.000 OA
BRANCH  23  24
ATOM     24  C   UNL     1      44.308   3.269   9.432  0.00  0.00    +0.000 C 
BRANCH  24  25
ATOM     25  C   UNL     1      45.296   2.117   9.268  0.00  0.00    +0.000 C 
BRANCH  25  26
ATOM     26  C   UNL     1      46.045   2.201   7.959  0.00  0.00    +0.000 A 
ATOM     27  C   UNL     1      46.146   3.410   7.252  0.00  0.00    +0.000 A 
ATOM     28  C   UNL     1      46.858   3.462   6.051  0.00  0.00    +0.000 A 
ATOM     29  C   UNL     1      47.471   2.316   5.558  0.00  0.00    +0.000 A 
ATOM     30  F   UNL     1      48.147   2.371   4.403  0.00  0.00    +0.000 F 
ATOM     31  C   UNL     1      47.397   1.113   6.247  0.00  0.00    +0.000 A 
ATOM     32  C   UNL     1      46.688   1.069   7.442  0.00  0.00    +0.000 A 
ATOM     33  F   UNL     1      46.632  -0.091   8.113  0.00  0.00    +0.000 F 
ENDBRANCH  25  26
ENDBRANCH  24  25
ENDBRANCH  23  24
ENDBRANCH   4  23
TORSDOF 7
ENDMDL
MODEL 4
REMARK VINA RESULT:    -7.747      2.158      2.851
REMARK INTER + INTRA:         -12.354
REMARK INTER:                 -10.998
REMARK INTRA:                  -1.356
REMARK UNBOUND:                -1.436
REMARK  Name = 
REMARK  8 active torsions:
REMARK  status: ('A' for Active; 'I' for Inactive)
REMARK    1  A    between atoms: C_1  and  N_2
REMARK    2  A    between atoms: C_4  and  C_5
REMARK    3  A    between atoms: N_7  and  C_8
REMARK    4  A    between atoms: C_8  and  C_9
REMARK    5  A    between atoms: C_12  and  O_13
REMARK    6  A    between atoms: O_13  and  C_14
REMARK    7  A    between atoms: C_14  and  C_15
REMARK    8  A    between atoms: C_15  and  C_16
REMARK                            x       y       z     vdW  Elec       q    Type
REMARK                         _______ _______ _______ _____ _____    ______ ____
ROOT
ATOM      1  C   UNL     1      47.019   6.134  13.451  0.00  0.00    +0.000 A 
ATOM      2  C   UNL     1      45.906   6.822  12.955  0.00  0.00    +0.000 A 
ATOM      3  C   UNL     1      44.696   6.151  12.778  0.00  0.00    +0.000 A 
ATOM      4  C   UNL     1      44.630   4.815  13.142  0.00  0.00    +0.000 A 
ATOM      5  N   UNL     1      45.686   4.124  13.622  0.00  0.00    +0.000 NA
ATOM      6  C   UNL     1      46.850   4.792  13.759  0.00  0.00    +0.000 A 
ENDROOT
BRANCH   1   7
ATOM      7  C   UNL     1      48.341   6.812  13.637  0.00  0.00    +0.000 C 
BRANCH   7  10
ATOM      8  C   UNL     1      48.996   6.888  15.992  0.00  0.00    +0.000 C 
ATOM      9  O   UNL     1      49.563   5.804  15.898  0.00  0.00    +0.000 OA
ATOM     10  N   UNL     1      48.422   7.508  14.901  0.00  0.00    +0.000 N 
ATOM     11  H   UNL     1      47.832   8.314  15.053  0.00  0.00    +0.000 HD
BRANCH   8  15
ATOM     12  C   UNL     1      49.587  10.433  19.449  0.00  0.00    +0.000 C 
ATOM     13  N   UNL     1      49.175   9.210  18.799  0.00  0.00    +0.000 N 
ATOM     14  C   UNL     1      49.409   8.880  17.492  0.00  0.00    +0.000 A 
ATOM     15  C   UNL     1      48.889   7.611  17.255  0.00  0.00    +0.000 A 
ATOM     16  C   UNL     1      48.299   7.172  18.498  0.00  0.00    +0.000 A 
ATOM     17  C   UNL     1      47.609   6.079  19.020  0.00  0.00    +0.000 A 
ATOM     18 CL   UNL     1      47.177   4.754  18.056  0.00  0.00    +0.000 Cl
ATOM     19  N   UNL     1      47.185   6.037  20.296  0.00  0.00    +0.000 NA
ATOM     20  C   UNL     1      47.461   7.099  21.062  0.00  0.00    +0.000 A 
ATOM     21  N   UNL     1      48.108   8.216  20.706  0.00  0.00    +0.000 NA
ATOM     22  C   UNL     1      48.499   8.197  19.420  0.00  0.00    +0.000 A 
ENDBRANCH   8  15
ENDBRANCH   7  10
ENDBRANCH   1   7
BRANCH   4  23
ATOM     23  O   UNL     1      43.424   4.159  12.978  0.00  0.00    +0.000 OA
BRANCH  23  24
ATOM     24  C   UNL     1      43.051   4.108  11.592  0.00  0.00    +0.000 C 
BRANCH  24  25
ATOM     25  C   UNL     1      43.646   2.865  10.934  0.00  0.00    +0.000 C 
BRANCH  25  26
ATOM     26  C   UNL     1      44.546   3.219   9.775  0.00  0.00    +0.000 A 
ATOM     27  C   UNL     1      45.034   4.524   9.602  0.00  0.00    +0.000 A 
ATOM     28  C   UNL     1      45.879   4.819   8.528  0.00  0.00    +0.000 A 
ATOM     29  C   UNL     1      46.239   3.818   7.634  0.00  0.00    +0.000 A 
ATOM     30  F   UNL     1      47.044   4.110   6.604  0.00  0.00    +0.000 F 
ATOM     31  C   UNL     1      45.781   2.518   7.794  0.00  0.00    +0.000 A 
ATOM     32  C   UNL     1      44.942   2.230   8.865  0.00  0.00    +0.000 A 
ATOM     33  F   UNL     1      44.514   0.970   9.025  0.00  0.00    +0.000 F 
ENDBRANCH  25  26
ENDBRANCH  24  25
ENDBRANCH  23  24
ENDBRANCH   4  23
TORSDOF 7
ENDMDL
MODEL 5
REMARK VINA RESULT:    -7.583      1.718      2.005
REMARK INTER + INTRA:         -12.123
REMARK INTER:                 -11.002
REMARK INTRA:                  -1.120
REMARK UNBOUND:                -1.436
REMARK  Name = 
REMARK  8 active torsions:
REMARK  status: ('A' for Active; 'I' for Inactive)
REMARK    1  A    between atoms: C_1  and  N_2
REMARK    2  A    between atoms: C_4  and  C_5
REMARK    3  A    between atoms: N_7  and  C_8
REMARK    4  A    between atoms: C_8  and  C_9
REMARK    5  A    between atoms: C_12  and  O_13
REMARK    6  A    between atoms: O_13  and  C_14
REMARK    7  A    between atoms: C_14  and  C_15
REMARK    8  A    between atoms: C_15  and  C_16
REMARK                            x       y       z     vdW  Elec       q    Type
REMARK                         _______ _______ _______ _____ _____    ______ ____
ROOT
ATOM      1  C   UNL     1      47.412   6.386  13.252  0.00  0.00    +0.000 A 
ATOM      2  C   UNL     1      46.705   6.924  12.170  0.00  0.00    +0.000 A 
ATOM      3  C   UNL     1      45.687   6.185  11.568  0.00  0.00    +0.000 A 
ATOM      4  C   UNL     1      45.382   4.940  12.098  0.00  0.00    +0.000 A 
ATOM      5  N   UNL     1      46.047   4.395  13.139  0.00  0.00    +0.000 NA
ATOM      6  C   UNL     1      47.043   5.121  13.685  0.00  0.00    +0.000 A 
ENDROOT
BRANCH   1   7
ATOM      7  C   UNL     1      48.526   7.139  13.912  0.00  0.00    +0.000 C 
BRANCH   7  10
ATOM      8  C   UNL     1      49.203   6.862  16.246  0.00  0.00    +0.000 C 
ATOM      9  O   UNL     1      50.285   6.395  15.906  0.00  0.00    +0.000 OA
ATOM     10  N   UNL     1      48.288   7.331  15.325  0.00  0.00    +0.000 N 
ATOM     11  H   UNL     1      47.354   7.556  15.636  0.00  0.00    +0.000 HD
BRANCH   8  15
ATOM     12  C   UNL     1      47.770   8.840  20.595  0.00  0.00    +0.000 C 
ATOM     13  N   UNL     1      48.164   7.876  19.593  0.00  0.00    +0.000 N 
ATOM     14  C   UNL     1      48.412   8.146  18.275  0.00  0.00    +0.000 A 
ATOM     15  C   UNL     1      48.797   6.967  17.645  0.00  0.00    +0.000 A 
ATOM     16  C   UNL     1      48.762   5.933  18.652  0.00  0.00    +0.000 A 
ATOM     17  C   UNL     1      48.988   4.564  18.780  0.00  0.00    +0.000 A 
ATOM     18 CL   UNL     1      49.398   3.600  17.448  0.00  0.00    +0.000 Cl
ATOM     19  N   UNL     1      48.830   3.913  19.946  0.00  0.00    +0.000 NA
ATOM     20  C   UNL     1      48.447   4.642  21.001  0.00  0.00    +0.000 A 
ATOM     21  N   UNL     1      48.190   5.957  21.035  0.00  0.00    +0.000 NA
ATOM     22  C   UNL     1      48.362   6.545  19.838  0.00  0.00    +0.000 A 
ENDBRANCH   8  15
ENDBRANCH   7  10
ENDBRANCH   1   7
BRANCH   4  23
ATOM     23  O   UNL     1      44.362   4.219  11.507  0.00  0.00    +0.000 OA
BRANCH  23  24
ATOM     24  C   UNL     1      44.807   2.904  11.141  0.00  0.00    +0.000 C 
BRANCH  24  25
ATOM     25  C   UNL     1      44.282   2.539   9.754  0.00  0.00    +0.000 C 
BRANCH  25  26
ATOM     26  C   UNL     1      45.390   2.486   8.729  0.00  0.00    +0.000 A 
ATOM     27  C   UNL     1      46.021   1.277   8.398  0.00  0.00    +0.000 A 
ATOM     28  C   UNL     1      47.033   1.255   7.435  0.00  0.00    +0.000 A 
ATOM     29  C   UNL     1      47.412   2.433   6.801  0.00  0.00    +0.000 A 
ATOM     30  F   UNL     1      48.387   2.407   5.883  0.00  0.00    +0.000 F 
ATOM     31  C   UNL     1      46.792   3.638   7.102  0.00  0.00    +0.000 A 
ATOM     32  C   UNL     1      45.784   3.652   8.060  0.00  0.00    +0.000 A 
ATOM     33  F   UNL     1      45.177   4.814   8.337  0.00  0.00    +0.000 F 
ENDBRANCH  25  26
ENDBRANCH  24  25
ENDBRANCH  23  24
ENDBRANCH   4  23
TORSDOF 7
ENDMDL
MODEL 6
REMARK VINA RESULT:    -6.952      2.663      3.748
REMARK INTER + INTRA:         -11.233
REMARK INTER:                 -10.240
REMARK INTRA:                  -0.993
REMARK UNBOUND:                -1.436
REMARK  Name = 
REMARK  8 active torsions:
REMARK  status: ('A' for Active; 'I' for Inactive)
REMARK    1  A    between atoms: C_1  and  N_2
REMARK    2  A    between atoms: C_4  and  C_5
REMARK    3  A    between atoms: N_7  and  C_8
REMARK    4  A    between atoms: C_8  and  C_9
REMARK    5  A    between atoms: C_12  and  O_13
REMARK    6  A    between atoms: O_13  and  C_14
REMARK    7  A    between atoms: C_14  and  C_15
REMARK    8  A    between atoms: C_15  and  C_16
REMARK                            x       y       z     vdW  Elec       q    Type
REMARK                         _______ _______ _______ _____ _____    ______ ____
ROOT
ATOM      1  C   UNL     1      47.005   4.662  14.607  0.00  0.00    +0.000 A 
ATOM      2  C   UNL     1      47.250   5.831  13.878  0.00  0.00    +0.000 A 
ATOM      3  C   UNL     1      46.503   6.106  12.734  0.00  0.00    +0.000 A 
ATOM      4  C   UNL     1      45.502   5.215  12.377  0.00  0.00    +0.000 A 
ATOM      5  N   UNL     1      45.243   4.079  13.058  0.00  0.00    +0.000 NA
ATOM      6  C   UNL     1      45.998   3.826  14.147  0.00  0.00    +0.000 A 
ENDROOT
BRANCH   1   7
ATOM      7  C   UNL     1      47.800   4.319  15.830  0.00  0.00    +0.000 C 
BRANCH   7  10
ATOM      8  C   UNL     1      48.531   5.990  17.459  0.00  0.00    +0.000 C 
ATOM      9  O   UNL     1      49.644   6.042  16.947  0.00  0.00    +0.000 OA
ATOM     10  N   UNL     1      47.519   5.215  16.928  0.00  0.00    +0.000 N 
ATOM     11  H   UNL     1      46.676   5.078  17.468  0.00  0.00    +0.000 HD
BRANCH   8  15
ATOM     12  C   UNL     1      47.392   7.015  22.205  0.00  0.00    +0.000 C 
ATOM     13  N   UNL     1      47.662   7.181  20.795  0.00  0.00    +0.000 N 
ATOM     14  C   UNL     1      48.061   6.196  19.934  0.00  0.00    +0.000 A 
ATOM     15  C   UNL     1      48.183   6.743  18.660  0.00  0.00    +0.000 A 
ATOM     16  C   UNL     1      47.847   8.142  18.781  0.00  0.00    +0.000 A 
ATOM     17  C   UNL     1      47.758   9.287  17.991  0.00  0.00    +0.000 A 
ATOM     18 CL   UNL     1      48.176   9.270  16.349  0.00  0.00    +0.000 Cl
ATOM     19  N   UNL     1      47.404  10.483  18.493  0.00  0.00    +0.000 NA
ATOM     20  C   UNL     1      47.127  10.534  19.801  0.00  0.00    +0.000 A 
ATOM     21  N   UNL     1      47.170   9.528  20.684  0.00  0.00    +0.000 NA
ATOM     22  C   UNL     1      47.536   8.364  20.121  0.00  0.00    +0.000 A 
ENDBRANCH   8  15
ENDBRANCH   7  10
ENDBRANCH   1   7
BRANCH   4  23
ATOM     23  O   UNL     1      44.754   5.502  11.250  0.00  0.00    +0.000 OA
BRANCH  23  24
ATOM     24  C   UNL     1      45.540   5.345  10.058  0.00  0.00    +0.000 C 
BRANCH  24  25
ATOM     25  C   UNL     1      44.732   4.611   8.989  0.00  0.00    +0.000 C 
BRANCH  25  26
ATOM     26  C   UNL     1      45.552   3.552   8.293  0.00  0.00    +0.000 A 
ATOM     27  C   UNL     1      46.453   3.883   7.268  0.00  0.00    +0.000 A 
ATOM     28  C   UNL     1      47.211   2.883   6.651  0.00  0.00    +0.000 A 
ATOM     29  C   UNL     1      47.075   1.561   7.057  0.00  0.00    +0.000 A 
ATOM     30  F   UNL     1      47.800   0.607   6.459  0.00  0.00    +0.000 F 
ATOM     31  C   UNL     1      46.202   1.213   8.078  0.00  0.00    +0.000 A 
ATOM     32  C   UNL     1      45.452   2.212   8.689  0.00  0.00    +0.000 A 
ATOM     33  F   UNL     1      44.621   1.874   9.685  0.00  0.00    +0.000 F 
ENDBRANCH  25  26
ENDBRANCH  24  25
ENDBRANCH  23  24
ENDBRANCH   4  23
TORSDOF 7
ENDMDL
MODEL 7
REMARK VINA RESULT:    -6.749      1.940      2.389
REMARK INTER + INTRA:         -10.946
REMARK INTER:                  -9.656
REMARK INTRA:                  -1.291
REMARK UNBOUND:                -1.436
REMARK  Name = 
REMARK  8 active torsions:
REMARK  status: ('A' for Active; 'I' for Inactive)
REMARK    1  A    between atoms: C_1  and  N_2
REMARK    2  A    between atoms: C_4  and  C_5
REMARK    3  A    between atoms: N_7  and  C_8
REMARK    4  A    between atoms: C_8  and  C_9
REMARK    5  A    between atoms: C_12  and  O_13
REMARK    6  A    between atoms: O_13  and  C_14
REMARK    7  A    between atoms: C_14  and  C_15
REMARK    8  A    between atoms: C_15  and  C_16
REMARK                            x       y       z     vdW  Elec       q    Type
REMARK                         _______ _______ _______ _____ _____    ______ ____
ROOT
ATOM      1  C   UNL     1      46.512   7.659  12.226  0.00  0.00    +0.000 A 
ATOM      2  C   UNL     1      47.002   6.574  11.490  0.00  0.00    +0.000 A 
ATOM      3  C   UNL     1      46.160   5.506  11.182  0.00  0.00    +0.000 A 
ATOM      4  C   UNL     1      44.837   5.578  11.591  0.00  0.00    +0.000 A 
ATOM      5  N   UNL     1      44.336   6.609  12.303  0.00  0.00    +0.000 NA
ATOM      6  C   UNL     1      45.179   7.617  12.608  0.00  0.00    +0.000 A 
ENDROOT
BRANCH   1   7
ATOM      7  C   UNL     1      47.388   8.816  12.595  0.00  0.00    +0.000 C 
BRANCH   7  10
ATOM      8  C   UNL     1      48.745   8.639  14.623  0.00  0.00    +0.000 C 
ATOM      9  O   UNL     1      47.835   9.100  15.305  0.00  0.00    +0.000 OA
ATOM     10  N   UNL     1      48.591   8.390  13.274  0.00  0.00    +0.000 N 
ATOM     11  H   UNL     1      49.408   8.164  12.724  0.00  0.00    +0.000 HD
BRANCH   8  15
ATOM     12  C   UNL     1      53.606   8.927  15.702  0.00  0.00    +0.000 C 
ATOM     13  N   UNL     1      52.242   8.452  15.643  0.00  0.00    +0.000 N 
ATOM     14  C   UNL     1      51.192   9.103  15.057  0.00  0.00    +0.000 A 
ATOM     15  C   UNL     1      50.054   8.311  15.178  0.00  0.00    +0.000 A 
ATOM     16  C   UNL     1      50.458   7.123  15.893  0.00  0.00    +0.000 A 
ATOM     17  C   UNL     1      49.909   5.938  16.383  0.00  0.00    +0.000 A 
ATOM     18 CL   UNL     1      48.254   5.601  16.249  0.00  0.00    +0.000 Cl
ATOM     19  N   UNL     1      50.641   5.027  17.048  0.00  0.00    +0.000 NA
ATOM     20  C   UNL     1      51.940   5.299  17.219  0.00  0.00    +0.000 A 
ATOM     21  N   UNL     1      52.606   6.387  16.813  0.00  0.00    +0.000 NA
ATOM     22  C   UNL     1      51.818   7.259  16.161  0.00  0.00    +0.000 A 
ENDBRANCH   8  15
ENDBRANCH   7  10
ENDBRANCH   1   7
BRANCH   4  23
ATOM     23  O   UNL     1      44.004   4.523  11.269  0.00  0.00    +0.000 OA
BRANCH  23  24
ATOM     24  C   UNL     1      44.757   3.318  11.059  0.00  0.00    +0.000 C 
BRANCH  24  25
ATOM     25  C   UNL     1      44.265   2.604   9.801  0.00  0.00    +0.000 C 
BRANCH  25  26
ATOM     26  C   UNL     1      45.335   2.538   8.738  0.00  0.00    +0.000 A 
ATOM     27  C   UNL     1      45.991   1.334   8.436  0.00  0.00    +0.000 A 
ATOM     28  C   UNL     1      46.967   1.299   7.436  0.00  0.00    +0.000 A 
ATOM     29  C   UNL     1      47.285   2.457   6.738  0.00  0.00    +0.000 A 
ATOM     30  F   UNL     1      48.225   2.418   5.784  0.00  0.00    +0.000 F 
ATOM     31  C   UNL     1      46.640   3.656   7.009  0.00  0.00    +0.000 A 
ATOM     32  C   UNL     1      45.669   3.683   8.003  0.00  0.00    +0.000 A 
ATOM     33  F   UNL     1      45.037   4.839   8.253  0.00  0.00    +0.000 F 
ENDBRANCH  25  26
ENDBRANCH  24  25
ENDBRANCH  23  24
ENDBRANCH   4  23
TORSDOF 7
ENDMDL
MODEL 8
REMARK VINA RESULT:    -6.509      4.474      9.468
REMARK INTER + INTRA:         -10.609
REMARK INTER:                  -8.677
REMARK INTRA:                  -1.932
REMARK UNBOUND:                -1.436
REMARK  Name = 
REMARK  8 active torsions:
REMARK  status: ('A' for Active; 'I' for Inactive)
REMARK    1  A    between atoms: C_1  and  N_2
REMARK    2  A    between atoms: C_4  and  C_5
REMARK    3  A    between atoms: N_7  and  C_8
REMARK    4  A    between atoms: C_8  and  C_9
REMARK    5  A    between atoms: C_12  and  O_13
REMARK    6  A    between atoms: O_13  and  C_14
REMARK    7  A    between atoms: C_14  and  C_15
REMARK    8  A    between atoms: C_15  and  C_16
REMARK                            x       y       z     vdW  Elec       q    Type
REMARK                         _______ _______ _______ _____ _____    ______ ____
ROOT
ATOM      1  C   UNL     1      48.048   4.279  17.701  0.00  0.00    +0.000 A 
ATOM      2  C   UNL     1      47.179   5.195  18.306  0.00  0.00    +0.000 A 
ATOM      3  C   UNL     1      47.561   5.843  19.481  0.00  0.00    +0.000 A 
ATOM      4  C   UNL     1      48.822   5.580  19.992  0.00  0.00    +0.000 A 
ATOM      5  N   UNL     1      49.680   4.701  19.433  0.00  0.00    +0.000 NA
ATOM      6  C   UNL     1      49.276   4.070  18.311  0.00  0.00    +0.000 A 
ENDROOT
BRANCH   1   7
ATOM      7  C   UNL     1      47.669   3.547  16.451  0.00  0.00    +0.000 C 
BRANCH   7  10
ATOM      8  C   UNL     1      46.663   4.056  14.280  0.00  0.00    +0.000 C 
ATOM      9  O   UNL     1      47.252   3.117  13.756  0.00  0.00    +0.000 OA
ATOM     10  N   UNL     1      46.749   4.306  15.635  0.00  0.00    +0.000 N 
ATOM     11  H   UNL     1      46.381   5.176  15.994  0.00  0.00    +0.000 HD
BRANCH   8  15
ATOM     12  C   UNL     1      42.866   5.813  11.565  0.00  0.00    +0.000 C 
ATOM     13  N   UNL     1      44.112   5.746  12.294  0.00  0.00    +0.000 N 
ATOM     14  C   UNL     1      44.575   4.664  12.990  0.00  0.00    +0.000 A 
ATOM     15  C   UNL     1      45.822   4.978  13.522  0.00  0.00    +0.000 A 
ATOM     16  C   UNL     1      46.105   6.338  13.125  0.00  0.00    +0.000 A 
ATOM     17  C   UNL     1      47.097   7.306  13.278  0.00  0.00    +0.000 A 
ATOM     18 CL   UNL     1      48.471   7.031  14.230  0.00  0.00    +0.000 Cl
ATOM     19  N   UNL     1      46.994   8.533  12.739  0.00  0.00    +0.000 NA
ATOM     20  C   UNL     1      45.888   8.795  12.033  0.00  0.00    +0.000 A 
ATOM     21  N   UNL     1      44.854   7.975  11.801  0.00  0.00    +0.000 NA
ATOM     22  C   UNL     1      45.017   6.769  12.370  0.00  0.00    +0.000 A 
ENDBRANCH   8  15
ENDBRANCH   7  10
ENDBRANCH   1   7
BRANCH   4  23
ATOM     23  O   UNL     1      49.200   6.237  21.149  0.00  0.00    +0.000 OA
BRANCH  23  24
ATOM     24  C   UNL     1      48.507   7.488  21.279  0.00  0.00    +0.000 C 
BRANCH  24  25
ATOM     25  C   UNL     1      49.402   8.635  20.813  0.00  0.00    +0.000 C 
BRANCH  25  26
ATOM     26  C   UNL     1      49.134   9.007  19.374  0.00  0.00    +0.000 A 
ATOM     27  C   UNL     1      48.085   9.873  19.027  0.00  0.00    +0.000 A 
ATOM     28  C   UNL     1      47.869  10.213  17.689  0.00  0.00    +0.000 A 
ATOM     29  C   UNL     1      48.698   9.695  16.701  0.00  0.00    +0.000 A 
ATOM     30  F   UNL     1      48.483  10.020  15.419  0.00  0.00    +0.000 F 
ATOM     31  C   UNL     1      49.750   8.849  17.021  0.00  0.00    +0.000 A 
ATOM     32  C   UNL     1      49.960   8.516  18.355  0.00  0.00    +0.000 A 
ATOM     33  F   UNL     1      50.986   7.710  18.663  0.00  0.00    +0.000 F 
ENDBRANCH  25  26
ENDBRANCH  24  25
ENDBRANCH  23  24
ENDBRANCH   4  23
TORSDOF 7
ENDMDL
MODEL 9
REMARK VINA RESULT:    -6.318      2.402      2.828
REMARK INTER + INTRA:         -10.340
REMARK INTER:                  -9.302
REMARK INTRA:                  -1.038
REMARK UNBOUND:                -1.436
REMARK  Name = 
REMARK  8 active torsions:
REMARK  status: ('A' for Active; 'I' for Inactive)
REMARK    1  A    between atoms: C_1  and  N_2
REMARK    2  A    between atoms: C_4  and  C_5
REMARK    3  A    between atoms: N_7  and  C_8
REMARK    4  A    between atoms: C_8  and  C_9
REMARK    5  A    between atoms: C_12  and  O_13
REMARK    6  A    between atoms: O_13  and  C_14
REMARK    7  A    between atoms: C_14  and  C_15
REMARK    8  A    between atoms: C_15  and  C_16
REMARK                            x       y       z     vdW  Elec       q    Type
REMARK                         _______ _______ _______ _____ _____    ______ ____
ROOT
ATOM      1  C   UNL     1      47.596   8.044  12.835  0.00  0.00    +0.000 A 
ATOM      2  C   UNL     1      47.777   6.924  12.016  0.00  0.00    +0.000 A 
ATOM      3  C   UNL     1      46.676   6.323  11.406  0.00  0.00    +0.000 A 
ATOM      4  C   UNL     1      45.427   6.892  11.607  0.00  0.00    +0.000 A 
ATOM      5  N   UNL     1      45.221   7.971  12.392  0.00  0.00    +0.000 NA
ATOM      6  C   UNL     1      46.301   8.516  12.989  0.00  0.00    +0.000 A 
ENDROOT
BRANCH   1   7
ATOM      7  C   UNL     1      48.750   8.706  13.524  0.00  0.00    +0.000 C 
BRANCH   7  10
ATOM      8  C   UNL     1      50.301   8.383  15.387  0.00  0.00    +0.000 C 
ATOM      9  O   UNL     1      50.769   9.505  15.227  0.00  0.00    +0.000 OA
ATOM     10  N   UNL     1      49.239   7.922  14.635  0.00  0.00    +0.000 N 
ATOM     11  H   UNL     1      48.992   6.944  14.690  0.00  0.00    +0.000 HD
BRANCH   8  15
ATOM     12  C   UNL     1      53.165   4.925  17.557  0.00  0.00    +0.000 C 
ATOM     13  N   UNL     1      52.111   5.888  17.338  0.00  0.00    +0.000 N 
ATOM     14  C   UNL     1      51.973   6.689  16.238  0.00  0.00    +0.000 A 
ATOM     15  C   UNL     1      50.818   7.450  16.384  0.00  0.00    +0.000 A 
ATOM     16  C   UNL     1      50.245   7.084  17.658  0.00  0.00    +0.000 A 
ATOM     17  C   UNL     1      49.156   7.406  18.467  0.00  0.00    +0.000 A 
ATOM     18 CL   UNL     1      48.054   8.619  18.036  0.00  0.00    +0.000 Cl
ATOM     19  N   UNL     1      48.952   6.827  19.663  0.00  0.00    +0.000 NA
ATOM     20  C   UNL     1      49.843   5.908  20.053  0.00  0.00    +0.000 A 
ATOM     21  N   UNL     1      50.933   5.497  19.393  0.00  0.00    +0.000 NA
ATOM     22  C   UNL     1      51.082   6.117  18.210  0.00  0.00    +0.000 A 
ENDBRANCH   8  15
ENDBRANCH   7  10
ENDBRANCH   1   7
BRANCH   4  23
ATOM     23  O   UNL     1      44.341   6.301  10.987  0.00  0.00    +0.000 OA
BRANCH  23  24
ATOM     24  C   UNL     1      44.472   4.871  10.975  0.00  0.00    +0.000 C 
BRANCH  24  25
ATOM     25  C   UNL     1      43.914   4.304   9.671  0.00  0.00    +0.000 C 
BRANCH  25  26
ATOM     26  C   UNL     1      44.986   3.633   8.846  0.00  0.00    +0.000 A 
ATOM     27  C   UNL     1      45.871   4.379   8.052  0.00  0.00    +0.000 A 
ATOM     28  C   UNL     1      46.863   3.732   7.310  0.00  0.00    +0.000 A 
ATOM     29  C   UNL     1      46.976   2.348   7.364  0.00  0.00    +0.000 A 
ATOM     30  F   UNL     1      47.926   1.734   6.646  0.00  0.00    +0.000 F 
ATOM     31  C   UNL     1      46.122   1.591   8.153  0.00  0.00    +0.000 A 
ATOM     32  C   UNL     1      45.138   2.241   8.889  0.00  0.00    +0.000 A 
ATOM     33  F   UNL     1      44.324   1.508   9.663  0.00  0.00    +0.000 F 
ENDBRANCH  25  26
ENDBRANCH  24  25
ENDBRANCH  23  24
ENDBRANCH   4  23
TORSDOF 7
ENDMDL
