MODEL 1
REMARK VINA RESULT:    -7.696      0.000      0.000
REMARK INTER + INTRA:         -11.963
REMARK INTER:                 -10.846
REMARK INTRA:                  -1.117
REMARK UNBOUND:                -1.117
REMARK  Name = 
REMARK  7 active torsions:
REMARK  status: ('A' for Active; 'I' for Inactive)
REMARK    1  A    between atoms: C_2  and  C_20
REMARK    2  A    between atoms: N_3  and  C_4
REMARK    3  A    between atoms: C_4  and  C_5
REMARK    4  A    between atoms: C_8  and  C_9
REMARK    5  A    between atoms: C_9  and  O_10
REMARK    6  A    between atoms: O_10  and  C_11
REMARK    7  A    between atoms: C_11  and  C_12
REMARK                            x       y       z     vdW  Elec       q    Type
REMARK                         _______ _______ _______ _____ _____    ______ ____
ROOT
ATOM      1  C   UNL     1      48.289   6.732  13.160  0.00  0.00    +0.000 C 
ENDROOT
BRANCH   1   2
ATOM      2  C   UNL     1      47.046   6.172  12.534  0.00  0.00    +0.000 A 
ATOM      3  C   UNL     1      46.649   6.526  11.243  0.00  0.00    +0.000 A 
ATOM      4  C   UNL     1      45.512   5.944  10.684  0.00  0.00    +0.000 A 
ATOM      5  C   UNL     1      44.806   5.005  11.430  0.00  0.00    +0.000 A 
ATOM      6  N   UNL     1      45.190   4.623  12.672  0.00  0.00    +0.000 NA
ATOM      7  C   UNL     1      46.291   5.209  13.194  0.00  0.00    +0.000 A 
BRANCH   5   8
ATOM      8  C   UNL     1      43.618   4.292  10.824  0.00  0.00    +0.000 C 
BRANCH   8   9
ATOM      9  O   UNL     1      43.907   3.758   9.526  0.00  0.00    +0.000 OA
BRANCH   9  10
ATOM     10  C   UNL     1      44.540   2.479   9.593  0.00  0.00    +0.000 C 
BRANCH  10  11
ATOM     11  C   UNL     1      45.597   2.389   8.520  0.00  0.00    +0.000 A 
ATOM     12  C   UNL     1      45.943   3.516   7.793  0.00  0.00    +0.000 A 
ATOM     13  C   UNL     1      46.920   3.349   6.840  0.00  0.00    +0.000 A 
ATOM     14  N   UNL     1      47.533   2.176   6.601  0.00  0.00    +0.000 NA
ATOM     15  C   UNL     1      47.133   1.148   7.362  0.00  0.00    +0.000 A 
ATOM     16  N   UNL     1      46.182   1.185   8.308  0.00  0.00    +0.000 NA
ENDBRANCH  10  11
ENDBRANCH   9  10
ENDBRANCH   8   9
ENDBRANCH   5   8
ENDBRANCH   1   2
BRANCH   1  19
ATOM     17  O   UNL     1      50.298   6.842  15.184  0.00  0.00    +0.000 OA
ATOM     18  C   UNL     1      49.113   6.859  15.481  0.00  0.00    +0.000 C 
ATOM     19  N   UNL     1      48.080   6.913  14.571  0.00  0.00    +0.000 N 
ATOM     20  H   UNL     1      47.156   6.689  14.905  0.00  0.00    +0.000 HD
BRANCH  18  21
ATOM     21  C   UNL     1      48.606   6.589  16.819  0.00  0.00    +0.000 A 
ATOM     22  C   UNL     1      48.484   7.569  17.788  0.00  0.00    +0.000 A 
ATOM     23  S   UNL     1      48.501   6.891  19.366  0.00  0.00    +0.000 S 
ATOM     24  C   UNL     1      48.494   5.301  18.746  0.00  0.00    +0.000 A 
ATOM     25  N   UNL     1      48.674   4.205  19.529  0.00  0.00    +0.000 NA
ATOM     26  C   UNL     1      48.587   3.079  18.891  0.00  0.00    +0.000 A 
ATOM     27  N   UNL     1      48.291   2.948  17.558  0.00  0.00    +0.000 N 
ATOM     28  C   UNL     1      48.105   4.031  16.726  0.00  0.00    +0.000 A 
ATOM     29  O   UNL     1      47.791   3.898  15.551  0.00  0.00    +0.000 OA
ATOM     30  C   UNL     1      48.323   5.296  17.373  0.00  0.00    +0.000 A 
ATOM     31  H   UNL     1      48.156   2.036  17.140  0.00  0.00    +0.000 HD
ENDBRANCH  18  21
ENDBRANCH   1  19
TORSDOF 7
ENDMDL
MODEL 2
REMARK VINA RESULT:    -7.630      1.258      1.602
REMARK INTER + INTRA:         -11.869
REMARK INTER:                 -10.571
REMARK INTRA:                  -1.298
REMARK UNBOUND:                -1.117
REMARK  Name = 
REMARK  7 active torsions:
REMARK  status: ('A' for Active; 'I' for Inactive)
REMARK    1  A    between atoms: C_2  and  C_20
REMARK    2  A    between atoms: N_3  and  C_4
REMARK    3  A    between atoms: C_4  and  C_5
REMARK    4  A    between atoms: C_8  and  C_9
REMARK    5  A    between atoms: C_9  and  O_10
REMARK    6  A    between atoms: O_10  and  C_11
REMARK    7  A    between atoms: C_11  and  C_12
REMARK                            x       y       z     vdW  Elec       q    Type
REMARK                         _______ _______ _______ _____ _____    ______ ____
ROOT
ATOM      1  C   UNL     1      47.029   8.186  12.861  0.00  0.00    +0.000 C 
ENDROOT
BRANCH   1   2
ATOM      2  C   UNL     1      46.162   7.044  12.418  0.00  0.00    +0.000 A 
ATOM      3  C   UNL     1      44.896   6.828  12.963  0.00  0.00    +0.000 A 
ATOM      4  C   UNL     1      44.107   5.781  12.487  0.00  0.00    +0.000 A 
ATOM      5  C   UNL     1      44.602   4.983  11.461  0.00  0.00    +0.000 A 
ATOM      6  N   UNL     1      45.816   5.194  10.895  0.00  0.00    +0.000 NA
ATOM      7  C   UNL     1      46.564   6.209  11.381  0.00  0.00    +0.000 A 
BRANCH   5   8
ATOM      8  C   UNL     1      43.741   3.894  10.863  0.00  0.00    +0.000 C 
BRANCH   8   9
ATOM      9  O   UNL     1      44.002   3.696   9.469  0.00  0.00    +0.000 OA
BRANCH   9  10
ATOM     10  C   UNL     1      44.431   2.364   9.181  0.00  0.00    +0.000 C 
BRANCH  10  11
ATOM     11  C   UNL     1      45.650   2.414   8.291  0.00  0.00    +0.000 A 
ATOM     12  C   UNL     1      46.362   1.255   8.029  0.00  0.00    +0.000 A 
ATOM     13  C   UNL     1      47.454   1.387   7.202  0.00  0.00    +0.000 A 
ATOM     14  N   UNL     1      47.837   2.554   6.657  0.00  0.00    +0.000 NA
ATOM     15  C   UNL     1      47.078   3.615   6.965  0.00  0.00    +0.000 A 
ATOM     16  N   UNL     1      46.003   3.613   7.769  0.00  0.00    +0.000 NA
ENDBRANCH  10  11
ENDBRANCH   9  10
ENDBRANCH   8   9
ENDBRANCH   5   8
ENDBRANCH   1   2
BRANCH   1  19
ATOM     17  O   UNL     1      49.275   6.570  13.556  0.00  0.00    +0.000 OA
ATOM     18  C   UNL     1      48.566   7.056  14.424  0.00  0.00    +0.000 C 
ATOM     19  N   UNL     1      47.528   7.929  14.185  0.00  0.00    +0.000 N 
ATOM     20  H   UNL     1      46.871   8.083  14.934  0.00  0.00    +0.000 HD
BRANCH  18  21
ATOM     21  C   UNL     1      48.556   6.611  15.810  0.00  0.00    +0.000 A 
ATOM     22  C   UNL     1      49.070   7.372  16.847  0.00  0.00    +0.000 A 
ATOM     23  S   UNL     1      49.511   6.387  18.182  0.00  0.00    +0.000 S 
ATOM     24  C   UNL     1      48.860   4.992  17.445  0.00  0.00    +0.000 A 
ATOM     25  N   UNL     1      49.037   3.743  17.948  0.00  0.00    +0.000 NA
ATOM     26  C   UNL     1      48.427   2.812  17.281  0.00  0.00    +0.000 A 
ATOM     27  N   UNL     1      47.623   3.022  16.190  0.00  0.00    +0.000 N 
ATOM     28  C   UNL     1      47.419   4.271  15.644  0.00  0.00    +0.000 A 
ATOM     29  O   UNL     1      46.658   4.448  14.702  0.00  0.00    +0.000 OA
ATOM     30  C   UNL     1      48.184   5.308  16.279  0.00  0.00    +0.000 A 
ATOM     31  H   UNL     1      47.109   2.260  15.765  0.00  0.00    +0.000 HD
ENDBRANCH  18  21
ENDBRANCH   1  19
TORSDOF 7
ENDMDL
MODEL 3
REMARK VINA RESULT:    -7.472      3.268      8.005
REMARK INTER + INTRA:         -11.647
REMARK INTER:                 -10.154
REMARK INTRA:                  -1.493
REMARK UNBOUND:                -1.117
REMARK  Name = 
REMARK  7 active torsions:
REMARK  status: ('A' for Active; 'I' for Inactive)
REMARK    1  A    between atoms: C_2  and  C_20
REMARK    2  A    between atoms: N_3  and  C_4
REMARK    3  A    between atoms: C_4  and  C_5
REMARK    4  A    between atoms: C_8  and  C_9
REMARK    5  A    between atoms: C_9  and  O_10
REMARK    6  A    between atoms: O_10  and  C_11
REMARK    7  A    between atoms: C_11  and  C_12
REMARK                            x       y       z     vdW  Elec       q    Type
REMARK                         _______ _______ _______ _____ _____    ______ ____
ROOT
ATOM      1  C   UNL     1      46.568   8.274  13.150  0.00  0.00    +0.000 C 
ENDROOT
BRANCH   1   2
ATOM      2  C   UNL     1      47.763   8.036  14.026  0.00  0.00    +0.000 A 
ATOM      3  C   UNL     1      48.148   8.951  15.008  0.00  0.00    +0.000 A 
ATOM      4  C   UNL     1      49.237   8.666  15.830  0.00  0.00    +0.000 A 
ATOM      5  C   UNL     1      49.908   7.459  15.657  0.00  0.00    +0.000 A 
ATOM      6  N   UNL     1      49.533   6.543  14.731  0.00  0.00    +0.000 NA
ATOM      7  C   UNL     1      48.479   6.847  13.942  0.00  0.00    +0.000 A 
BRANCH   5   8
ATOM      8  C   UNL     1      51.040   7.080  16.586  0.00  0.00    +0.000 C 
BRANCH   8   9
ATOM      9  O   UNL     1      51.248   5.663  16.642  0.00  0.00    +0.000 OA
BRANCH   9  10
ATOM     10  C   UNL     1      50.754   5.090  17.854  0.00  0.00    +0.000 C 
BRANCH  10  11
ATOM     11  C   UNL     1      49.392   4.491  17.605  0.00  0.00    +0.000 A 
ATOM     12  C   UNL     1      48.258   5.129  18.081  0.00  0.00    +0.000 A 
ATOM     13  C   UNL     1      47.056   4.521  17.803  0.00  0.00    +0.000 A 
ATOM     14  N   UNL     1      46.945   3.376  17.108  0.00  0.00    +0.000 NA
ATOM     15  C   UNL     1      48.099   2.841  16.684  0.00  0.00    +0.000 A 
ATOM     16  N   UNL     1      49.328   3.332  16.906  0.00  0.00    +0.000 NA
ENDBRANCH  10  11
ENDBRANCH   9  10
ENDBRANCH   8   9
ENDBRANCH   5   8
ENDBRANCH   1   2
BRANCH   1  19
ATOM     17  O   UNL     1      44.449   7.855  11.286  0.00  0.00    +0.000 OA
ATOM     18  C   UNL     1      45.393   7.081  11.340  0.00  0.00    +0.000 C 
ATOM     19  N   UNL     1      46.504   7.260  12.133  0.00  0.00    +0.000 N 
ATOM     20  H   UNL     1      47.104   6.463  12.277  0.00  0.00    +0.000 HD
BRANCH  18  21
ATOM     21  C   UNL     1      45.384   5.745  10.760  0.00  0.00    +0.000 A 
ATOM     22  C   UNL     1      45.688   5.501   9.432  0.00  0.00    +0.000 A 
ATOM     23  S   UNL     1      44.989   4.028   8.893  0.00  0.00    +0.000 S 
ATOM     24  C   UNL     1      44.440   3.646  10.463  0.00  0.00    +0.000 A 
ATOM     25  N   UNL     1      43.607   2.604  10.718  0.00  0.00    +0.000 NA
ATOM     26  C   UNL     1      43.337   2.437  11.976  0.00  0.00    +0.000 A 
ATOM     27  N   UNL     1      43.859   3.185  13.000  0.00  0.00    +0.000 N 
ATOM     28  C   UNL     1      44.703   4.254  12.788  0.00  0.00    +0.000 A 
ATOM     29  O   UNL     1      45.200   4.880  13.714  0.00  0.00    +0.000 OA
ATOM     30  C   UNL     1      44.919   4.548  11.397  0.00  0.00    +0.000 A 
ATOM     31  H   UNL     1      43.672   2.950  13.967  0.00  0.00    +0.000 HD
ENDBRANCH  18  21
ENDBRANCH   1  19
TORSDOF 7
ENDMDL
MODEL 4
REMARK VINA RESULT:    -6.861      3.200      8.454
REMARK INTER + INTRA:         -10.785
REMARK INTER:                  -9.960
REMARK INTRA:                  -0.825
REMARK UNBOUND:                -1.117
REMARK  Name = 
REMARK  7 active torsions:
REMARK  status: ('A' for Active; 'I' for Inactive)
REMARK    1  A    between atoms: C_2  and  C_20
REMARK    2  A    between atoms: N_3  and  C_4
REMARK    3  A    between atoms: C_4  and  C_5
REMARK    4  A    between atoms: C_8  and  C_9
REMARK    5  A    between atoms: C_9  and  O_10
REMARK    6  A    between atoms: O_10  and  C_11
REMARK    7  A    between atoms: C_11  and  C_12
REMARK                            x       y       z     vdW  Elec       q    Type
REMARK                         _______ _______ _______ _____ _____    ______ ____
ROOT
ATOM      1  C   UNL     1      47.869   6.820  12.573  0.00  0.00    +0.000 C 
ENDROOT
BRANCH   1   2
ATOM      2  C   UNL     1      47.958   6.188  13.931  0.00  0.00    +0.000 A 
ATOM      3  C   UNL     1      48.724   6.751  14.954  0.00  0.00    +0.000 A 
ATOM      4  C   UNL     1      48.739   6.156  16.215  0.00  0.00    +0.000 A 
ATOM      5  C   UNL     1      47.972   5.014  16.424  0.00  0.00    +0.000 A 
ATOM      6  N   UNL     1      47.198   4.468  15.456  0.00  0.00    +0.000 NA
ATOM      7  C   UNL     1      47.207   5.060  14.241  0.00  0.00    +0.000 A 
BRANCH   5   8
ATOM      8  C   UNL     1      47.899   4.391  17.801  0.00  0.00    +0.000 C 
BRANCH   8   9
ATOM      9  O   UNL     1      49.132   3.771  18.185  0.00  0.00    +0.000 OA
BRANCH   9  10
ATOM     10  C   UNL     1      49.584   2.817  17.222  0.00  0.00    +0.000 C 
BRANCH  10  11
ATOM     11  C   UNL     1      50.968   2.347  17.597  0.00  0.00    +0.000 A 
ATOM     12  C   UNL     1      51.899   3.252  18.078  0.00  0.00    +0.000 A 
ATOM     13  C   UNL     1      53.134   2.740  18.404  0.00  0.00    +0.000 A 
ATOM     14  N   UNL     1      53.455   1.441  18.280  0.00  0.00    +0.000 NA
ATOM     15  C   UNL     1      52.484   0.645  17.813  0.00  0.00    +0.000 A 
ATOM     16  N   UNL     1      51.251   1.030  17.448  0.00  0.00    +0.000 NA
ENDBRANCH  10  11
ENDBRANCH   9  10
ENDBRANCH   8   9
ENDBRANCH   5   8
ENDBRANCH   1   2
BRANCH   1  19
ATOM     17  O   UNL     1      45.478   8.080  11.656  0.00  0.00    +0.000 OA
ATOM     18  C   UNL     1      45.645   6.878  11.507  0.00  0.00    +0.000 C 
ATOM     19  N   UNL     1      46.805   6.206  11.824  0.00  0.00    +0.000 N 
ATOM     20  H   UNL     1      46.757   5.201  11.882  0.00  0.00    +0.000 HD
BRANCH  18  21
ATOM     21  C   UNL     1      44.575   5.941  11.197  0.00  0.00    +0.000 A 
ATOM     22  C   UNL     1      43.397   5.880  11.920  0.00  0.00    +0.000 A 
ATOM     23  S   UNL     1      42.654   4.339  11.772  0.00  0.00    +0.000 S 
ATOM     24  C   UNL     1      43.804   3.830  10.619  0.00  0.00    +0.000 A 
ATOM     25  N   UNL     1      43.885   2.548  10.176  0.00  0.00    +0.000 NA
ATOM     26  C   UNL     1      44.787   2.359   9.263  0.00  0.00    +0.000 A 
ATOM     27  N   UNL     1      45.579   3.339   8.722  0.00  0.00    +0.000 N 
ATOM     28  C   UNL     1      45.533   4.651   9.142  0.00  0.00    +0.000 A 
ATOM     29  O   UNL     1      46.209   5.524   8.615  0.00  0.00    +0.000 OA
ATOM     30  C   UNL     1      44.636   4.870  10.245  0.00  0.00    +0.000 A 
ATOM     31  H   UNL     1      46.206   3.140   7.953  0.00  0.00    +0.000 HD
ENDBRANCH  18  21
ENDBRANCH   1  19
TORSDOF 7
ENDMDL
MODEL 5
REMARK VINA RESULT:    -6.815      1.602      2.343
REMARK INTER + INTRA:         -10.721
REMARK INTER:                  -9.886
REMARK INTRA:                  -0.835
REMARK UNBOUND:                -1.117
REMARK  Name = 
REMARK  7 active torsions:
REMARK  status: ('A' for Active; 'I' for Inactive)
REMARK    1  A    between atoms: C_2  and  C_20
REMARK    2  A    between atoms: N_3  and  C_4
REMARK    3  A    between atoms: C_4  and  C_5
REMARK    4  A    between atoms: C_8  and  C_9
REMARK    5  A    between atoms: C_9  and  O_10
REMARK    6  A    between atoms: O_10  and  C_11
REMARK    7  A    between atoms: C_11  and  C_12
REMARK                            x       y       z     vdW  Elec       q    Type
REMARK                         _______ _______ _______ _____ _____    ______ ____
ROOT
ATOM      1  C   UNL     1      47.557   7.868  13.511  0.00  0.00    +0.000 C 
ENDROOT
BRANCH   1   2
ATOM      2  C   UNL     1      46.747   6.848  12.766  0.00  0.00    +0.000 A 
ATOM      3  C   UNL     1      46.719   5.506  13.153  0.00  0.00    +0.000 A 
ATOM      4  C   UNL     1      45.916   4.602  12.460  0.00  0.00    +0.000 A 
ATOM      5  C   UNL     1      45.145   5.069  11.401  0.00  0.00    +0.000 A 
ATOM      6  N   UNL     1      45.132   6.372  11.026  0.00  0.00    +0.000 NA
ATOM      7  C   UNL     1      45.926   7.226  11.709  0.00  0.00    +0.000 A 
BRANCH   5   8
ATOM      8  C   UNL     1      44.198   4.134  10.681  0.00  0.00    +0.000 C 
BRANCH   8   9
ATOM      9  O   UNL     1      44.749   2.822  10.515  0.00  0.00    +0.000 OA
BRANCH   9  10
ATOM     10  C   UNL     1      44.401   2.243   9.256  0.00  0.00    +0.000 C 
BRANCH  10  11
ATOM     11  C   UNL     1      45.611   2.244   8.355  0.00  0.00    +0.000 A 
ATOM     12  C   UNL     1      46.029   3.423   7.759  0.00  0.00    +0.000 A 
ATOM     13  C   UNL     1      47.145   3.338   6.960  0.00  0.00    +0.000 A 
ATOM     14  N   UNL     1      47.823   2.197   6.747  0.00  0.00    +0.000 NA
ATOM     15  C   UNL     1      47.344   1.113   7.375  0.00  0.00    +0.000 A 
ATOM     16  N   UNL     1      46.259   1.070   8.164  0.00  0.00    +0.000 NA
ENDBRANCH  10  11
ENDBRANCH   9  10
ENDBRANCH   8   9
ENDBRANCH   5   8
ENDBRANCH   1   2
BRANCH   1  19
ATOM     17  O   UNL     1      49.984   6.927  14.679  0.00  0.00    +0.000 OA
ATOM     18  C   UNL     1      48.940   6.910  15.314  0.00  0.00    +0.000 C 
ATOM     19  N   UNL     1      47.748   7.436  14.869  0.00  0.00    +0.000 N 
ATOM     20  H   UNL     1      46.910   7.165  15.360  0.00  0.00    +0.000 HD
BRANCH  18  21
ATOM     21  C   UNL     1      48.738   6.128  16.526  0.00  0.00    +0.000 A 
ATOM     22  C   UNL     1      48.196   4.855  16.517  0.00  0.00    +0.000 A 
ATOM     23  S   UNL     1      47.495   4.466  18.036  0.00  0.00    +0.000 S 
ATOM     24  C   UNL     1      48.067   5.912  18.737  0.00  0.00    +0.000 A 
ATOM     25  N   UNL     1      47.695   6.327  19.975  0.00  0.00    +0.000 NA
ATOM     26  C   UNL     1      48.270   7.424  20.362  0.00  0.00    +0.000 A 
ATOM     27  N   UNL     1      49.214   8.114  19.645  0.00  0.00    +0.000 N 
ATOM     28  C   UNL     1      49.619   7.732  18.384  0.00  0.00    +0.000 A 
ATOM     29  O   UNL     1      50.499   8.328  17.778  0.00  0.00    +0.000 OA
ATOM     30  C   UNL     1      48.905   6.594  17.872  0.00  0.00    +0.000 A 
ATOM     31  H   UNL     1      49.685   8.918  20.040  0.00  0.00    +0.000 HD
ENDBRANCH  18  21
ENDBRANCH   1  19
TORSDOF 7
ENDMDL
MODEL 6
REMARK VINA RESULT:    -6.540      1.989      2.426
REMARK INTER + INTRA:         -10.334
REMARK INTER:                  -9.495
REMARK INTRA:                  -0.839
REMARK UNBOUND:                -1.117
REMARK  Name = 
REMARK  7 active torsions:
REMARK  status: ('A' for Active; 'I' for Inactive)
REMARK    1  A    between atoms: C_2  and  C_20
REMARK    2  A    between atoms: N_3  and  C_4
REMARK    3  A    between atoms: C_4  and  C_5
REMARK    4  A    between atoms: C_8  and  C_9
REMARK    5  A    between atoms: C_9  and  O_10
REMARK    6  A    between atoms: O_10  and  C_11
REMARK    7  A    between atoms: C_11  and  C_12
REMARK                            x       y       z     vdW  Elec       q    Type
REMARK                         _______ _______ _______ _____ _____    ______ ____
ROOT
ATOM      1  C   UNL     1      49.327   7.741  14.559  0.00  0.00    +0.000 C 
ENDROOT
BRANCH   1   2
ATOM      2  C   UNL     1      48.144   7.416  13.696  0.00  0.00    +0.000 A 
ATOM      3  C   UNL     1      47.648   8.323  12.757  0.00  0.00    +0.000 A 
ATOM      4  C   UNL     1      46.576   7.960  11.943  0.00  0.00    +0.000 A 
ATOM      5  C   UNL     1      46.033   6.686  12.080  0.00  0.00    +0.000 A 
ATOM      6  N   UNL     1      46.517   5.779  12.963  0.00  0.00    +0.000 NA
ATOM      7  C   UNL     1      47.552   6.159  13.745  0.00  0.00    +0.000 A 
BRANCH   5   8
ATOM      8  C   UNL     1      44.926   6.230  11.157  0.00  0.00    +0.000 C 
BRANCH   8   9
ATOM      9  O   UNL     1      44.878   4.804  11.027  0.00  0.00    +0.000 OA
BRANCH   9  10
ATOM     10  C   UNL     1      44.168   4.389   9.858  0.00  0.00    +0.000 C 
BRANCH  10  11
ATOM     11  C   UNL     1      45.103   3.626   8.951  0.00  0.00    +0.000 A 
ATOM     12  C   UNL     1      45.242   2.256   9.097  0.00  0.00    +0.000 A 
ATOM     13  C   UNL     1      46.107   1.636   8.226  0.00  0.00    +0.000 A 
ATOM     14  N   UNL     1      46.793   2.287   7.271  0.00  0.00    +0.000 NA
ATOM     15  C   UNL     1      46.584   3.609   7.206  0.00  0.00    +0.000 A 
ATOM     16  N   UNL     1      45.780   4.324   8.008  0.00  0.00    +0.000 NA
ENDBRANCH  10  11
ENDBRANCH   9  10
ENDBRANCH   8   9
ENDBRANCH   5   8
ENDBRANCH   1   2
BRANCH   1  19
ATOM     17  O   UNL     1      50.301   8.081  17.220  0.00  0.00    +0.000 OA
ATOM     18  C   UNL     1      50.064   6.965  16.781  0.00  0.00    +0.000 C 
ATOM     19  N   UNL     1      49.497   6.714  15.552  0.00  0.00    +0.000 N 
ATOM     20  H   UNL     1      49.561   5.773  15.196  0.00  0.00    +0.000 HD
BRANCH  18  21
ATOM     21  C   UNL     1      50.555   5.734  17.383  0.00  0.00    +0.000 A 
ATOM     22  C   UNL     1      51.820   5.619  17.933  0.00  0.00    +0.000 A 
ATOM     23  S   UNL     1      52.343   3.983  17.958  0.00  0.00    +0.000 S 
ATOM     24  C   UNL     1      50.827   3.429  17.404  0.00  0.00    +0.000 A 
ATOM     25  N   UNL     1      50.606   2.142  17.031  0.00  0.00    +0.000 NA
ATOM     26  C   UNL     1      49.381   1.893  16.685  0.00  0.00    +0.000 A 
ATOM     27  N   UNL     1      48.352   2.800  16.724  0.00  0.00    +0.000 N 
ATOM     28  C   UNL     1      48.531   4.116  17.092  0.00  0.00    +0.000 A 
ATOM     29  O   UNL     1      47.594   4.899  17.170  0.00  0.00    +0.000 OA
ATOM     30  C   UNL     1      49.902   4.457  17.355  0.00  0.00    +0.000 A 
ATOM     31  H   UNL     1      47.400   2.520  16.520  0.00  0.00    +0.000 HD
ENDBRANCH  18  21
ENDBRANCH   1  19
TORSDOF 7
ENDMDL
MODEL 7
REMARK VINA RESULT:    -6.354      2.665      7.960
REMARK INTER + INTRA:         -10.071
REMARK INTER:                  -9.054
REMARK INTRA:                  -1.017
REMARK UNBOUND:                -1.117
REMARK  Name = 
REMARK  7 active torsions:
REMARK  status: ('A' for Active; 'I' for Inactive)
REMARK    1  A    between atoms: C_2  and  C_20
REMARK    2  A    between atoms: N_3  and  C_4
REMARK    3  A    between atoms: C_4  and  C_5
REMARK    4  A    between atoms: C_8  and  C_9
REMARK    5  A    between atoms: C_9  and  O_10
REMARK    6  A    between atoms: O_10  and  C_11
REMARK    7  A    between atoms: C_11  and  C_12
REMARK                            x       y       z     vdW  Elec       q    Type
REMARK                         _______ _______ _______ _____ _____    ______ ____
ROOT
ATOM      1  C   UNL     1      48.389   7.208  12.163  0.00  0.00    +0.000 C 
ENDROOT
BRANCH   1   2
ATOM      2  C   UNL     1      48.535   7.057  13.648  0.00  0.00    +0.000 A 
ATOM      3  C   UNL     1      47.916   6.017  14.345  0.00  0.00    +0.000 A 
ATOM      4  C   UNL     1      48.118   5.889  15.719  0.00  0.00    +0.000 A 
ATOM      5  C   UNL     1      48.949   6.801  16.361  0.00  0.00    +0.000 A 
ATOM      6  N   UNL     1      49.585   7.800  15.700  0.00  0.00    +0.000 NA
ATOM      7  C   UNL     1      49.366   7.907  14.371  0.00  0.00    +0.000 A 
BRANCH   5   8
ATOM      8  C   UNL     1      49.258   6.642  17.833  0.00  0.00    +0.000 C 
BRANCH   8   9
ATOM      9  O   UNL     1      48.346   5.752  18.488  0.00  0.00    +0.000 OA
BRANCH   9  10
ATOM     10  C   UNL     1      49.015   4.666  19.131  0.00  0.00    +0.000 C 
BRANCH  10  11
ATOM     11  C   UNL     1      49.315   3.592  18.114  0.00  0.00    +0.000 A 
ATOM     12  C   UNL     1      50.610   3.124  17.964  0.00  0.00    +0.000 A 
ATOM     13  C   UNL     1      50.795   2.139  17.021  0.00  0.00    +0.000 A 
ATOM     14  N   UNL     1      49.802   1.630  16.273  0.00  0.00    +0.000 NA
ATOM     15  C   UNL     1      48.584   2.143  16.499  0.00  0.00    +0.000 A 
ATOM     16  N   UNL     1      48.284   3.113  17.377  0.00  0.00    +0.000 NA
ENDBRANCH  10  11
ENDBRANCH   9  10
ENDBRANCH   8   9
ENDBRANCH   5   8
ENDBRANCH   1   2
BRANCH   1  19
ATOM     17  O   UNL     1      45.805   8.351  11.765  0.00  0.00    +0.000 OA
ATOM     18  C   UNL     1      45.978   7.147  11.649  0.00  0.00    +0.000 C 
ATOM     19  N   UNL     1      47.204   6.524  11.721  0.00  0.00    +0.000 N 
ATOM     20  H   UNL     1      47.209   5.523  11.845  0.00  0.00    +0.000 HD
BRANCH  18  21
ATOM     21  C   UNL     1      44.901   6.167  11.653  0.00  0.00    +0.000 A 
ATOM     22  C   UNL     1      43.939   6.112  12.646  0.00  0.00    +0.000 A 
ATOM     23  S   UNL     1      43.242   4.546  12.752  0.00  0.00    +0.000 S 
ATOM     24  C   UNL     1      44.093   4.009  11.374  0.00  0.00    +0.000 A 
ATOM     25  N   UNL     1      44.112   2.709  10.981  0.00  0.00    +0.000 NA
ATOM     26  C   UNL     1      44.770   2.498   9.882  0.00  0.00    +0.000 A 
ATOM     27  N   UNL     1      45.366   3.470   9.121  0.00  0.00    +0.000 N 
ATOM     28  C   UNL     1      45.375   4.800   9.483  0.00  0.00    +0.000 A 
ATOM     29  O   UNL     1      45.867   5.662   8.768  0.00  0.00    +0.000 OA
ATOM     30  C   UNL     1      44.768   5.051  10.762  0.00  0.00    +0.000 A 
ATOM     31  H   UNL     1      45.793   3.248   8.230  0.00  0.00    +0.000 HD
ENDBRANCH  18  21
ENDBRANCH   1  19
TORSDOF 7
ENDMDL
MODEL 8
REMARK VINA RESULT:    -6.197      3.841      7.923
REMARK INTER + INTRA:          -9.850
REMARK INTER:                  -8.235
REMARK INTRA:                  -1.615
REMARK UNBOUND:                -1.117
REMARK  Name = 
REMARK  7 active torsions:
REMARK  status: ('A' for Active; 'I' for Inactive)
REMARK    1  A    between atoms: C_2  and  C_20
REMARK    2  A    between atoms: N_3  and  C_4
REMARK    3  A    between atoms: C_4  and  C_5
REMARK    4  A    between atoms: C_8  and  C_9
REMARK    5  A    between atoms: C_9  and  O_10
REMARK    6  A    between atoms: O_10  and  C_11
REMARK    7  A    between atoms: C_11  and  C_12
REMARK                            x       y       z     vdW  Elec       q    Type
REMARK                         _______ _______ _______ _____ _____    ______ ____
ROOT
ATOM      1  C   UNL     1      48.343   9.825  16.071  0.00  0.00    +0.000 C 
ENDROOT
BRANCH   1   2
ATOM      2  C   UNL     1      48.651   8.980  17.272  0.00  0.00    +0.000 A 
ATOM      3  C   UNL     1      47.824   8.974  18.397  0.00  0.00    +0.000 A 
ATOM      4  C   UNL     1      48.123   8.138  19.472  0.00  0.00    +0.000 A 
ATOM      5  C   UNL     1      49.241   7.313  19.386  0.00  0.00    +0.000 A 
ATOM      6  N   UNL     1      50.040   7.280  18.292  0.00  0.00    +0.000 NA
ATOM      7  C   UNL     1      49.732   8.107  17.268  0.00  0.00    +0.000 A 
BRANCH   5   8
ATOM      8  C   UNL     1      49.548   6.333  20.496  0.00  0.00    +0.000 C 
BRANCH   8   9
ATOM      9  O   UNL     1      49.840   5.021  20.000  0.00  0.00    +0.000 OA
BRANCH   9  10
ATOM     10  C   UNL     1      48.680   4.187  19.955  0.00  0.00    +0.000 C 
BRANCH  10  11
ATOM     11  C   UNL     1      48.382   3.825  18.520  0.00  0.00    +0.000 A 
ATOM     12  C   UNL     1      49.091   2.808  17.902  0.00  0.00    +0.000 A 
ATOM     13  C   UNL     1      48.751   2.536  16.597  0.00  0.00    +0.000 A 
ATOM     14  N   UNL     1      47.789   3.193  15.927  0.00  0.00    +0.000 NA
ATOM     15  C   UNL     1      47.156   4.153  16.615  0.00  0.00    +0.000 A 
ATOM     16  N   UNL     1      47.409   4.519  17.882  0.00  0.00    +0.000 NA
ENDBRANCH  10  11
ENDBRANCH   9  10
ENDBRANCH   8   9
ENDBRANCH   5   8
ENDBRANCH   1   2
BRANCH   1  19
ATOM     17  O   UNL     1      49.306   8.625  13.667  0.00  0.00    +0.000 OA
ATOM     18  C   UNL     1      48.115   8.598  13.943  0.00  0.00    +0.000 C 
ATOM     19  N   UNL     1      47.578   9.059  15.124  0.00  0.00    +0.000 N 
ATOM     20  H   UNL     1      46.580   9.204  15.154  0.00  0.00    +0.000 HD
BRANCH  18  21
ATOM     21  C   UNL     1      47.064   8.297  12.982  0.00  0.00    +0.000 A 
ATOM     22  C   UNL     1      46.401   9.276  12.262  0.00  0.00    +0.000 A 
ATOM     23  S   UNL     1      44.858   8.729  11.743  0.00  0.00    +0.000 S 
ATOM     24  C   UNL     1      45.156   7.152  12.324  0.00  0.00    +0.000 A 
ATOM     25  N   UNL     1      44.196   6.192  12.372  0.00  0.00    +0.000 NA
ATOM     26  C   UNL     1      44.619   5.041  12.796  0.00  0.00    +0.000 A 
ATOM     27  N   UNL     1      45.918   4.753  13.129  0.00  0.00    +0.000 N 
ATOM     28  C   UNL     1      46.923   5.695  13.099  0.00  0.00    +0.000 A 
ATOM     29  O   UNL     1      48.086   5.410  13.350  0.00  0.00    +0.000 OA
ATOM     30  C   UNL     1      46.463   7.014  12.759  0.00  0.00    +0.000 A 
ATOM     31  H   UNL     1      46.198   3.811  13.373  0.00  0.00    +0.000 HD
ENDBRANCH  18  21
ENDBRANCH   1  19
TORSDOF 7
ENDMDL
MODEL 9
REMARK VINA RESULT:    -6.081      2.953      9.168
REMARK INTER + INTRA:          -9.687
REMARK INTER:                  -8.636
REMARK INTRA:                  -1.051
REMARK UNBOUND:                -1.117
REMARK  Name = 
REMARK  7 active torsions:
REMARK  status: ('A' for Active; 'I' for Inactive)
REMARK    1  A    between atoms: C_2  and  C_20
REMARK    2  A    between atoms: N_3  and  C_4
REMARK    3  A    between atoms: C_4  and  C_5
REMARK    4  A    between atoms: C_8  and  C_9
REMARK    5  A    between atoms: C_9  and  O_10
REMARK    6  A    between atoms: O_10  and  C_11
REMARK    7  A    between atoms: C_11  and  C_12
REMARK                            x       y       z     vdW  Elec       q    Type
REMARK                         _______ _______ _______ _____ _____    ______ ____
ROOT
ATOM      1  C   UNL     1      47.840   6.832  12.387  0.00  0.00    +0.000 C 
ENDROOT
BRANCH   1   2
ATOM      2  C   UNL     1      48.000   6.232  13.753  0.00  0.00    +0.000 A 
ATOM      3  C   UNL     1      48.720   6.878  14.760  0.00  0.00    +0.000 A 
ATOM      4  C   UNL     1      48.803   6.305  16.028  0.00  0.00    +0.000 A 
ATOM      5  C   UNL     1      48.146   5.101  16.263  0.00  0.00    +0.000 A 
ATOM      6  N   UNL     1      47.415   4.472  15.310  0.00  0.00    +0.000 NA
ATOM      7  C   UNL     1      47.359   5.044  14.087  0.00  0.00    +0.000 A 
BRANCH   5   8
ATOM      8  C   UNL     1      48.143   4.495  17.648  0.00  0.00    +0.000 C 
BRANCH   8   9
ATOM      9  O   UNL     1      49.131   5.083  18.503  0.00  0.00    +0.000 OA
BRANCH   9  10
ATOM     10  C   UNL     1      48.572   5.568  19.725  0.00  0.00    +0.000 C 
BRANCH  10  11
ATOM     11  C   UNL     1      48.515   7.075  19.686  0.00  0.00    +0.000 A 
ATOM     12  C   UNL     1      47.405   7.712  19.155  0.00  0.00    +0.000 A 
ATOM     13  C   UNL     1      47.431   9.087  19.164  0.00  0.00    +0.000 A 
ATOM     14  N   UNL     1      48.453   9.808  19.656  0.00  0.00    +0.000 NA
ATOM     15  C   UNL     1      49.476   9.100  20.154  0.00  0.00    +0.000 A 
ATOM     16  N   UNL     1      49.571   7.761  20.185  0.00  0.00    +0.000 NA
ENDBRANCH  10  11
ENDBRANCH   9  10
ENDBRANCH   8   9
ENDBRANCH   5   8
ENDBRANCH   1   2
BRANCH   1  19
ATOM     17  O   UNL     1      45.300   7.889  11.630  0.00  0.00    +0.000 OA
ATOM     18  C   UNL     1      45.567   6.712  11.438  0.00  0.00    +0.000 C 
ATOM     19  N   UNL     1      46.798   6.142  11.675  0.00  0.00    +0.000 N 
ATOM     20  H   UNL     1      46.845   5.136  11.706  0.00  0.00    +0.000 HD
BRANCH  18  21
ATOM     21  C   UNL     1      44.572   5.687  11.154  0.00  0.00    +0.000 A 
ATOM     22  C   UNL     1      43.440   5.505  11.929  0.00  0.00    +0.000 A 
ATOM     23  S   UNL     1      42.832   3.906  11.777  0.00  0.00    +0.000 S 
ATOM     24  C   UNL     1      43.966   3.527  10.560  0.00  0.00    +0.000 A 
ATOM     25  N   UNL     1      44.141   2.268  10.083  0.00  0.00    +0.000 NA
ATOM     26  C   UNL     1      45.011   2.180   9.125  0.00  0.00    +0.000 A 
ATOM     27  N   UNL     1      45.684   3.239   8.572  0.00  0.00    +0.000 N 
ATOM     28  C   UNL     1      45.542   4.532   9.026  0.00  0.00    +0.000 A 
ATOM     29  O   UNL     1      46.110   5.474   8.490  0.00  0.00    +0.000 OA
ATOM     30  C   UNL     1      44.683   4.647  10.174  0.00  0.00    +0.000 A 
ATOM     31  H   UNL     1      46.289   3.113   7.770  0.00  0.00    +0.000 HD
ENDBRANCH  18  21
ENDBRANCH   1  19
TORSDOF 7
ENDMDL
