MODEL 1
REMARK VINA RESULT:    -7.735      0.000      0.000
REMARK INTER + INTRA:         -13.024
REMARK INTER:                 -11.804
REMARK INTRA:                  -1.220
REMARK UNBOUND:                -1.220
REMARK  Name = 
REMARK  9 active torsions:
REMARK  status: ('A' for Active; 'I' for Inactive)
REMARK    1  A    between atoms: C_2  and  C_3
REMARK    2  A    between atoms: C_3  and  C_4
REMARK    3  A    between atoms: C_3  and  N_11
REMARK    4  A    between atoms: C_4  and  C_5
REMARK    5  A    between atoms: N_11  and  C_12
REMARK    6  A    between atoms: C_12  and  C_13
REMARK    7  A    between atoms: C_16  and  C_17
REMARK    8  A    between atoms: C_17  and  N_18
REMARK    9  A    between atoms: C_19  and  C_21
REMARK                            x       y       z     vdW  Elec       q    Type
REMARK                         _______ _______ _______ _____ _____    ______ ____
ROOT
ATOM      1  C   UNL     1      46.683   4.664  13.626  0.00  0.00    +0.000 A 
ATOM      2  C   UNL     1      47.328   5.836  13.216  0.00  0.00    +0.000 A 
ATOM      3  C   UNL     1      48.197   6.505  14.079  0.00  0.00    +0.000 A 
ATOM      4  C   UNL     1      48.430   6.015  15.370  0.00  0.00    +0.000 A 
ATOM      5  C   UNL     1      47.724   4.889  15.809  0.00  0.00    +0.000 A 
ATOM      6  C   UNL     1      46.867   4.211  14.941  0.00  0.00    +0.000 A 
ENDROOT
BRANCH   1   7
ATOM      7  C   UNL     1      45.810   3.889  12.671  0.00  0.00    +0.000 C 
BRANCH   7   8
ATOM      8  N   UNL     1      45.501   4.690  11.483  0.00  0.00    +0.000 NA
ATOM      9  H   UNL     1      45.394   5.664  11.761  0.00  0.00    +0.000 HD
BRANCH   8  10
ATOM     10  C   UNL     1      44.263   4.254  10.803  0.00  0.00    +0.000 C 
BRANCH  10  12
ATOM     11  N   UNL     1      42.077   5.695  11.739  0.00  0.00    +0.000 NA
ATOM     12  C   UNL     1      43.068   5.041  11.315  0.00  0.00    +0.000 C 
ENDBRANCH  10  12
BRANCH  10  13
ATOM     13  C   UNL     1      44.358   4.501   9.278  0.00  0.00    +0.000 C 
BRANCH  13  14
ATOM     14  C   UNL     1      45.322   3.577   8.584  0.00  0.00    +0.000 A 
ATOM     15  C   UNL     1      45.317   2.212   8.856  0.00  0.00    +0.000 A 
ATOM     16  C   UNL     1      46.195   1.389   8.159  0.00  0.00    +0.000 A 
ATOM     17  C   UNL     1      47.044   1.948   7.213  0.00  0.00    +0.000 A 
ATOM     18  C   UNL     1      46.984   3.315   7.005  0.00  0.00    +0.000 A 
ATOM     19  N   UNL     1      46.143   4.141   7.667  0.00  0.00    +0.000 NA
ENDBRANCH  13  14
ENDBRANCH  10  13
ENDBRANCH   8  10
ENDBRANCH   7   8
ENDBRANCH   1   7
BRANCH   4  20
ATOM     20  C   UNL     1      49.396   6.710  16.289  0.00  0.00    +0.000 C 
BRANCH  20  21
ATOM     21  N   UNL     1      50.412   5.798  16.735  0.00  0.00    +0.000 N 
ATOM     22  C   UNL     1      50.567   5.493  18.060  0.00  0.00    +0.000 C 
ATOM     23  O   UNL     1      49.797   5.904  18.924  0.00  0.00    +0.000 OA
ATOM     24  H   UNL     1      51.183   5.641  16.096  0.00  0.00    +0.000 HD
BRANCH  22  25
ATOM     25  C   UNL     1      51.674   4.586  18.380  0.00  0.00    +0.000 A 
ATOM     26  C   UNL     1      52.766   5.050  19.100  0.00  0.00    +0.000 A 
ATOM     27  S   UNL     1      53.912   3.835  19.450  0.00  0.00    +0.000 S 
ATOM     28  C   UNL     1      53.013   2.662  18.605  0.00  0.00    +0.000 A 
ATOM     29  N   UNL     1      53.443   1.375  18.517  0.00  0.00    +0.000 NA
ATOM     30  C   UNL     1      52.674   0.601  17.828  0.00  0.00    +0.000 A 
ATOM     31  N   UNL     1      51.513   0.997  17.213  0.00  0.00    +0.000 N 
ATOM     32  C   UNL     1      51.031   2.279  17.287  0.00  0.00    +0.000 A 
ATOM     33  O   UNL     1      49.982   2.595  16.742  0.00  0.00    +0.000 OA
ATOM     34  C   UNL     1      51.854   3.190  18.065  0.00  0.00    +0.000 A 
ATOM     35  H   UNL     1      50.956   0.342  16.685  0.00  0.00    +0.000 HD
ENDBRANCH  22  25
ENDBRANCH  20  21
ENDBRANCH   4  20
TORSDOF 9
ENDMDL
MODEL 2
REMARK VINA RESULT:    -7.588      2.730      3.638
REMARK INTER + INTRA:         -12.800
REMARK INTER:                 -11.972
REMARK INTRA:                  -0.828
REMARK UNBOUND:                -1.220
REMARK  Name = 
REMARK  9 active torsions:
REMARK  status: ('A' for Active; 'I' for Inactive)
REMARK    1  A    between atoms: C_2  and  C_3
REMARK    2  A    between atoms: C_3  and  C_4
REMARK    3  A    between atoms: C_3  and  N_11
REMARK    4  A    between atoms: C_4  and  C_5
REMARK    5  A    between atoms: N_11  and  C_12
REMARK    6  A    between atoms: C_12  and  C_13
REMARK    7  A    between atoms: C_16  and  C_17
REMARK    8  A    between atoms: C_17  and  N_18
REMARK    9  A    between atoms: C_19  and  C_21
REMARK                            x       y       z     vdW  Elec       q    Type
REMARK                         _______ _______ _______ _____ _____    ______ ____
ROOT
ATOM      1  C   UNL     1      44.987   5.848  11.789  0.00  0.00    +0.000 A 
ATOM      2  C   UNL     1      45.228   5.398  13.092  0.00  0.00    +0.000 A 
ATOM      3  C   UNL     1      46.410   5.737  13.750  0.00  0.00    +0.000 A 
ATOM      4  C   UNL     1      47.374   6.527  13.112  0.00  0.00    +0.000 A 
ATOM      5  C   UNL     1      47.170   6.909  11.781  0.00  0.00    +0.000 A 
ATOM      6  C   UNL     1      45.980   6.584  11.128  0.00  0.00    +0.000 A 
ENDROOT
BRANCH   1   7
ATOM      7  C   UNL     1      43.674   5.557  11.103  0.00  0.00    +0.000 C 
BRANCH   7   8
ATOM      8  N   UNL     1      43.876   4.680   9.946  0.00  0.00    +0.000 NA
ATOM      9  H   UNL     1      42.972   4.486   9.518  0.00  0.00    +0.000 HD
BRANCH   8  10
ATOM     10  C   UNL     1      44.515   3.396  10.305  0.00  0.00    +0.000 C 
BRANCH  10  12
ATOM     11  N   UNL     1      43.207   2.224  12.461  0.00  0.00    +0.000 NA
ATOM     12  C   UNL     1      43.800   2.756  11.483  0.00  0.00    +0.000 C 
ENDBRANCH  10  12
BRANCH  10  13
ATOM     13  C   UNL     1      44.441   2.397   9.124  0.00  0.00    +0.000 C 
BRANCH  13  14
ATOM     14  C   UNL     1      45.665   2.418   8.249  0.00  0.00    +0.000 A 
ATOM     15  C   UNL     1      46.379   1.248   8.002  0.00  0.00    +0.000 A 
ATOM     16  C   UNL     1      47.478   1.305   7.151  0.00  0.00    +0.000 A 
ATOM     17  C   UNL     1      47.827   2.518   6.571  0.00  0.00    +0.000 A 
ATOM     18  C   UNL     1      47.062   3.632   6.872  0.00  0.00    +0.000 A 
ATOM     19  N   UNL     1      45.991   3.609   7.695  0.00  0.00    +0.000 NA
ENDBRANCH  13  14
ENDBRANCH  10  13
ENDBRANCH   8  10
ENDBRANCH   7   8
ENDBRANCH   1   7
BRANCH   4  20
ATOM     20  C   UNL     1      48.632   6.928  13.832  0.00  0.00    +0.000 C 
BRANCH  20  21
ATOM     21  N   UNL     1      48.383   7.076  15.238  0.00  0.00    +0.000 N 
ATOM     22  C   UNL     1      49.320   6.722  16.171  0.00  0.00    +0.000 C 
ATOM     23  O   UNL     1      50.448   6.349  15.862  0.00  0.00    +0.000 OA
ATOM     24  H   UNL     1      47.410   7.149  15.515  0.00  0.00    +0.000 HD
BRANCH  22  25
ATOM     25  C   UNL     1      48.915   6.879  17.572  0.00  0.00    +0.000 A 
ATOM     26  C   UNL     1      48.464   8.108  18.030  0.00  0.00    +0.000 A 
ATOM     27  S   UNL     1      47.959   8.080  19.660  0.00  0.00    +0.000 S 
ATOM     28  C   UNL     1      48.378   6.437  19.822  0.00  0.00    +0.000 A 
ATOM     29  N   UNL     1      48.195   5.777  20.996  0.00  0.00    +0.000 NA
ATOM     30  C   UNL     1      48.577   4.545  20.981  0.00  0.00    +0.000 A 
ATOM     31  N   UNL     1      49.132   3.911  19.899  0.00  0.00    +0.000 N 
ATOM     32  C   UNL     1      49.322   4.530  18.690  0.00  0.00    +0.000 A 
ATOM     33  O   UNL     1      49.803   3.930  17.738  0.00  0.00    +0.000 OA
ATOM     34  C   UNL     1      48.894   5.918  18.648  0.00  0.00    +0.000 A 
ATOM     35  H   UNL     1      49.413   2.944  19.952  0.00  0.00    +0.000 HD
ENDBRANCH  22  25
ENDBRANCH  20  21
ENDBRANCH   4  20
TORSDOF 9
ENDMDL
MODEL 3
REMARK VINA RESULT:    -7.535      2.722      3.454
REMARK INTER + INTRA:         -12.719
REMARK INTER:                 -12.024
REMARK INTRA:                  -0.695
REMARK UNBOUND:                -1.220
REMARK  Name = 
REMARK  9 active torsions:
REMARK  status: ('A' for Active; 'I' for Inactive)
REMARK    1  A    between atoms: C_2  and  C_3
REMARK    2  A    between atoms: C_3  and  C_4
REMARK    3  A    between atoms: C_3  and  N_11
REMARK    4  A    between atoms: C_4  and  C_5
REMARK    5  A    between atoms: N_11  and  C_12
REMARK    6  A    between atoms: C_12  and  C_13
REMARK    7  A    between atoms: C_16  and  C_17
REMARK    8  A    between atoms: C_17  and  N_18
REMARK    9  A    between atoms: C_19  and  C_21
REMARK                            x       y       z     vdW  Elec       q    Type
REMARK                         _______ _______ _______ _____ _____    ______ ____
ROOT
ATOM      1  C   UNL     1      44.618   6.316  11.708  0.00  0.00    +0.000 A 
ATOM      2  C   UNL     1      45.676   5.657  12.344  0.00  0.00    +0.000 A 
ATOM      3  C   UNL     1      46.672   6.384  12.998  0.00  0.00    +0.000 A 
ATOM      4  C   UNL     1      46.628   7.783  13.020  0.00  0.00    +0.000 A 
ATOM      5  C   UNL     1      45.614   8.445  12.317  0.00  0.00    +0.000 A 
ATOM      6  C   UNL     1      44.610   7.718  11.676  0.00  0.00    +0.000 A 
ENDROOT
BRANCH   1   7
ATOM      7  C   UNL     1      43.493   5.536  11.073  0.00  0.00    +0.000 C 
BRANCH   7   8
ATOM      8  N   UNL     1      43.973   4.787   9.908  0.00  0.00    +0.000 NA
ATOM      9  H   UNL     1      43.192   4.625   9.275  0.00  0.00    +0.000 HD
BRANCH   8  10
ATOM     10  C   UNL     1      44.567   3.482  10.270  0.00  0.00    +0.000 C 
BRANCH  10  12
ATOM     11  N   UNL     1      43.258   2.391  12.467  0.00  0.00    +0.000 NA
ATOM     12  C   UNL     1      43.851   2.886  11.471  0.00  0.00    +0.000 C 
ENDBRANCH  10  12
BRANCH  10  13
ATOM     13  C   UNL     1      44.428   2.474   9.104  0.00  0.00    +0.000 C 
BRANCH  13  14
ATOM     14  C   UNL     1      45.604   2.484   8.165  0.00  0.00    +0.000 A 
ATOM     15  C   UNL     1      46.408   1.355   8.023  0.00  0.00    +0.000 A 
ATOM     16  C   UNL     1      47.456   1.394   7.110  0.00  0.00    +0.000 A 
ATOM     17  C   UNL     1      47.670   2.548   6.368  0.00  0.00    +0.000 A 
ATOM     18  C   UNL     1      46.824   3.624   6.573  0.00  0.00    +0.000 A 
ATOM     19  N   UNL     1      45.797   3.618   7.452  0.00  0.00    +0.000 NA
ENDBRANCH  13  14
ENDBRANCH  10  13
ENDBRANCH   8  10
ENDBRANCH   7   8
ENDBRANCH   1   7
BRANCH   4  20
ATOM     20  C   UNL     1      47.676   8.570  13.758  0.00  0.00    +0.000 C 
BRANCH  20  21
ATOM     21  N   UNL     1      48.018   7.920  14.992  0.00  0.00    +0.000 N 
ATOM     22  C   UNL     1      49.243   7.341  15.180  0.00  0.00    +0.000 C 
ATOM     23  O   UNL     1      50.144   7.423  14.349  0.00  0.00    +0.000 OA
ATOM     24  H   UNL     1      47.241   7.637  15.579  0.00  0.00    +0.000 HD
BRANCH  22  25
ATOM     25  C   UNL     1      49.441   6.670  16.469  0.00  0.00    +0.000 A 
ATOM     26  C   UNL     1      50.255   7.245  17.433  0.00  0.00    +0.000 A 
ATOM     27  S   UNL     1      50.298   6.367  18.896  0.00  0.00    +0.000 S 
ATOM     28  C   UNL     1      49.272   5.161  18.269  0.00  0.00    +0.000 A 
ATOM     29  N   UNL     1      48.899   4.094  19.023  0.00  0.00    +0.000 NA
ATOM     30  C   UNL     1      48.138   3.249  18.413  0.00  0.00    +0.000 A 
ATOM     31  N   UNL     1      47.719   3.370  17.113  0.00  0.00    +0.000 N 
ATOM     32  C   UNL     1      48.056   4.436  16.318  0.00  0.00    +0.000 A 
ATOM     33  O   UNL     1      47.649   4.523  15.167  0.00  0.00    +0.000 OA
ATOM     34  C   UNL     1      48.901   5.426  16.963  0.00  0.00    +0.000 A 
ATOM     35  H   UNL     1      47.125   2.671  16.692  0.00  0.00    +0.000 HD
ENDBRANCH  22  25
ENDBRANCH  20  21
ENDBRANCH   4  20
TORSDOF 9
ENDMDL
MODEL 4
REMARK VINA RESULT:    -7.412      2.961      4.266
REMARK INTER + INTRA:         -12.532
REMARK INTER:                 -11.464
REMARK INTRA:                  -1.068
REMARK UNBOUND:                -1.220
REMARK  Name = 
REMARK  9 active torsions:
REMARK  status: ('A' for Active; 'I' for Inactive)
REMARK    1  A    between atoms: C_2  and  C_3
REMARK    2  A    between atoms: C_3  and  C_4
REMARK    3  A    between atoms: C_3  and  N_11
REMARK    4  A    between atoms: C_4  and  C_5
REMARK    5  A    between atoms: N_11  and  C_12
REMARK    6  A    between atoms: C_12  and  C_13
REMARK    7  A    between atoms: C_16  and  C_17
REMARK    8  A    between atoms: C_17  and  N_18
REMARK    9  A    between atoms: C_19  and  C_21
REMARK                            x       y       z     vdW  Elec       q    Type
REMARK                         _______ _______ _______ _____ _____    ______ ____
ROOT
ATOM      1  C   UNL     1      45.618   6.034  12.235  0.00  0.00    +0.000 A 
ATOM      2  C   UNL     1      45.874   5.243  13.362  0.00  0.00    +0.000 A 
ATOM      3  C   UNL     1      46.986   5.495  14.165  0.00  0.00    +0.000 A 
ATOM      4  C   UNL     1      47.865   6.538  13.852  0.00  0.00    +0.000 A 
ATOM      5  C   UNL     1      47.655   7.278  12.682  0.00  0.00    +0.000 A 
ATOM      6  C   UNL     1      46.534   7.037  11.886  0.00  0.00    +0.000 A 
ENDROOT
BRANCH   1   7
ATOM      7  C   UNL     1      44.373   5.823  11.411  0.00  0.00    +0.000 C 
BRANCH   7   8
ATOM      8  N   UNL     1      44.717   5.512  10.020  0.00  0.00    +0.000 NA
ATOM      9  H   UNL     1      43.971   5.849   9.413  0.00  0.00    +0.000 HD
BRANCH   8  10
ATOM     10  C   UNL     1      44.899   4.064   9.784  0.00  0.00    +0.000 C 
BRANCH  10  12
ATOM     11  N   UNL     1      43.159   2.590  11.375  0.00  0.00    +0.000 NA
ATOM     12  C   UNL     1      43.948   3.258  10.654  0.00  0.00    +0.000 C 
ENDBRANCH  10  12
BRANCH  10  13
ATOM     13  C   UNL     1      44.591   3.705   8.310  0.00  0.00    +0.000 C 
BRANCH  13  14
ATOM     14  C   UNL     1      45.676   2.891   7.657  0.00  0.00    +0.000 A 
ATOM     15  C   UNL     1      46.374   3.392   6.561  0.00  0.00    +0.000 A 
ATOM     16  C   UNL     1      47.399   2.626   6.016  0.00  0.00    +0.000 A 
ATOM     17  C   UNL     1      47.698   1.392   6.579  0.00  0.00    +0.000 A 
ATOM     18  C   UNL     1      46.953   0.971   7.667  0.00  0.00    +0.000 A 
ATOM     19  N   UNL     1      45.952   1.691   8.218  0.00  0.00    +0.000 NA
ENDBRANCH  13  14
ENDBRANCH  10  13
ENDBRANCH   8  10
ENDBRANCH   7   8
ENDBRANCH   1   7
BRANCH   4  20
ATOM     20  C   UNL     1      49.042   6.839  14.737  0.00  0.00    +0.000 C 
BRANCH  20  21
ATOM     21  N   UNL     1      48.700   6.634  16.117  0.00  0.00    +0.000 N 
ATOM     22  C   UNL     1      49.568   6.029  16.986  0.00  0.00    +0.000 C 
ATOM     23  O   UNL     1      50.710   5.714  16.663  0.00  0.00    +0.000 OA
ATOM     24  H   UNL     1      47.712   6.662  16.342  0.00  0.00    +0.000 HD
BRANCH  22  25
ATOM     25  C   UNL     1      49.072   5.839  18.353  0.00  0.00    +0.000 A 
ATOM     26  C   UNL     1      49.185   4.601  18.967  0.00  0.00    +0.000 A 
ATOM     27  S   UNL     1      48.632   4.592  20.582  0.00  0.00    +0.000 S 
ATOM     28  C   UNL     1      48.174   6.230  20.495  0.00  0.00    +0.000 A 
ATOM     29  N   UNL     1      47.621   6.863  21.563  0.00  0.00    +0.000 NA
ATOM     30  C   UNL     1      47.303   8.094  21.348  0.00  0.00    +0.000 A 
ATOM     31  N   UNL     1      47.482   8.752  20.158  0.00  0.00    +0.000 N 
ATOM     32  C   UNL     1      48.050   8.161  19.058  0.00  0.00    +0.000 A 
ATOM     33  O   UNL     1      48.213   8.782  18.017  0.00  0.00    +0.000 OA
ATOM     34  C   UNL     1      48.441   6.775  19.252  0.00  0.00    +0.000 A 
ATOM     35  H   UNL     1      47.209   9.718  20.053  0.00  0.00    +0.000 HD
ENDBRANCH  22  25
ENDBRANCH  20  21
ENDBRANCH   4  20
TORSDOF 9
ENDMDL
MODEL 5
REMARK VINA RESULT:    -7.287      3.888     10.331
REMARK INTER + INTRA:         -12.340
REMARK INTER:                 -10.058
REMARK INTRA:                  -2.282
REMARK UNBOUND:                -1.220
REMARK  Name = 
REMARK  9 active torsions:
REMARK  status: ('A' for Active; 'I' for Inactive)
REMARK    1  A    between atoms: C_2  and  C_3
REMARK    2  A    between atoms: C_3  and  C_4
REMARK    3  A    between atoms: C_3  and  N_11
REMARK    4  A    between atoms: C_4  and  C_5
REMARK    5  A    between atoms: N_11  and  C_12
REMARK    6  A    between atoms: C_12  and  C_13
REMARK    7  A    between atoms: C_16  and  C_17
REMARK    8  A    between atoms: C_17  and  N_18
REMARK    9  A    between atoms: C_19  and  C_21
REMARK                            x       y       z     vdW  Elec       q    Type
REMARK                         _______ _______ _______ _____ _____    ______ ____
ROOT
ATOM      1  C   UNL     1      51.402   4.478  17.627  0.00  0.00    +0.000 A 
ATOM      2  C   UNL     1      50.951   3.156  17.710  0.00  0.00    +0.000 A 
ATOM      3  C   UNL     1      49.623   2.842  17.418  0.00  0.00    +0.000 A 
ATOM      4  C   UNL     1      48.723   3.848  17.044  0.00  0.00    +0.000 A 
ATOM      5  C   UNL     1      49.154   5.180  17.039  0.00  0.00    +0.000 A 
ATOM      6  C   UNL     1      50.485   5.492  17.316  0.00  0.00    +0.000 A 
ENDROOT
BRANCH   1   7
ATOM      7  C   UNL     1      52.855   4.813  17.858  0.00  0.00    +0.000 C 
BRANCH   7   8
ATOM      8  N   UNL     1      53.074   5.250  19.240  0.00  0.00    +0.000 NA
ATOM      9  H   UNL     1      54.069   5.418  19.379  0.00  0.00    +0.000 HD
BRANCH   8  10
ATOM     10  C   UNL     1      52.619   4.256  20.235  0.00  0.00    +0.000 C 
BRANCH  10  12
ATOM     11  N   UNL     1      54.791   2.916  21.339  0.00  0.00    +0.000 NA
ATOM     12  C   UNL     1      53.806   3.523  20.838  0.00  0.00    +0.000 C 
ENDBRANCH  10  12
BRANCH  10  13
ATOM     13  C   UNL     1      51.866   4.948  21.398  0.00  0.00    +0.000 C 
BRANCH  13  14
ATOM     14  C   UNL     1      50.535   5.518  20.989  0.00  0.00    +0.000 A 
ATOM     15  C   UNL     1      49.393   4.720  20.986  0.00  0.00    +0.000 A 
ATOM     16  C   UNL     1      48.176   5.299  20.645  0.00  0.00    +0.000 A 
ATOM     17  C   UNL     1      48.132   6.650  20.323  0.00  0.00    +0.000 A 
ATOM     18  C   UNL     1      49.314   7.369  20.351  0.00  0.00    +0.000 A 
ATOM     19  N   UNL     1      50.512   6.835  20.677  0.00  0.00    +0.000 NA
ENDBRANCH  13  14
ENDBRANCH  10  13
ENDBRANCH   8  10
ENDBRANCH   7   8
ENDBRANCH   1   7
BRANCH   4  20
ATOM     20  C   UNL     1      47.302   3.509  16.689  0.00  0.00    +0.000 C 
BRANCH  20  21
ATOM     21  N   UNL     1      46.778   4.458  15.746  0.00  0.00    +0.000 N 
ATOM     22  C   UNL     1      46.817   4.223  14.399  0.00  0.00    +0.000 C 
ATOM     23  O   UNL     1      47.212   3.160  13.927  0.00  0.00    +0.000 OA
ATOM     24  H   UNL     1      46.674   5.409  16.081  0.00  0.00    +0.000 HD
BRANCH  22  25
ATOM     25  C   UNL     1      46.293   5.297  13.549  0.00  0.00    +0.000 A 
ATOM     26  C   UNL     1      47.063   6.423  13.297  0.00  0.00    +0.000 A 
ATOM     27  S   UNL     1      46.324   7.523  12.223  0.00  0.00    +0.000 S 
ATOM     28  C   UNL     1      44.928   6.556  12.100  0.00  0.00    +0.000 A 
ATOM     29  N   UNL     1      43.881   6.928  11.316  0.00  0.00    +0.000 NA
ATOM     30  C   UNL     1      42.883   6.111  11.336  0.00  0.00    +0.000 A 
ATOM     31  N   UNL     1      42.832   4.955  12.073  0.00  0.00    +0.000 N 
ATOM     32  C   UNL     1      43.868   4.531  12.865  0.00  0.00    +0.000 A 
ATOM     33  O   UNL     1      43.797   3.484  13.496  0.00  0.00    +0.000 OA
ATOM     34  C   UNL     1      45.025   5.409  12.867  0.00  0.00    +0.000 A 
ATOM     35  H   UNL     1      42.018   4.359  12.047  0.00  0.00    +0.000 HD
ENDBRANCH  22  25
ENDBRANCH  20  21
ENDBRANCH   4  20
TORSDOF 9
ENDMDL
MODEL 6
REMARK VINA RESULT:    -7.146      3.995      9.201
REMARK INTER + INTRA:         -12.125
REMARK INTER:                 -10.324
REMARK INTRA:                  -1.802
REMARK UNBOUND:                -1.220
REMARK  Name = 
REMARK  9 active torsions:
REMARK  status: ('A' for Active; 'I' for Inactive)
REMARK    1  A    between atoms: C_2  and  C_3
REMARK    2  A    between atoms: C_3  and  C_4
REMARK    3  A    between atoms: C_3  and  N_11
REMARK    4  A    between atoms: C_4  and  C_5
REMARK    5  A    between atoms: N_11  and  C_12
REMARK    6  A    between atoms: C_12  and  C_13
REMARK    7  A    between atoms: C_16  and  C_17
REMARK    8  A    between atoms: C_17  and  N_18
REMARK    9  A    between atoms: C_19  and  C_21
REMARK                            x       y       z     vdW  Elec       q    Type
REMARK                         _______ _______ _______ _____ _____    ______ ____
ROOT
ATOM      1  C   UNL     1      48.757   8.223  16.013  0.00  0.00    +0.000 A 
ATOM      2  C   UNL     1      48.475   9.360  15.247  0.00  0.00    +0.000 A 
ATOM      3  C   UNL     1      48.149   9.239  13.896  0.00  0.00    +0.000 A 
ATOM      4  C   UNL     1      48.106   7.979  13.287  0.00  0.00    +0.000 A 
ATOM      5  C   UNL     1      48.466   6.850  14.032  0.00  0.00    +0.000 A 
ATOM      6  C   UNL     1      48.777   6.968  15.387  0.00  0.00    +0.000 A 
ENDROOT
BRANCH   1   7
ATOM      7  C   UNL     1      49.025   8.337  17.493  0.00  0.00    +0.000 C 
BRANCH   7   8
ATOM      8  N   UNL     1      47.809   8.067  18.265  0.00  0.00    +0.000 NA
ATOM      9  H   UNL     1      47.538   8.913  18.762  0.00  0.00    +0.000 HD
BRANCH   8  10
ATOM     10  C   UNL     1      47.984   6.976  19.248  0.00  0.00    +0.000 C 
BRANCH  10  12
ATOM     11  N   UNL     1      47.238   7.826  21.789  0.00  0.00    +0.000 NA
ATOM     12  C   UNL     1      47.576   7.440  20.637  0.00  0.00    +0.000 C 
ENDBRANCH  10  12
BRANCH  10  13
ATOM     13  C   UNL     1      47.092   5.763  18.888  0.00  0.00    +0.000 C 
BRANCH  13  14
ATOM     14  C   UNL     1      47.852   4.638  18.238  0.00  0.00    +0.000 A 
ATOM     15  C   UNL     1      47.213   3.766  17.360  0.00  0.00    +0.000 A 
ATOM     16  C   UNL     1      47.964   2.769  16.747  0.00  0.00    +0.000 A 
ATOM     17  C   UNL     1      49.321   2.671  17.025  0.00  0.00    +0.000 A 
ATOM     18  C   UNL     1      49.875   3.579  17.912  0.00  0.00    +0.000 A 
ATOM     19  N   UNL     1      49.173   4.558  18.523  0.00  0.00    +0.000 NA
ENDBRANCH  13  14
ENDBRANCH  10  13
ENDBRANCH   8  10
ENDBRANCH   7   8
ENDBRANCH   1   7
BRANCH   4  20
ATOM     20  C   UNL     1      47.716   7.841  11.841  0.00  0.00    +0.000 C 
BRANCH  20  21
ATOM     21  N   UNL     1      47.006   6.612  11.626  0.00  0.00    +0.000 N 
ATOM     22  C   UNL     1      45.638   6.563  11.652  0.00  0.00    +0.000 C 
ATOM     23  O   UNL     1      44.946   7.571  11.765  0.00  0.00    +0.000 OA
ATOM     24  H   UNL     1      47.535   5.759  11.767  0.00  0.00    +0.000 HD
BRANCH  22  25
ATOM     25  C   UNL     1      45.044   5.235  11.466  0.00  0.00    +0.000 A 
ATOM     26  C   UNL     1      44.373   4.621  12.513  0.00  0.00    +0.000 A 
ATOM     27  S   UNL     1      43.678   3.122  12.087  0.00  0.00    +0.000 S 
ATOM     28  C   UNL     1      44.297   3.219  10.504  0.00  0.00    +0.000 A 
ATOM     29  N   UNL     1      44.061   2.236   9.595  0.00  0.00    +0.000 NA
ATOM     30  C   UNL     1      44.609   2.431   8.444  0.00  0.00    +0.000 A 
ATOM     31  N   UNL     1      45.378   3.519   8.117  0.00  0.00    +0.000 N 
ATOM     32  C   UNL     1      45.630   4.543   8.994  0.00  0.00    +0.000 A 
ATOM     33  O   UNL     1      46.305   5.509   8.664  0.00  0.00    +0.000 OA
ATOM     34  C   UNL     1      45.023   4.380  10.304  0.00  0.00    +0.000 A 
ATOM     35  H   UNL     1      45.782   3.611   7.197  0.00  0.00    +0.000 HD
ENDBRANCH  22  25
ENDBRANCH  20  21
ENDBRANCH   4  20
TORSDOF 9
ENDMDL
MODEL 7
REMARK VINA RESULT:    -7.058      5.805      7.230
REMARK INTER + INTRA:         -11.991
REMARK INTER:                 -10.664
REMARK INTRA:                  -1.327
REMARK UNBOUND:                -1.220
REMARK  Name = 
REMARK  9 active torsions:
REMARK  status: ('A' for Active; 'I' for Inactive)
REMARK    1  A    between atoms: C_2  and  C_3
REMARK    2  A    between atoms: C_3  and  C_4
REMARK    3  A    between atoms: C_3  and  N_11
REMARK    4  A    between atoms: C_4  and  C_5
REMARK    5  A    between atoms: N_11  and  C_12
REMARK    6  A    between atoms: C_12  and  C_13
REMARK    7  A    between atoms: C_16  and  C_17
REMARK    8  A    between atoms: C_17  and  N_18
REMARK    9  A    between atoms: C_19  and  C_21
REMARK                            x       y       z     vdW  Elec       q    Type
REMARK                         _______ _______ _______ _____ _____    ______ ____
ROOT
ATOM      1  C   UNL     1      46.865   7.518  12.198  0.00  0.00    +0.000 A 
ATOM      2  C   UNL     1      47.312   8.794  11.835  0.00  0.00    +0.000 A 
ATOM      3  C   UNL     1      48.678   9.063  11.733  0.00  0.00    +0.000 A 
ATOM      4  C   UNL     1      49.618   8.060  11.999  0.00  0.00    +0.000 A 
ATOM      5  C   UNL     1      49.174   6.808  12.440  0.00  0.00    +0.000 A 
ATOM      6  C   UNL     1      47.809   6.534  12.526  0.00  0.00    +0.000 A 
ENDROOT
BRANCH   1   7
ATOM      7  C   UNL     1      45.391   7.197  12.227  0.00  0.00    +0.000 C 
BRANCH   7   8
ATOM      8  N   UNL     1      44.994   6.472  11.016  0.00  0.00    +0.000 NA
ATOM      9  H   UNL     1      44.188   6.939  10.602  0.00  0.00    +0.000 HD
BRANCH   8  10
ATOM     10  C   UNL     1      44.638   5.062  11.282  0.00  0.00    +0.000 C 
BRANCH  10  12
ATOM     11  N   UNL     1      42.796   4.896  13.358  0.00  0.00    +0.000 NA
ATOM     12  C   UNL     1      43.631   4.971  12.416  0.00  0.00    +0.000 C 
ENDBRANCH  10  12
BRANCH  10  13
ATOM     13  C   UNL     1      43.987   4.416  10.035  0.00  0.00    +0.000 C 
BRANCH  13  14
ATOM     14  C   UNL     1      44.975   3.713   9.143  0.00  0.00    +0.000 A 
ATOM     15  C   UNL     1      45.101   2.327   9.178  0.00  0.00    +0.000 A 
ATOM     16  C   UNL     1      45.994   1.717   8.305  0.00  0.00    +0.000 A 
ATOM     17  C   UNL     1      46.728   2.501   7.424  0.00  0.00    +0.000 A 
ATOM     18  C   UNL     1      46.541   3.872   7.457  0.00  0.00    +0.000 A 
ATOM     19  N   UNL     1      45.682   4.495   8.294  0.00  0.00    +0.000 NA
ENDBRANCH  13  14
ENDBRANCH  10  13
ENDBRANCH   8  10
ENDBRANCH   7   8
ENDBRANCH   1   7
BRANCH   4  20
ATOM     20  C   UNL     1      51.090   8.334  11.851  0.00  0.00    +0.000 C 
BRANCH  20  21
ATOM     21  N   UNL     1      51.535   7.995  10.528  0.00  0.00    +0.000 N 
ATOM     22  C   UNL     1      52.629   8.595   9.967  0.00  0.00    +0.000 C 
ATOM     23  O   UNL     1      53.341   9.380  10.588  0.00  0.00    +0.000 OA
ATOM     24  H   UNL     1      50.851   7.548   9.927  0.00  0.00    +0.000 HD
BRANCH  22  25
ATOM     25  C   UNL     1      52.943   8.191   8.592  0.00  0.00    +0.000 A 
ATOM     26  C   UNL     1      52.862   9.114   7.561  0.00  0.00    +0.000 A 
ATOM     27  S   UNL     1      53.344   8.487   6.049  0.00  0.00    +0.000 S 
ATOM     28  C   UNL     1      53.627   6.945   6.715  0.00  0.00    +0.000 A 
ATOM     29  N   UNL     1      54.069   5.916   5.944  0.00  0.00    +0.000 NA
ATOM     30  C   UNL     1      54.219   4.802   6.575  0.00  0.00    +0.000 A 
ATOM     31  N   UNL     1      53.961   4.618   7.910  0.00  0.00    +0.000 N 
ATOM     32  C   UNL     1      53.529   5.628   8.731  0.00  0.00    +0.000 A 
ATOM     33  O   UNL     1      53.326   5.434   9.922  0.00  0.00    +0.000 OA
ATOM     34  C   UNL     1      53.358   6.911   8.071  0.00  0.00    +0.000 A 
ATOM     35  H   UNL     1      54.096   3.717   8.345  0.00  0.00    +0.000 HD
ENDBRANCH  22  25
ENDBRANCH  20  21
ENDBRANCH   4  20
TORSDOF 9
ENDMDL
MODEL 8
REMARK VINA RESULT:    -6.892      3.876      4.787
REMARK INTER + INTRA:         -11.738
REMARK INTER:                 -10.687
REMARK INTRA:                  -1.051
REMARK UNBOUND:                -1.220
REMARK  Name = 
REMARK  9 active torsions:
REMARK  status: ('A' for Active; 'I' for Inactive)
REMARK    1  A    between atoms: C_2  and  C_3
REMARK    2  A    between atoms: C_3  and  C_4
REMARK    3  A    between atoms: C_3  and  N_11
REMARK    4  A    between atoms: C_4  and  C_5
REMARK    5  A    between atoms: N_11  and  C_12
REMARK    6  A    between atoms: C_12  and  C_13
REMARK    7  A    between atoms: C_16  and  C_17
REMARK    8  A    between atoms: C_17  and  N_18
REMARK    9  A    between atoms: C_19  and  C_21
REMARK                            x       y       z     vdW  Elec       q    Type
REMARK                         _______ _______ _______ _____ _____    ______ ____
ROOT
ATOM      1  C   UNL     1      46.704   6.389  11.816  0.00  0.00    +0.000 A 
ATOM      2  C   UNL     1      47.763   7.303  11.762  0.00  0.00    +0.000 A 
ATOM      3  C   UNL     1      48.619   7.459  12.852  0.00  0.00    +0.000 A 
ATOM      4  C   UNL     1      48.426   6.707  14.017  0.00  0.00    +0.000 A 
ATOM      5  C   UNL     1      47.320   5.852  14.102  0.00  0.00    +0.000 A 
ATOM      6  C   UNL     1      46.473   5.684  13.006  0.00  0.00    +0.000 A 
ENDROOT
BRANCH   1   7
ATOM      7  C   UNL     1      45.827   6.153  10.611  0.00  0.00    +0.000 C 
BRANCH   7   8
ATOM      8  N   UNL     1      44.700   5.279  10.953  0.00  0.00    +0.000 NA
ATOM      9  H   UNL     1      44.613   5.233  11.967  0.00  0.00    +0.000 HD
BRANCH   8  10
ATOM     10  C   UNL     1      44.860   3.906  10.430  0.00  0.00    +0.000 C 
BRANCH  10  12
ATOM     11  N   UNL     1      43.015   2.192  11.608  0.00  0.00    +0.000 NA
ATOM     12  C   UNL     1      43.852   2.969  11.073  0.00  0.00    +0.000 C 
ENDBRANCH  10  12
BRANCH  10  13
ATOM     13  C   UNL     1      44.614   3.868   8.902  0.00  0.00    +0.000 C 
BRANCH  13  14
ATOM     14  C   UNL     1      45.632   3.049   8.154  0.00  0.00    +0.000 A 
ATOM     15  C   UNL     1      46.466   3.643   7.211  0.00  0.00    +0.000 A 
ATOM     16  C   UNL     1      47.422   2.858   6.578  0.00  0.00    +0.000 A 
ATOM     17  C   UNL     1      47.521   1.511   6.903  0.00  0.00    +0.000 A 
ATOM     18  C   UNL     1      46.651   1.001   7.852  0.00  0.00    +0.000 A 
ATOM     19  N   UNL     1      45.711   1.738   8.484  0.00  0.00    +0.000 NA
ENDBRANCH  13  14
ENDBRANCH  10  13
ENDBRANCH   8  10
ENDBRANCH   7   8
ENDBRANCH   1   7
BRANCH   4  20
ATOM     20  C   UNL     1      49.370   6.842  15.180  0.00  0.00    +0.000 C 
BRANCH  20  21
ATOM     21  N   UNL     1      48.703   7.434  16.305  0.00  0.00    +0.000 N 
ATOM     22  C   UNL     1      49.171   8.579  16.892  0.00  0.00    +0.000 C 
ATOM     23  O   UNL     1      50.122   9.209  16.439  0.00  0.00    +0.000 OA
ATOM     24  H   UNL     1      48.083   6.826  16.829  0.00  0.00    +0.000 HD
BRANCH  22  25
ATOM     25  C   UNL     1      48.421   9.047  18.062  0.00  0.00    +0.000 A 
ATOM     26  C   UNL     1      47.812  10.293  18.043  0.00  0.00    +0.000 A 
ATOM     27  S   UNL     1      46.917  10.632  19.456  0.00  0.00    +0.000 S 
ATOM     28  C   UNL     1      47.358   9.146  20.162  0.00  0.00    +0.000 A 
ATOM     29  N   UNL     1      46.918   8.796  21.399  0.00  0.00    +0.000 NA
ATOM     30  C   UNL     1      47.348   7.654  21.816  0.00  0.00    +0.000 A 
ATOM     31  N   UNL     1      48.187   6.829  21.111  0.00  0.00    +0.000 N 
ATOM     32  C   UNL     1      48.644   7.131  19.854  0.00  0.00    +0.000 A 
ATOM     33  O   UNL     1      49.377   6.363  19.244  0.00  0.00    +0.000 OA
ATOM     34  C   UNL     1      48.176   8.402  19.330  0.00  0.00    +0.000 A 
ATOM     35  H   UNL     1      48.490   5.947  21.496  0.00  0.00    +0.000 HD
ENDBRANCH  22  25
ENDBRANCH  20  21
ENDBRANCH   4  20
TORSDOF 9
ENDMDL
MODEL 9
REMARK VINA RESULT:    -6.763      4.162     10.155
REMARK INTER + INTRA:         -11.541
REMARK INTER:                  -9.106
REMARK INTRA:                  -2.434
REMARK UNBOUND:                -1.220
REMARK  Name = 
REMARK  9 active torsions:
REMARK  status: ('A' for Active; 'I' for Inactive)
REMARK    1  A    between atoms: C_2  and  C_3
REMARK    2  A    between atoms: C_3  and  C_4
REMARK    3  A    between atoms: C_3  and  N_11
REMARK    4  A    between atoms: C_4  and  C_5
REMARK    5  A    between atoms: N_11  and  C_12
REMARK    6  A    between atoms: C_12  and  C_13
REMARK    7  A    between atoms: C_16  and  C_17
REMARK    8  A    between atoms: C_17  and  N_18
REMARK    9  A    between atoms: C_19  and  C_21
REMARK                            x       y       z     vdW  Elec       q    Type
REMARK                         _______ _______ _______ _____ _____    ______ ____
ROOT
ATOM      1  C   UNL     1      51.490   4.359  17.677  0.00  0.00    +0.000 A 
ATOM      2  C   UNL     1      51.048   3.031  17.697  0.00  0.00    +0.000 A 
ATOM      3  C   UNL     1      49.715   2.725  17.422  0.00  0.00    +0.000 A 
ATOM      4  C   UNL     1      48.800   3.744  17.130  0.00  0.00    +0.000 A 
ATOM      5  C   UNL     1      49.223   5.077  17.189  0.00  0.00    +0.000 A 
ATOM      6  C   UNL     1      50.559   5.383  17.448  0.00  0.00    +0.000 A 
ENDROOT
BRANCH   1   7
ATOM      7  C   UNL     1      52.947   4.691  17.887  0.00  0.00    +0.000 C 
BRANCH   7   8
ATOM      8  N   UNL     1      53.179   5.165  19.255  0.00  0.00    +0.000 NA
ATOM      9  H   UNL     1      54.175   5.343  19.378  0.00  0.00    +0.000 HD
BRANCH   8  10
ATOM     10  C   UNL     1      52.744   4.193  20.280  0.00  0.00    +0.000 C 
BRANCH  10  12
ATOM     11  N   UNL     1      54.934   2.847  21.340  0.00  0.00    +0.000 NA
ATOM     12  C   UNL     1      53.941   3.457  20.860  0.00  0.00    +0.000 C 
ENDBRANCH  10  12
BRANCH  10  13
ATOM     13  C   UNL     1      52.034   4.912  21.453  0.00  0.00    +0.000 C 
BRANCH  13  14
ATOM     14  C   UNL     1      50.703   5.501  21.072  0.00  0.00    +0.000 A 
ATOM     15  C   UNL     1      49.555   4.713  21.069  0.00  0.00    +0.000 A 
ATOM     16  C   UNL     1      48.338   5.309  20.754  0.00  0.00    +0.000 A 
ATOM     17  C   UNL     1      48.301   6.666  20.458  0.00  0.00    +0.000 A 
ATOM     18  C   UNL     1      49.491   7.374  20.484  0.00  0.00    +0.000 A 
ATOM     19  N   UNL     1      50.688   6.824  20.785  0.00  0.00    +0.000 NA
ENDBRANCH  13  14
ENDBRANCH  10  13
ENDBRANCH   8  10
ENDBRANCH   7   8
ENDBRANCH   1   7
BRANCH   4  20
ATOM     20  C   UNL     1      47.372   3.415  16.794  0.00  0.00    +0.000 C 
BRANCH  20  21
ATOM     21  N   UNL     1      46.844   4.363  15.853  0.00  0.00    +0.000 N 
ATOM     22  C   UNL     1      46.890   4.132  14.505  0.00  0.00    +0.000 C 
ATOM     23  O   UNL     1      47.293   3.073  14.032  0.00  0.00    +0.000 OA
ATOM     24  H   UNL     1      46.732   5.313  16.190  0.00  0.00    +0.000 HD
BRANCH  22  25
ATOM     25  C   UNL     1      46.360   5.205  13.656  0.00  0.00    +0.000 A 
ATOM     26  C   UNL     1      45.106   5.079  13.079  0.00  0.00    +0.000 A 
ATOM     27  S   UNL     1      44.623   6.458  12.197  0.00  0.00    +0.000 S 
ATOM     28  C   UNL     1      46.098   7.248  12.514  0.00  0.00    +0.000 A 
ATOM     29  N   UNL     1      46.343   8.497  12.038  0.00  0.00    +0.000 NA
ATOM     30  C   UNL     1      47.508   8.964  12.336  0.00  0.00    +0.000 A 
ATOM     31  N   UNL     1      48.457   8.291  13.064  0.00  0.00    +0.000 N 
ATOM     32  C   UNL     1      48.250   7.036  13.578  0.00  0.00    +0.000 A 
ATOM     33  O   UNL     1      49.112   6.472  14.239  0.00  0.00    +0.000 OA
ATOM     34  C   UNL     1      46.945   6.470  13.283  0.00  0.00    +0.000 A 
ATOM     35  H   UNL     1      49.353   8.711  13.261  0.00  0.00    +0.000 HD
ENDBRANCH  22  25
ENDBRANCH  20  21
ENDBRANCH   4  20
TORSDOF 9
ENDMDL
