MODEL 1
REMARK VINA RESULT:    -8.010      0.000      0.000
REMARK INTER + INTRA:         -11.206
REMARK INTER:                 -10.117
REMARK INTRA:                  -1.089
REMARK UNBOUND:                -1.089
REMARK  Name = 
REMARK  5 active torsions:
REMARK  status: ('A' for Active; 'I' for Inactive)
REMARK    1  A    between atoms: C_2  and  C_3
REMARK    2  A    between atoms: C_8  and  O_9
REMARK    3  A    between atoms: O_9  and  C_10
REMARK    4  A    between atoms: C_10  and  C_11
REMARK    5  A    between atoms: C_22  and  O_23
REMARK                            x       y       z     vdW  Elec       q    Type
REMARK                         _______ _______ _______ _____ _____    ______ ____
ROOT
ATOM      1  C   UNL     1      44.205   5.536  11.456  0.00  0.00    +0.000 A 
ATOM      2  N   UNL     1      44.625   4.931  10.305  0.00  0.00    +0.000 NA
ATOM      3  C   UNL     1      44.356   3.620  10.094  0.00  0.00    +0.000 A 
ATOM      4  N   UNL     1      44.753   3.039   8.908  0.00  0.00    +0.000 N 
ATOM      5  C   UNL     1      44.994   1.609   8.744  0.00  0.00    +0.000 C 
ATOM      6  C   UNL     1      46.418   1.380   8.236  0.00  0.00    +0.000 C 
ATOM      7  C   UNL     1      46.718   2.208   6.989  0.00  0.00    +0.000 C 
ATOM      8  C   UNL     1      46.408   3.686   7.227  0.00  0.00    +0.000 C 
ATOM      9  C   UNL     1      44.980   3.877   7.733  0.00  0.00    +0.000 C 
ATOM     10  C   UNL     1      43.655   2.896  11.060  0.00  0.00    +0.000 A 
ATOM     11  C   UNL     1      43.219   3.507  12.235  0.00  0.00    +0.000 A 
ATOM     12  C   UNL     1      43.495   4.847  12.435  0.00  0.00    +0.000 A 
ENDROOT
BRANCH  12  13
ATOM     13  O   UNL     1      43.032   5.490  13.545  0.00  0.00    +0.000 OA
ATOM     14  H   UNL     1      42.289   4.982  13.914  0.00  0.00    +0.000 HD
ENDBRANCH  12  13
BRANCH   1  15
ATOM     15  C   UNL     1      44.453   7.024  11.595  0.00  0.00    +0.000 C 
BRANCH  15  16
ATOM     16  O   UNL     1      45.209   7.337  12.768  0.00  0.00    +0.000 OA
BRANCH  16  22
ATOM     17  C   UNL     1      47.357   6.121  13.289  0.00  0.00    +0.000 A 
ATOM     18  N   UNL     1      48.720   6.084  13.182  0.00  0.00    +0.000 NA
ATOM     19  C   UNL     1      49.327   7.098  12.537  0.00  0.00    +0.000 A 
ATOM     20  C   UNL     1      48.642   8.160  11.985  0.00  0.00    +0.000 A 
ATOM     21  C   UNL     1      47.251   8.179  12.102  0.00  0.00    +0.000 A 
ATOM     22  C   UNL     1      46.566   7.148  12.761  0.00  0.00    +0.000 A 
BRANCH  17  24
ATOM     23  N   UNL     1      46.429   4.059  14.570  0.00  0.00    +0.000 NA
ATOM     24  C   UNL     1      46.854   4.983  14.004  0.00  0.00    +0.000 C 
ENDBRANCH  17  24
ENDBRANCH  16  22
ENDBRANCH  15  16
ENDBRANCH   1  15
TORSDOF 5
ENDMDL
MODEL 2
REMARK VINA RESULT:    -6.858      1.510      2.219
REMARK INTER + INTRA:          -9.750
REMARK INTER:                  -8.990
REMARK INTRA:                  -0.761
REMARK UNBOUND:                -1.089
REMARK  Name = 
REMARK  5 active torsions:
REMARK  status: ('A' for Active; 'I' for Inactive)
REMARK    1  A    between atoms: C_2  and  C_3
REMARK    2  A    between atoms: C_8  and  O_9
REMARK    3  A    between atoms: O_9  and  C_10
REMARK    4  A    between atoms: C_10  and  C_11
REMARK    5  A    between atoms: C_22  and  O_23
REMARK                            x       y       z     vdW  Elec       q    Type
REMARK                         _______ _______ _______ _____ _____    ______ ____
ROOT
ATOM      1  C   UNL     1      44.175   5.478  11.435  0.00  0.00    +0.000 A 
ATOM      2  N   UNL     1      44.604   4.879  10.285  0.00  0.00    +0.000 NA
ATOM      3  C   UNL     1      44.349   3.566  10.071  0.00  0.00    +0.000 A 
ATOM      4  N   UNL     1      44.756   2.991   8.885  0.00  0.00    +0.000 N 
ATOM      5  C   UNL     1      45.012   1.564   8.720  0.00  0.00    +0.000 C 
ATOM      6  C   UNL     1      46.440   1.350   8.217  0.00  0.00    +0.000 C 
ATOM      7  C   UNL     1      46.736   2.183   6.972  0.00  0.00    +0.000 C 
ATOM      8  C   UNL     1      46.410   3.657   7.211  0.00  0.00    +0.000 C 
ATOM      9  C   UNL     1      44.979   3.833   7.712  0.00  0.00    +0.000 C 
ATOM     10  C   UNL     1      43.652   2.834  11.033  0.00  0.00    +0.000 A 
ATOM     11  C   UNL     1      43.206   3.439  12.208  0.00  0.00    +0.000 A 
ATOM     12  C   UNL     1      43.468   4.781  12.411  0.00  0.00    +0.000 A 
ENDROOT
BRANCH  12  13
ATOM     13  O   UNL     1      42.995   5.417  13.520  0.00  0.00    +0.000 OA
ATOM     14  H   UNL     1      42.566   4.763  14.097  0.00  0.00    +0.000 HD
ENDBRANCH  12  13
BRANCH   1  15
ATOM     15  C   UNL     1      44.407   6.968  11.577  0.00  0.00    +0.000 C 
BRANCH  15  16
ATOM     16  O   UNL     1      45.163   7.286  12.750  0.00  0.00    +0.000 OA
BRANCH  16  22
ATOM     17  C   UNL     1      47.064   8.884  12.305  0.00  0.00    +0.000 A 
ATOM     18  N   UNL     1      48.415   9.080  12.228  0.00  0.00    +0.000 NA
ATOM     19  C   UNL     1      49.218   8.025  12.465  0.00  0.00    +0.000 A 
ATOM     20  C   UNL     1      48.741   6.769  12.779  0.00  0.00    +0.000 A 
ATOM     21  C   UNL     1      47.360   6.590  12.855  0.00  0.00    +0.000 A 
ATOM     22  C   UNL     1      46.477   7.653  12.621  0.00  0.00    +0.000 A 
BRANCH  17  24
ATOM     23  N   UNL     1      45.769  11.081  11.806  0.00  0.00    +0.000 NA
ATOM     24  C   UNL     1      46.340  10.090  12.024  0.00  0.00    +0.000 C 
ENDBRANCH  17  24
ENDBRANCH  16  22
ENDBRANCH  15  16
ENDBRANCH   1  15
TORSDOF 5
ENDMDL
MODEL 3
REMARK VINA RESULT:    -6.409      2.614      3.633
REMARK INTER + INTRA:          -9.184
REMARK INTER:                  -8.571
REMARK INTRA:                  -0.613
REMARK UNBOUND:                -1.089
REMARK  Name = 
REMARK  5 active torsions:
REMARK  status: ('A' for Active; 'I' for Inactive)
REMARK    1  A    between atoms: C_2  and  C_3
REMARK    2  A    between atoms: C_8  and  O_9
REMARK    3  A    between atoms: O_9  and  C_10
REMARK    4  A    between atoms: C_10  and  C_11
REMARK    5  A    between atoms: C_22  and  O_23
REMARK                            x       y       z     vdW  Elec       q    Type
REMARK                         _______ _______ _______ _____ _____    ______ ____
ROOT
ATOM      1  C   UNL     1      44.905   5.608  11.253  0.00  0.00    +0.000 A 
ATOM      2  N   UNL     1      45.259   4.936  10.118  0.00  0.00    +0.000 NA
ATOM      3  C   UNL     1      44.772   3.692   9.890  0.00  0.00    +0.000 A 
ATOM      4  N   UNL     1      45.109   3.047   8.718  0.00  0.00    +0.000 N 
ATOM      5  C   UNL     1      45.102   1.597   8.558  0.00  0.00    +0.000 C 
ATOM      6  C   UNL     1      46.484   1.120   8.108  0.00  0.00    +0.000 C 
ATOM      7  C   UNL     1      46.975   1.879   6.878  0.00  0.00    +0.000 C 
ATOM      8  C   UNL     1      46.920   3.389   7.110  0.00  0.00    +0.000 C 
ATOM      9  C   UNL     1      45.529   3.829   7.557  0.00  0.00    +0.000 C 
ATOM     10  C   UNL     1      43.916   3.105  10.823  0.00  0.00    +0.000 A 
ATOM     11  C   UNL     1      43.547   3.787  11.982  0.00  0.00    +0.000 A 
ATOM     12  C   UNL     1      44.045   5.058  12.199  0.00  0.00    +0.000 A 
ENDROOT
BRANCH  12  13
ATOM     13  O   UNL     1      43.658   5.775  13.293  0.00  0.00    +0.000 OA
ATOM     14  H   UNL     1      44.023   5.355  14.089  0.00  0.00    +0.000 HD
ENDBRANCH  12  13
BRANCH   1  15
ATOM     15  C   UNL     1      45.404   7.030  11.409  0.00  0.00    +0.000 C 
BRANCH  15  16
ATOM     16  O   UNL     1      44.331   7.973  11.482  0.00  0.00    +0.000 OA
BRANCH  16  22
ATOM     17  C   UNL     1      43.814  10.428  11.213  0.00  0.00    +0.000 A 
ATOM     18  N   UNL     1      44.263  11.718  11.279  0.00  0.00    +0.000 NA
ATOM     19  C   UNL     1      45.549  11.919  11.624  0.00  0.00    +0.000 A 
ATOM     20  C   UNL     1      46.422  10.891  11.911  0.00  0.00    +0.000 A 
ATOM     21  C   UNL     1      45.945   9.582  11.841  0.00  0.00    +0.000 A 
ATOM     22  C   UNL     1      44.615   9.314  11.490  0.00  0.00    +0.000 A 
BRANCH  17  24
ATOM     23  N   UNL     1      41.312  10.344  10.510  0.00  0.00    +0.000 NA
ATOM     24  C   UNL     1      42.432  10.370  10.829  0.00  0.00    +0.000 C 
ENDBRANCH  17  24
ENDBRANCH  16  22
ENDBRANCH  15  16
ENDBRANCH   1  15
TORSDOF 5
ENDMDL
MODEL 4
REMARK VINA RESULT:    -5.962      4.531      8.461
REMARK INTER + INTRA:          -8.619
REMARK INTER:                  -8.013
REMARK INTRA:                  -0.606
REMARK UNBOUND:                -1.089
REMARK  Name = 
REMARK  5 active torsions:
REMARK  status: ('A' for Active; 'I' for Inactive)
REMARK    1  A    between atoms: C_2  and  C_3
REMARK    2  A    between atoms: C_8  and  O_9
REMARK    3  A    between atoms: O_9  and  C_10
REMARK    4  A    between atoms: C_10  and  C_11
REMARK    5  A    between atoms: C_22  and  O_23
REMARK                            x       y       z     vdW  Elec       q    Type
REMARK                         _______ _______ _______ _____ _____    ______ ____
ROOT
ATOM      1  C   UNL     1      47.691   4.564  16.324  0.00  0.00    +0.000 A 
ATOM      2  N   UNL     1      47.828   5.330  17.447  0.00  0.00    +0.000 NA
ATOM      3  C   UNL     1      48.271   4.768  18.598  0.00  0.00    +0.000 A 
ATOM      4  N   UNL     1      48.441   5.567  19.709  0.00  0.00    +0.000 N 
ATOM      5  C   UNL     1      48.412   5.070  21.080  0.00  0.00    +0.000 C 
ATOM      6  C   UNL     1      47.341   5.816  21.878  0.00  0.00    +0.000 C 
ATOM      7  C   UNL     1      47.503   7.330  21.769  0.00  0.00    +0.000 C 
ATOM      8  C   UNL     1      47.562   7.770  20.307  0.00  0.00    +0.000 C 
ATOM      9  C   UNL     1      48.639   7.005  19.542  0.00  0.00    +0.000 C 
ATOM     10  C   UNL     1      48.579   3.407  18.627  0.00  0.00    +0.000 A 
ATOM     11  C   UNL     1      48.446   2.619  17.484  0.00  0.00    +0.000 A 
ATOM     12  C   UNL     1      47.999   3.207  16.314  0.00  0.00    +0.000 A 
ENDROOT
BRANCH  12  13
ATOM     13  O   UNL     1      47.914   2.479  15.165  0.00  0.00    +0.000 OA
ATOM     14  H   UNL     1      48.774   2.058  14.996  0.00  0.00    +0.000 HD
ENDBRANCH  12  13
BRANCH   1  15
ATOM     15  C   UNL     1      47.281   5.264  15.045  0.00  0.00    +0.000 C 
BRANCH  15  16
ATOM     16  O   UNL     1      46.236   4.567  14.360  0.00  0.00    +0.000 OA
BRANCH  16  22
ATOM     17  C   UNL     1      45.007   4.380  12.165  0.00  0.00    +0.000 A 
ATOM     18  N   UNL     1      44.837   4.849  10.892  0.00  0.00    +0.000 NA
ATOM     19  C   UNL     1      45.620   5.866  10.487  0.00  0.00    +0.000 A 
ATOM     20  C   UNL     1      46.576   6.450  11.292  0.00  0.00    +0.000 A 
ATOM     21  C   UNL     1      46.733   5.960  12.588  0.00  0.00    +0.000 A 
ATOM     22  C   UNL     1      45.943   4.904  13.064  0.00  0.00    +0.000 A 
BRANCH  17  24
ATOM     23  N   UNL     1      43.388   2.408  12.663  0.00  0.00    +0.000 NA
ATOM     24  C   UNL     1      44.111   3.297  12.451  0.00  0.00    +0.000 C 
ENDBRANCH  17  24
ENDBRANCH  16  22
ENDBRANCH  15  16
ENDBRANCH   1  15
TORSDOF 5
ENDMDL
MODEL 5
REMARK VINA RESULT:    -5.919      2.805      7.127
REMARK INTER + INTRA:          -8.565
REMARK INTER:                  -7.874
REMARK INTRA:                  -0.691
REMARK UNBOUND:                -1.089
REMARK  Name = 
REMARK  5 active torsions:
REMARK  status: ('A' for Active; 'I' for Inactive)
REMARK    1  A    between atoms: C_2  and  C_3
REMARK    2  A    between atoms: C_8  and  O_9
REMARK    3  A    between atoms: O_9  and  C_10
REMARK    4  A    between atoms: C_10  and  C_11
REMARK    5  A    between atoms: C_22  and  O_23
REMARK                            x       y       z     vdW  Elec       q    Type
REMARK                         _______ _______ _______ _____ _____    ______ ____
ROOT
ATOM      1  C   UNL     1      47.885   7.134  13.634  0.00  0.00    +0.000 A 
ATOM      2  N   UNL     1      47.927   6.421  14.798  0.00  0.00    +0.000 NA
ATOM      3  C   UNL     1      49.051   6.432  15.555  0.00  0.00    +0.000 A 
ATOM      4  N   UNL     1      49.060   5.738  16.748  0.00  0.00    +0.000 N 
ATOM      5  C   UNL     1      50.272   5.243  17.391  0.00  0.00    +0.000 C 
ATOM      6  C   UNL     1      50.164   3.731  17.604  0.00  0.00    +0.000 C 
ATOM      7  C   UNL     1      48.875   3.350  18.328  0.00  0.00    +0.000 C 
ATOM      8  C   UNL     1      47.655   3.933  17.616  0.00  0.00    +0.000 C 
ATOM      9  C   UNL     1      47.797   5.441  17.420  0.00  0.00    +0.000 C 
ATOM     10  C   UNL     1      50.159   7.168  15.134  0.00  0.00    +0.000 A 
ATOM     11  C   UNL     1      50.122   7.903  13.950  0.00  0.00    +0.000 A 
ATOM     12  C   UNL     1      48.967   7.888  13.190  0.00  0.00    +0.000 A 
ENDROOT
BRANCH  12  13
ATOM     13  O   UNL     1      48.876   8.642  12.057  0.00  0.00    +0.000 OA
ATOM     14  H   UNL     1      49.731   9.078  11.901  0.00  0.00    +0.000 HD
ENDBRANCH  12  13
BRANCH   1  15
ATOM     15  C   UNL     1      46.572   7.161  12.877  0.00  0.00    +0.000 C 
BRANCH  15  16
ATOM     16  O   UNL     1      46.522   6.165  11.851  0.00  0.00    +0.000 OA
BRANCH  16  22
ATOM     17  C   UNL     1      45.512   3.985  12.623  0.00  0.00    +0.000 A 
ATOM     18  N   UNL     1      44.455   3.119  12.574  0.00  0.00    +0.000 NA
ATOM     19  C   UNL     1      43.411   3.447  11.789  0.00  0.00    +0.000 A 
ATOM     20  C   UNL     1      43.362   4.605  11.043  0.00  0.00    +0.000 A 
ATOM     21  C   UNL     1      44.448   5.477  11.108  0.00  0.00    +0.000 A 
ATOM     22  C   UNL     1      45.562   5.189  11.910  0.00  0.00    +0.000 A 
BRANCH  17  24
ATOM     23  N   UNL     1      47.386   3.128  14.209  0.00  0.00    +0.000 NA
ATOM     24  C   UNL     1      46.549   3.503  13.491  0.00  0.00    +0.000 C 
ENDBRANCH  17  24
ENDBRANCH  16  22
ENDBRANCH  15  16
ENDBRANCH   1  15
TORSDOF 5
ENDMDL
MODEL 6
REMARK VINA RESULT:    -5.894      3.380      7.503
REMARK INTER + INTRA:          -8.533
REMARK INTER:                  -7.954
REMARK INTRA:                  -0.579
REMARK UNBOUND:                -1.089
REMARK  Name = 
REMARK  5 active torsions:
REMARK  status: ('A' for Active; 'I' for Inactive)
REMARK    1  A    between atoms: C_2  and  C_3
REMARK    2  A    between atoms: C_8  and  O_9
REMARK    3  A    between atoms: O_9  and  C_10
REMARK    4  A    between atoms: C_10  and  C_11
REMARK    5  A    between atoms: C_22  and  O_23
REMARK                            x       y       z     vdW  Elec       q    Type
REMARK                         _______ _______ _______ _____ _____    ______ ____
ROOT
ATOM      1  C   UNL     1      47.681   4.556  16.026  0.00  0.00    +0.000 A 
ATOM      2  N   UNL     1      48.575   5.577  15.874  0.00  0.00    +0.000 NA
ATOM      3  C   UNL     1      49.036   6.238  16.963  0.00  0.00    +0.000 A 
ATOM      4  N   UNL     1      49.970   7.239  16.790  0.00  0.00    +0.000 N 
ATOM      5  C   UNL     1      50.171   8.334  17.733  0.00  0.00    +0.000 C 
ATOM      6  C   UNL     1      49.996   9.673  17.016  0.00  0.00    +0.000 C 
ATOM      7  C   UNL     1      50.863   9.765  15.763  0.00  0.00    +0.000 C 
ATOM      8  C   UNL     1      50.622   8.568  14.843  0.00  0.00    +0.000 C 
ATOM      9  C   UNL     1      50.805   7.250  15.592  0.00  0.00    +0.000 C 
ATOM     10  C   UNL     1      48.588   5.873  18.233  0.00  0.00    +0.000 A 
ATOM     11  C   UNL     1      47.679   4.828  18.397  0.00  0.00    +0.000 A 
ATOM     12  C   UNL     1      47.221   4.157  17.278  0.00  0.00    +0.000 A 
ENDROOT
BRANCH  12  13
ATOM     13  O   UNL     1      46.377   3.094  17.407  0.00  0.00    +0.000 OA
ATOM     14  H   UNL     1      45.631   3.352  17.974  0.00  0.00    +0.000 HD
ENDBRANCH  12  13
BRANCH   1  15
ATOM     15  C   UNL     1      47.272   3.792  14.783  0.00  0.00    +0.000 C 
BRANCH  15  16
ATOM     16  O   UNL     1      45.959   4.149  14.339  0.00  0.00    +0.000 OA
BRANCH  16  22
ATOM     17  C   UNL     1      44.941   4.262  12.034  0.00  0.00    +0.000 A 
ATOM     18  N   UNL     1      44.895   4.890  10.820  0.00  0.00    +0.000 NA
ATOM     19  C   UNL     1      45.722   5.934  10.621  0.00  0.00    +0.000 A 
ATOM     20  C   UNL     1      46.601   6.394  11.578  0.00  0.00    +0.000 A 
ATOM     21  C   UNL     1      46.632   5.742  12.811  0.00  0.00    +0.000 A 
ATOM     22  C   UNL     1      45.792   4.651  13.075  0.00  0.00    +0.000 A 
BRANCH  17  24
ATOM     23  N   UNL     1      43.277   2.267  12.139  0.00  0.00    +0.000 NA
ATOM     24  C   UNL     1      44.014   3.169  12.096  0.00  0.00    +0.000 C 
ENDBRANCH  17  24
ENDBRANCH  16  22
ENDBRANCH  15  16
ENDBRANCH   1  15
TORSDOF 5
ENDMDL
MODEL 7
REMARK VINA RESULT:    -5.880      2.697      7.069
REMARK INTER + INTRA:          -8.515
REMARK INTER:                  -7.866
REMARK INTRA:                  -0.649
REMARK UNBOUND:                -1.089
REMARK  Name = 
REMARK  5 active torsions:
REMARK  status: ('A' for Active; 'I' for Inactive)
REMARK    1  A    between atoms: C_2  and  C_3
REMARK    2  A    between atoms: C_8  and  O_9
REMARK    3  A    between atoms: O_9  and  C_10
REMARK    4  A    between atoms: C_10  and  C_11
REMARK    5  A    between atoms: C_22  and  O_23
REMARK                            x       y       z     vdW  Elec       q    Type
REMARK                         _______ _______ _______ _____ _____    ______ ____
ROOT
ATOM      1  C   UNL     1      47.999   6.812  13.430  0.00  0.00    +0.000 A 
ATOM      2  N   UNL     1      48.064   5.845  14.393  0.00  0.00    +0.000 NA
ATOM      3  C   UNL     1      48.486   6.162  15.641  0.00  0.00    +0.000 A 
ATOM      4  N   UNL     1      48.506   5.180  16.609  0.00  0.00    +0.000 N 
ATOM      5  C   UNL     1      49.367   5.217  17.786  0.00  0.00    +0.000 C 
ATOM      6  C   UNL     1      50.232   3.956  17.833  0.00  0.00    +0.000 C 
ATOM      7  C   UNL     1      49.394   2.686  17.716  0.00  0.00    +0.000 C 
ATOM      8  C   UNL     1      48.494   2.737  16.481  0.00  0.00    +0.000 C 
ATOM      9  C   UNL     1      47.647   4.007  16.467  0.00  0.00    +0.000 C 
ATOM     10  C   UNL     1      48.857   7.476  15.930  0.00  0.00    +0.000 A 
ATOM     11  C   UNL     1      48.788   8.470  14.954  0.00  0.00    +0.000 A 
ATOM     12  C   UNL     1      48.350   8.134  13.686  0.00  0.00    +0.000 A 
ENDROOT
BRANCH  12  13
ATOM     13  O   UNL     1      48.214   9.092  12.726  0.00  0.00    +0.000 OA
ATOM     14  H   UNL     1      48.902   9.767  12.857  0.00  0.00    +0.000 HD
ENDBRANCH  12  13
BRANCH   1  15
ATOM     15  C   UNL     1      47.431   6.419  12.081  0.00  0.00    +0.000 C 
BRANCH  15  16
ATOM     16  O   UNL     1      46.082   6.864  11.914  0.00  0.00    +0.000 OA
BRANCH  16  22
ATOM     17  C   UNL     1      44.764   5.109  10.670  0.00  0.00    +0.000 A 
ATOM     18  N   UNL     1      43.724   4.221  10.680  0.00  0.00    +0.000 NA
ATOM     19  C   UNL     1      42.970   4.149  11.793  0.00  0.00    +0.000 A 
ATOM     20  C   UNL     1      43.198   4.924  12.911  0.00  0.00    +0.000 A 
ATOM     21  C   UNL     1      44.264   5.823  12.882  0.00  0.00    +0.000 A 
ATOM     22  C   UNL     1      45.085   5.938  11.751  0.00  0.00    +0.000 A 
BRANCH  17  24
ATOM     23  N   UNL     1      46.063   5.057   8.419  0.00  0.00    +0.000 NA
ATOM     24  C   UNL     1      45.470   5.079   9.421  0.00  0.00    +0.000 C 
ENDBRANCH  17  24
ENDBRANCH  16  22
ENDBRANCH  15  16
ENDBRANCH   1  15
TORSDOF 5
ENDMDL
MODEL 8
REMARK VINA RESULT:    -5.682      3.390      5.837
REMARK INTER + INTRA:          -8.265
REMARK INTER:                  -7.766
REMARK INTRA:                  -0.499
REMARK UNBOUND:                -1.089
REMARK  Name = 
REMARK  5 active torsions:
REMARK  status: ('A' for Active; 'I' for Inactive)
REMARK    1  A    between atoms: C_2  and  C_3
REMARK    2  A    between atoms: C_8  and  O_9
REMARK    3  A    between atoms: O_9  and  C_10
REMARK    4  A    between atoms: C_10  and  C_11
REMARK    5  A    between atoms: C_22  and  O_23
REMARK                            x       y       z     vdW  Elec       q    Type
REMARK                         _______ _______ _______ _____ _____    ______ ____
ROOT
ATOM      1  C   UNL     1      48.296   6.946  14.028  0.00  0.00    +0.000 A 
ATOM      2  N   UNL     1      47.210   6.215  13.639  0.00  0.00    +0.000 NA
ATOM      3  C   UNL     1      46.829   6.211  12.339  0.00  0.00    +0.000 A 
ATOM      4  N   UNL     1      45.754   5.434  11.960  0.00  0.00    +0.000 N 
ATOM      5  C   UNL     1      44.937   5.696  10.781  0.00  0.00    +0.000 C 
ATOM      6  C   UNL     1      43.471   5.850  11.191  0.00  0.00    +0.000 C 
ATOM      7  C   UNL     1      42.989   4.669  12.031  0.00  0.00    +0.000 C 
ATOM      8  C   UNL     1      43.914   4.435  13.226  0.00  0.00    +0.000 C 
ATOM      9  C   UNL     1      45.366   4.287  12.779  0.00  0.00    +0.000 C 
ATOM     10  C   UNL     1      47.549   6.960  11.408  0.00  0.00    +0.000 A 
ATOM     11  C   UNL     1      48.662   7.705  11.795  0.00  0.00    +0.000 A 
ATOM     12  C   UNL     1      49.044   7.696  13.125  0.00  0.00    +0.000 A 
ENDROOT
BRANCH  12  13
ATOM     13  O   UNL     1      50.161   8.366  13.527  0.00  0.00    +0.000 OA
ATOM     14  H   UNL     1      49.931   8.938  14.278  0.00  0.00    +0.000 HD
ENDBRANCH  12  13
BRANCH   1  15
ATOM     15  C   UNL     1      48.730   6.839  15.476  0.00  0.00    +0.000 C 
BRANCH  15  16
ATOM     16  O   UNL     1      49.173   5.520  15.809  0.00  0.00    +0.000 OA
BRANCH  16  22
ATOM     17  C   UNL     1      48.990   3.738  17.585  0.00  0.00    +0.000 A 
ATOM     18  N   UNL     1      48.762   3.435  18.899  0.00  0.00    +0.000 NA
ATOM     19  C   UNL     1      48.492   4.450  19.741  0.00  0.00    +0.000 A 
ATOM     20  C   UNL     1      48.437   5.769  19.340  0.00  0.00    +0.000 A 
ATOM     21  C   UNL     1      48.674   6.059  17.996  0.00  0.00    +0.000 A 
ATOM     22  C   UNL     1      48.963   5.041  17.076  0.00  0.00    +0.000 A 
BRANCH  17  24
ATOM     23  N   UNL     1      49.472   1.616  16.164  0.00  0.00    +0.000 NA
ATOM     24  C   UNL     1      49.256   2.560  16.811  0.00  0.00    +0.000 C 
ENDBRANCH  17  24
ENDBRANCH  16  22
ENDBRANCH  15  16
ENDBRANCH   1  15
TORSDOF 5
ENDMDL
MODEL 9
REMARK VINA RESULT:    -5.646      2.879      7.234
REMARK INTER + INTRA:          -8.220
REMARK INTER:                  -7.573
REMARK INTRA:                  -0.647
REMARK UNBOUND:                -1.089
REMARK  Name = 
REMARK  5 active torsions:
REMARK  status: ('A' for Active; 'I' for Inactive)
REMARK    1  A    between atoms: C_2  and  C_3
REMARK    2  A    between atoms: C_8  and  O_9
REMARK    3  A    between atoms: O_9  and  C_10
REMARK    4  A    between atoms: C_10  and  C_11
REMARK    5  A    between atoms: C_22  and  O_23
REMARK                            x       y       z     vdW  Elec       q    Type
REMARK                         _______ _______ _______ _____ _____    ______ ____
ROOT
ATOM      1  C   UNL     1      47.499   4.668  15.516  0.00  0.00    +0.000 A 
ATOM      2  N   UNL     1      48.271   5.746  15.186  0.00  0.00    +0.000 NA
ATOM      3  C   UNL     1      48.841   6.492  16.164  0.00  0.00    +0.000 A 
ATOM      4  N   UNL     1      49.650   7.552  15.809  0.00  0.00    +0.000 N 
ATOM      5  C   UNL     1      49.906   8.701  16.670  0.00  0.00    +0.000 C 
ATOM      6  C   UNL     1      49.510   9.989  15.944  0.00  0.00    +0.000 C 
ATOM      7  C   UNL     1      50.158  10.087  14.566  0.00  0.00    +0.000 C 
ATOM      8  C   UNL     1      49.875   8.833  13.738  0.00  0.00    +0.000 C 
ATOM      9  C   UNL     1      50.283   7.570  14.492  0.00  0.00    +0.000 C 
ATOM     10  C   UNL     1      48.630   6.153  17.501  0.00  0.00    +0.000 A 
ATOM     11  C   UNL     1      47.848   5.051  17.845  0.00  0.00    +0.000 A 
ATOM     12  C   UNL     1      47.277   4.295  16.838  0.00  0.00    +0.000 A 
ENDROOT
BRANCH  12  13
ATOM     13  O   UNL     1      46.556   3.178  17.138  0.00  0.00    +0.000 OA
ATOM     14  H   UNL     1      46.470   3.109  18.104  0.00  0.00    +0.000 HD
ENDBRANCH  12  13
BRANCH   1  15
ATOM     15  C   UNL     1      46.965   3.818  14.381  0.00  0.00    +0.000 C 
BRANCH  15  16
ATOM     16  O   UNL     1      45.683   4.266  13.931  0.00  0.00    +0.000 OA
BRANCH  16  22
ATOM     17  C   UNL     1      45.704   5.428  11.692  0.00  0.00    +0.000 A 
ATOM     18  N   UNL     1      45.410   5.373  10.357  0.00  0.00    +0.000 NA
ATOM     19  C   UNL     1      44.835   4.249   9.887  0.00  0.00    +0.000 A 
ATOM     20  C   UNL     1      44.536   3.164  10.683  0.00  0.00    +0.000 A 
ATOM     21  C   UNL     1      44.846   3.238  12.041  0.00  0.00    +0.000 A 
ATOM     22  C   UNL     1      45.447   4.382  12.585  0.00  0.00    +0.000 A 
BRANCH  17  24
ATOM     23  N   UNL     1      46.773   7.704  12.351  0.00  0.00    +0.000 NA
ATOM     24  C   UNL     1      46.303   6.683  12.047  0.00  0.00    +0.000 C 
ENDBRANCH  17  24
ENDBRANCH  16  22
ENDBRANCH  15  16
ENDBRANCH   1  15
TORSDOF 5
ENDMDL
