MODEL 1
REMARK VINA RESULT:    -7.868      0.000      0.000
REMARK INTER + INTRA:          -9.805
REMARK INTER:                  -9.248
REMARK INTRA:                  -0.557
REMARK UNBOUND:                -0.557
REMARK  Name = 
REMARK  3 active torsions:
REMARK  status: ('A' for Active; 'I' for Inactive)
REMARK    1  A    between atoms: N_6  and  C_7
REMARK    2  A    between atoms: C_7  and  C_8
REMARK    3  A    between atoms: C_13  and  C_14
REMARK                            x       y       z     vdW  Elec       q    Type
REMARK                         _______ _______ _______ _____ _____    ______ ____
ROOT
ATOM      1  C   UNL     1      44.721   4.093  11.324  0.00  0.00    +0.000 A 
ATOM      2  C   UNL     1      45.465   3.524  12.369  0.00  0.00    +0.000 A 
ATOM      3  C   UNL     1      46.142   4.344  13.270  0.00  0.00    +0.000 A 
ATOM      4  F   UNL     1      46.867   3.782  14.247  0.00  0.00    +0.000 F 
ATOM      5  C   UNL     1      46.085   5.729  13.171  0.00  0.00    +0.000 A 
ATOM      6  C   UNL     1      45.330   6.314  12.153  0.00  0.00    +0.000 A 
ATOM      7  C   UNL     1      44.649   5.493  11.238  0.00  0.00    +0.000 A 
ENDROOT
BRANCH   6   8
ATOM      8  C   UNL     1      45.264   7.774  12.002  0.00  0.00    +0.000 C 
ATOM      9  C   UNL     1      44.313   8.351  11.248  0.00  0.00    +0.000 C 
ATOM     10  C   UNL     1      44.151   9.842  11.163  0.00  0.00    +0.000 C 
ATOM     11  O   UNL     1      44.889  10.531  12.177  0.00  0.00    +0.000 OA
ATOM     12  C   UNL     1      46.234  10.060  12.271  0.00  0.00    +0.000 C 
ATOM     13  C   UNL     1      46.255   8.610  12.763  0.00  0.00    +0.000 C 
ENDBRANCH   6   8
BRANCH   1  14
ATOM     14  C   UNL     1      44.027   3.210  10.309  0.00  0.00    +0.000 C 
BRANCH  14  20
ATOM     15  F   UNL     1      47.909   2.640   5.372  0.00  0.00    +0.000 F 
ATOM     16  C   UNL     1      47.138   2.524   6.458  0.00  0.00    +0.000 A 
ATOM     17  C   UNL     1      46.364   3.558   6.916  0.00  0.00    +0.000 A 
ATOM     18  N   UNL     1      45.601   3.477   8.032  0.00  0.00    +0.000 NA
ATOM     19  C   UNL     1      45.608   2.309   8.694  0.00  0.00    +0.000 A 
ATOM     20  N   UNL     1      44.912   2.163   9.871  0.00  0.00    +0.000 N 
ATOM     21  N   UNL     1      46.304   1.229   8.293  0.00  0.00    +0.000 NA
ATOM     22  C   UNL     1      47.075   1.370   7.189  0.00  0.00    +0.000 A 
ATOM     23  H   UNL     1      44.722   1.200  10.103  0.00  0.00    +0.000 HD
ENDBRANCH  14  20
ENDBRANCH   1  14
TORSDOF 3
ENDMDL
MODEL 2
REMARK VINA RESULT:    -7.638      1.338      1.773
REMARK INTER + INTRA:          -9.534
REMARK INTER:                  -8.960
REMARK INTRA:                  -0.575
REMARK UNBOUND:                -0.557
REMARK  Name = 
REMARK  3 active torsions:
REMARK  status: ('A' for Active; 'I' for Inactive)
REMARK    1  A    between atoms: N_6  and  C_7
REMARK    2  A    between atoms: C_7  and  C_8
REMARK    3  A    between atoms: C_13  and  C_14
REMARK                            x       y       z     vdW  Elec       q    Type
REMARK                         _______ _______ _______ _____ _____    ______ ____
ROOT
ATOM      1  C   UNL     1      45.051   4.429  11.321  0.00  0.00    +0.000 A 
ATOM      2  C   UNL     1      45.526   3.591  12.342  0.00  0.00    +0.000 A 
ATOM      3  C   UNL     1      46.446   4.075  13.270  0.00  0.00    +0.000 A 
ATOM      4  F   UNL     1      46.907   3.252  14.223  0.00  0.00    +0.000 F 
ATOM      5  C   UNL     1      46.900   5.388  13.222  0.00  0.00    +0.000 A 
ATOM      6  C   UNL     1      46.420   6.244  12.230  0.00  0.00    +0.000 A 
ATOM      7  C   UNL     1      45.496   5.761  11.287  0.00  0.00    +0.000 A 
ENDROOT
BRANCH   6   8
ATOM      8  C   UNL     1      46.893   7.631  12.133  0.00  0.00    +0.000 C 
ATOM      9  C   UNL     1      46.027   8.659  12.103  0.00  0.00    +0.000 C 
ATOM     10  C   UNL     1      46.479  10.091  12.117  0.00  0.00    +0.000 C 
ATOM     11  O   UNL     1      47.860  10.225  12.469  0.00  0.00    +0.000 OA
ATOM     12  C   UNL     1      48.687   9.322  11.733  0.00  0.00    +0.000 C 
ATOM     13  C   UNL     1      48.376   7.876  12.128  0.00  0.00    +0.000 C 
ENDBRANCH   6   8
BRANCH   1  14
ATOM     14  C   UNL     1      44.094   3.897  10.276  0.00  0.00    +0.000 C 
BRANCH  14  20
ATOM     15  F   UNL     1      47.716   0.960   6.032  0.00  0.00    +0.000 F 
ATOM     16  C   UNL     1      46.965   1.775   6.779  0.00  0.00    +0.000 A 
ATOM     17  C   UNL     1      46.465   1.394   7.997  0.00  0.00    +0.000 A 
ATOM     18  N   UNL     1      45.674   2.187   8.757  0.00  0.00    +0.000 NA
ATOM     19  C   UNL     1      45.395   3.410   8.279  0.00  0.00    +0.000 A 
ATOM     20  N   UNL     1      44.547   4.254   8.957  0.00  0.00    +0.000 N 
ATOM     21  N   UNL     1      45.876   3.882   7.114  0.00  0.00    +0.000 NA
ATOM     22  C   UNL     1      46.637   3.040   6.376  0.00  0.00    +0.000 A 
ATOM     23  H   UNL     1      44.659   5.221   8.697  0.00  0.00    +0.000 HD
ENDBRANCH  14  20
ENDBRANCH   1  14
TORSDOF 3
ENDMDL
MODEL 3
REMARK VINA RESULT:    -7.345      2.033      2.382
REMARK INTER + INTRA:          -9.191
REMARK INTER:                  -8.721
REMARK INTRA:                  -0.469
REMARK UNBOUND:                -0.557
REMARK  Name = 
REMARK  3 active torsions:
REMARK  status: ('A' for Active; 'I' for Inactive)
REMARK    1  A    between atoms: N_6  and  C_7
REMARK    2  A    between atoms: C_7  and  C_8
REMARK    3  A    between atoms: C_13  and  C_14
REMARK                            x       y       z     vdW  Elec       q    Type
REMARK                         _______ _______ _______ _____ _____    ______ ____
ROOT
ATOM      1  C   UNL     1      44.570   4.929  10.374  0.00  0.00    +0.000 A 
ATOM      2  C   UNL     1      43.574   4.767  11.349  0.00  0.00    +0.000 A 
ATOM      3  C   UNL     1      43.692   5.408  12.581  0.00  0.00    +0.000 A 
ATOM      4  F   UNL     1      42.743   5.222  13.508  0.00  0.00    +0.000 F 
ATOM      5  C   UNL     1      44.778   6.228  12.868  0.00  0.00    +0.000 A 
ATOM      6  C   UNL     1      45.767   6.421  11.902  0.00  0.00    +0.000 A 
ATOM      7  C   UNL     1      45.656   5.773  10.660  0.00  0.00    +0.000 A 
ENDROOT
BRANCH   6   8
ATOM      8  C   UNL     1      46.939   7.262  12.177  0.00  0.00    +0.000 C 
ATOM      9  C   UNL     1      46.848   8.603  12.172  0.00  0.00    +0.000 C 
ATOM     10  C   UNL     1      47.999   9.487  12.557  0.00  0.00    +0.000 C 
ATOM     11  O   UNL     1      49.052   8.764  13.203  0.00  0.00    +0.000 OA
ATOM     12  C   UNL     1      49.397   7.575  12.490  0.00  0.00    +0.000 C 
ATOM     13  C   UNL     1      48.234   6.581  12.523  0.00  0.00    +0.000 C 
ENDBRANCH   6   8
BRANCH   1  14
ATOM     14  C   UNL     1      44.478   4.194   9.054  0.00  0.00    +0.000 C 
BRANCH  14  20
ATOM     15  F   UNL     1      48.117   0.843   5.144  0.00  0.00    +0.000 F 
ATOM     16  C   UNL     1      47.343   1.348   6.109  0.00  0.00    +0.000 A 
ATOM     17  C   UNL     1      46.824   2.615   6.039  0.00  0.00    +0.000 A 
ATOM     18  N   UNL     1      46.066   3.162   7.018  0.00  0.00    +0.000 NA
ATOM     19  C   UNL     1      45.809   2.399   8.092  0.00  0.00    +0.000 A 
ATOM     20  N   UNL     1      45.101   2.901   9.159  0.00  0.00    +0.000 N 
ATOM     21  N   UNL     1      46.242   1.132   8.225  0.00  0.00    +0.000 NA
ATOM     22  C   UNL     1      47.022   0.640   7.234  0.00  0.00    +0.000 A 
ATOM     23  H   UNL     1      44.699   2.182   9.741  0.00  0.00    +0.000 HD
ENDBRANCH  14  20
ENDBRANCH   1  14
TORSDOF 3
ENDMDL
MODEL 4
REMARK VINA RESULT:    -7.108      4.065      6.881
REMARK INTER + INTRA:          -8.912
REMARK INTER:                  -8.314
REMARK INTRA:                  -0.598
REMARK UNBOUND:                -0.557
REMARK  Name = 
REMARK  3 active torsions:
REMARK  status: ('A' for Active; 'I' for Inactive)
REMARK    1  A    between atoms: N_6  and  C_7
REMARK    2  A    between atoms: C_7  and  C_8
REMARK    3  A    between atoms: C_13  and  C_14
REMARK                            x       y       z     vdW  Elec       q    Type
REMARK                         _______ _______ _______ _____ _____    ______ ____
ROOT
ATOM      1  C   UNL     1      44.816   5.075  10.667  0.00  0.00    +0.000 A 
ATOM      2  C   UNL     1      43.944   4.226  11.366  0.00  0.00    +0.000 A 
ATOM      3  C   UNL     1      43.750   2.916  10.934  0.00  0.00    +0.000 A 
ATOM      4  F   UNL     1      42.895   2.128  11.600  0.00  0.00    +0.000 F 
ATOM      5  C   UNL     1      44.419   2.414   9.824  0.00  0.00    +0.000 A 
ATOM      6  C   UNL     1      45.310   3.234   9.130  0.00  0.00    +0.000 A 
ATOM      7  C   UNL     1      45.506   4.559   9.557  0.00  0.00    +0.000 A 
ENDROOT
BRANCH   6   8
ATOM      8  C   UNL     1      46.019   2.747   7.940  0.00  0.00    +0.000 C 
ATOM      9  C   UNL     1      46.194   3.535   6.865  0.00  0.00    +0.000 C 
ATOM     10  C   UNL     1      47.008   3.106   5.678  0.00  0.00    +0.000 C 
ATOM     11  O   UNL     1      47.798   1.943   5.949  0.00  0.00    +0.000 OA
ATOM     12  C   UNL     1      47.032   0.914   6.578  0.00  0.00    +0.000 C 
ATOM     13  C   UNL     1      46.595   1.359   7.977  0.00  0.00    +0.000 C 
ENDBRANCH   6   8
BRANCH   1  14
ATOM     14  C   UNL     1      44.992   6.516  11.096  0.00  0.00    +0.000 C 
BRANCH  14  20
ATOM     15  F   UNL     1      50.798   7.896  13.133  0.00  0.00    +0.000 F 
ATOM     16  C   UNL     1      49.526   7.538  12.934  0.00  0.00    +0.000 A 
ATOM     17  C   UNL     1      48.945   7.566  11.693  0.00  0.00    +0.000 A 
ATOM     18  N   UNL     1      47.650   7.242  11.471  0.00  0.00    +0.000 NA
ATOM     19  C   UNL     1      46.924   6.861  12.534  0.00  0.00    +0.000 A 
ATOM     20  N   UNL     1      45.585   6.577  12.407  0.00  0.00    +0.000 N 
ATOM     21  N   UNL     1      47.423   6.764  13.781  0.00  0.00    +0.000 NA
ATOM     22  C   UNL     1      48.715   7.128  13.957  0.00  0.00    +0.000 A 
ATOM     23  H   UNL     1      45.226   6.010  13.159  0.00  0.00    +0.000 HD
ENDBRANCH  14  20
ENDBRANCH   1  14
TORSDOF 3
ENDMDL
MODEL 5
REMARK VINA RESULT:    -7.081      4.407      7.325
REMARK INTER + INTRA:          -8.880
REMARK INTER:                  -8.461
REMARK INTRA:                  -0.419
REMARK UNBOUND:                -0.557
REMARK  Name = 
REMARK  3 active torsions:
REMARK  status: ('A' for Active; 'I' for Inactive)
REMARK    1  A    between atoms: N_6  and  C_7
REMARK    2  A    between atoms: C_7  and  C_8
REMARK    3  A    between atoms: C_13  and  C_14
REMARK                            x       y       z     vdW  Elec       q    Type
REMARK                         _______ _______ _______ _____ _____    ______ ____
ROOT
ATOM      1  C   UNL     1      45.099   4.952  12.879  0.00  0.00    +0.000 A 
ATOM      2  C   UNL     1      43.767   5.392  12.876  0.00  0.00    +0.000 A 
ATOM      3  C   UNL     1      42.989   5.253  11.728  0.00  0.00    +0.000 A 
ATOM      4  F   UNL     1      41.727   5.703  11.736  0.00  0.00    +0.000 F 
ATOM      5  C   UNL     1      43.499   4.666  10.576  0.00  0.00    +0.000 A 
ATOM      6  C   UNL     1      44.814   4.199  10.567  0.00  0.00    +0.000 A 
ATOM      7  C   UNL     1      45.606   4.341  11.719  0.00  0.00    +0.000 A 
ENDROOT
BRANCH   6   8
ATOM      8  C   UNL     1      45.395   3.593   9.362  0.00  0.00    +0.000 C 
ATOM      9  C   UNL     1      45.463   2.258   9.219  0.00  0.00    +0.000 C 
ATOM     10  C   UNL     1      45.947   1.609   7.955  0.00  0.00    +0.000 C 
ATOM     11  O   UNL     1      46.023   2.530   6.862  0.00  0.00    +0.000 OA
ATOM     12  C   UNL     1      46.688   3.740   7.230  0.00  0.00    +0.000 C 
ATOM     13  C   UNL     1      45.858   4.508   8.262  0.00  0.00    +0.000 C 
ENDBRANCH   6   8
BRANCH   1  14
ATOM     14  C   UNL     1      45.969   5.148  14.103  0.00  0.00    +0.000 C 
BRANCH  14  20
ATOM     15  F   UNL     1      50.186   3.568  18.517  0.00  0.00    +0.000 F 
ATOM     16  C   UNL     1      49.308   3.667  17.514  0.00  0.00    +0.000 A 
ATOM     17  C   UNL     1      48.727   4.859  17.168  0.00  0.00    +0.000 A 
ATOM     18  N   UNL     1      47.811   4.980  16.179  0.00  0.00    +0.000 NA
ATOM     19  C   UNL     1      47.484   3.864  15.508  0.00  0.00    +0.000 A 
ATOM     20  N   UNL     1      46.515   3.887  14.533  0.00  0.00    +0.000 N 
ATOM     21  N   UNL     1      48.035   2.661  15.752  0.00  0.00    +0.000 NA
ATOM     22  C   UNL     1      48.924   2.586  16.770  0.00  0.00    +0.000 A 
ATOM     23  H   UNL     1      46.577   3.110  13.894  0.00  0.00    +0.000 HD
ENDBRANCH  14  20
ENDBRANCH   1  14
TORSDOF 3
ENDMDL
MODEL 6
REMARK VINA RESULT:    -6.804      5.055      7.601
REMARK INTER + INTRA:          -8.555
REMARK INTER:                  -7.979
REMARK INTRA:                  -0.576
REMARK UNBOUND:                -0.557
REMARK  Name = 
REMARK  3 active torsions:
REMARK  status: ('A' for Active; 'I' for Inactive)
REMARK    1  A    between atoms: N_6  and  C_7
REMARK    2  A    between atoms: C_7  and  C_8
REMARK    3  A    between atoms: C_13  and  C_14
REMARK                            x       y       z     vdW  Elec       q    Type
REMARK                         _______ _______ _______ _____ _____    ______ ____
ROOT
ATOM      1  C   UNL     1      47.267   4.969  15.118  0.00  0.00    +0.000 A 
ATOM      2  C   UNL     1      48.110   6.018  14.719  0.00  0.00    +0.000 A 
ATOM      3  C   UNL     1      48.026   6.527  13.425  0.00  0.00    +0.000 A 
ATOM      4  F   UNL     1      48.857   7.512  13.055  0.00  0.00    +0.000 F 
ATOM      5  C   UNL     1      47.107   6.028  12.509  0.00  0.00    +0.000 A 
ATOM      6  C   UNL     1      46.243   5.002  12.894  0.00  0.00    +0.000 A 
ATOM      7  C   UNL     1      46.325   4.480  14.197  0.00  0.00    +0.000 A 
ENDROOT
BRANCH   6   8
ATOM      8  C   UNL     1      45.273   4.434  11.948  0.00  0.00    +0.000 C 
ATOM      9  C   UNL     1      45.153   4.921  10.702  0.00  0.00    +0.000 C 
ATOM     10  C   UNL     1      44.253   4.293   9.677  0.00  0.00    +0.000 C 
ATOM     11  O   UNL     1      43.803   2.992  10.069  0.00  0.00    +0.000 OA
ATOM     12  C   UNL     1      43.316   2.978  11.412  0.00  0.00    +0.000 C 
ATOM     13  C   UNL     1      44.459   3.251  12.393  0.00  0.00    +0.000 C 
ENDBRANCH   6   8
BRANCH   1  14
ATOM     14  C   UNL     1      47.387   4.373  16.504  0.00  0.00    +0.000 C 
BRANCH  14  20
ATOM     15  F   UNL     1      53.123   2.355  18.173  0.00  0.00    +0.000 F 
ATOM     16  C   UNL     1      51.883   2.560  17.718  0.00  0.00    +0.000 A 
ATOM     17  C   UNL     1      51.244   3.764  17.861  0.00  0.00    +0.000 A 
ATOM     18  N   UNL     1      49.977   3.987  17.440  0.00  0.00    +0.000 NA
ATOM     19  C   UNL     1      49.343   2.967  16.840  0.00  0.00    +0.000 A 
ATOM     20  N   UNL     1      48.033   3.089  16.440  0.00  0.00    +0.000 N 
ATOM     21  N   UNL     1      49.909   1.765  16.619  0.00  0.00    +0.000 NA
ATOM     22  C   UNL     1      51.166   1.582  17.086  0.00  0.00    +0.000 A 
ATOM     23  H   UNL     1      47.768   2.415  15.739  0.00  0.00    +0.000 HD
ENDBRANCH  14  20
ENDBRANCH   1  14
TORSDOF 3
ENDMDL
MODEL 7
REMARK VINA RESULT:    -6.733      3.548      5.043
REMARK INTER + INTRA:          -8.471
REMARK INTER:                  -7.890
REMARK INTRA:                  -0.582
REMARK UNBOUND:                -0.557
REMARK  Name = 
REMARK  3 active torsions:
REMARK  status: ('A' for Active; 'I' for Inactive)
REMARK    1  A    between atoms: N_6  and  C_7
REMARK    2  A    between atoms: C_7  and  C_8
REMARK    3  A    between atoms: C_13  and  C_14
REMARK                            x       y       z     vdW  Elec       q    Type
REMARK                         _______ _______ _______ _____ _____    ______ ____
ROOT
ATOM      1  C   UNL     1      46.454   6.667  12.280  0.00  0.00    +0.000 A 
ATOM      2  C   UNL     1      47.544   7.382  11.761  0.00  0.00    +0.000 A 
ATOM      3  C   UNL     1      48.737   7.454  12.478  0.00  0.00    +0.000 A 
ATOM      4  F   UNL     1      49.759   8.162  11.978  0.00  0.00    +0.000 F 
ATOM      5  C   UNL     1      48.884   6.813  13.703  0.00  0.00    +0.000 A 
ATOM      6  C   UNL     1      47.819   6.076  14.224  0.00  0.00    +0.000 A 
ATOM      7  C   UNL     1      46.611   6.004  13.509  0.00  0.00    +0.000 A 
ENDROOT
BRANCH   6   8
ATOM      8  C   UNL     1      47.929   5.404  15.526  0.00  0.00    +0.000 C 
ATOM      9  C   UNL     1      47.215   4.299  15.798  0.00  0.00    +0.000 C 
ATOM     10  C   UNL     1      47.386   3.526  17.075  0.00  0.00    +0.000 C 
ATOM     11  O   UNL     1      48.566   3.907  17.790  0.00  0.00    +0.000 OA
ATOM     12  C   UNL     1      48.684   5.326  17.905  0.00  0.00    +0.000 C 
ATOM     13  C   UNL     1      48.907   5.953  16.526  0.00  0.00    +0.000 C 
ENDBRANCH   6   8
BRANCH   1  14
ATOM     14  C   UNL     1      45.137   6.628  11.534  0.00  0.00    +0.000 C 
BRANCH  14  20
ATOM     15  F   UNL     1      44.698   1.050   8.625  0.00  0.00    +0.000 F 
ATOM     16  C   UNL     1      44.888   2.310   9.030  0.00  0.00    +0.000 A 
ATOM     17  C   UNL     1      44.603   2.717  10.307  0.00  0.00    +0.000 A 
ATOM     18  N   UNL     1      44.754   3.994  10.731  0.00  0.00    +0.000 NA
ATOM     19  C   UNL     1      45.225   4.882   9.842  0.00  0.00    +0.000 A 
ATOM     20  N   UNL     1      45.348   6.211  10.172  0.00  0.00    +0.000 N 
ATOM     21  N   UNL     1      45.571   4.562   8.581  0.00  0.00    +0.000 NA
ATOM     22  C   UNL     1      45.373   3.280   8.195  0.00  0.00    +0.000 A 
ATOM     23  H   UNL     1      45.989   6.711   9.576  0.00  0.00    +0.000 HD
ENDBRANCH  14  20
ENDBRANCH   1  14
TORSDOF 3
ENDMDL
MODEL 8
REMARK VINA RESULT:    -6.646      5.100      8.140
REMARK INTER + INTRA:          -8.369
REMARK INTER:                  -7.821
REMARK INTRA:                  -0.548
REMARK UNBOUND:                -0.557
REMARK  Name = 
REMARK  3 active torsions:
REMARK  status: ('A' for Active; 'I' for Inactive)
REMARK    1  A    between atoms: N_6  and  C_7
REMARK    2  A    between atoms: C_7  and  C_8
REMARK    3  A    between atoms: C_13  and  C_14
REMARK                            x       y       z     vdW  Elec       q    Type
REMARK                         _______ _______ _______ _____ _____    ______ ____
ROOT
ATOM      1  C   UNL     1      44.681   8.959  11.548  0.00  0.00    +0.000 A 
ATOM      2  C   UNL     1      45.716   9.207  12.463  0.00  0.00    +0.000 A 
ATOM      3  C   UNL     1      46.346   8.144  13.108  0.00  0.00    +0.000 A 
ATOM      4  F   UNL     1      47.315   8.402  13.997  0.00  0.00    +0.000 F 
ATOM      5  C   UNL     1      45.984   6.827  12.854  0.00  0.00    +0.000 A 
ATOM      6  C   UNL     1      44.974   6.558  11.928  0.00  0.00    +0.000 A 
ATOM      7  C   UNL     1      44.330   7.625  11.278  0.00  0.00    +0.000 A 
ENDROOT
BRANCH   6   8
ATOM      8  C   UNL     1      44.549   5.180  11.650  0.00  0.00    +0.000 C 
ATOM      9  C   UNL     1      44.147   4.365  12.640  0.00  0.00    +0.000 C 
ATOM     10  C   UNL     1      43.601   2.991  12.378  0.00  0.00    +0.000 C 
ATOM     11  O   UNL     1      43.280   2.785  10.998  0.00  0.00    +0.000 OA
ATOM     12  C   UNL     1      44.338   3.205  10.136  0.00  0.00    +0.000 C 
ATOM     13  C   UNL     1      44.518   4.724  10.218  0.00  0.00    +0.000 C 
ENDBRANCH   6   8
BRANCH   1  14
ATOM     14  C   UNL     1      43.954  10.108  10.883  0.00  0.00    +0.000 C 
BRANCH  14  20
ATOM     15  F   UNL     1      37.846  11.117  12.083  0.00  0.00    +0.000 F 
ATOM     16  C   UNL     1      39.179  11.080  11.994  0.00  0.00    +0.000 A 
ATOM     17  C   UNL     1      39.829  10.259  11.111  0.00  0.00    +0.000 A 
ATOM     18  N   UNL     1      41.178  10.178  11.025  0.00  0.00    +0.000 NA
ATOM     19  C   UNL     1      41.891  10.965  11.846  0.00  0.00    +0.000 A 
ATOM     20  N   UNL     1      43.264  10.898  11.869  0.00  0.00    +0.000 N 
ATOM     21  N   UNL     1      41.337  11.832  12.714  0.00  0.00    +0.000 NA
ATOM     22  C   UNL     1      39.985  11.853  12.784  0.00  0.00    +0.000 A 
ATOM     23  H   UNL     1      43.695  11.722  12.260  0.00  0.00    +0.000 HD
ENDBRANCH  14  20
ENDBRANCH   1  14
TORSDOF 3
ENDMDL
MODEL 9
REMARK VINA RESULT:    -6.610      4.748      7.810
REMARK INTER + INTRA:          -8.327
REMARK INTER:                  -7.733
REMARK INTRA:                  -0.594
REMARK UNBOUND:                -0.557
REMARK  Name = 
REMARK  3 active torsions:
REMARK  status: ('A' for Active; 'I' for Inactive)
REMARK    1  A    between atoms: N_6  and  C_7
REMARK    2  A    between atoms: C_7  and  C_8
REMARK    3  A    between atoms: C_13  and  C_14
REMARK                            x       y       z     vdW  Elec       q    Type
REMARK                         _______ _______ _______ _____ _____    ______ ____
ROOT
ATOM      1  C   UNL     1      47.529   7.099  13.692  0.00  0.00    +0.000 A 
ATOM      2  C   UNL     1      46.996   8.378  13.472  0.00  0.00    +0.000 A 
ATOM      3  C   UNL     1      45.812   8.526  12.751  0.00  0.00    +0.000 A 
ATOM      4  F   UNL     1      45.332   9.757  12.529  0.00  0.00    +0.000 F 
ATOM      5  C   UNL     1      45.127   7.424  12.252  0.00  0.00    +0.000 A 
ATOM      6  C   UNL     1      45.627   6.142  12.483  0.00  0.00    +0.000 A 
ATOM      7  C   UNL     1      46.824   5.986  13.204  0.00  0.00    +0.000 A 
ENDROOT
BRANCH   6   8
ATOM      8  C   UNL     1      44.943   4.955  11.952  0.00  0.00    +0.000 C 
ATOM      9  C   UNL     1      44.384   4.052  12.775  0.00  0.00    +0.000 C 
ATOM     10  C   UNL     1      43.583   2.888  12.265  0.00  0.00    +0.000 C 
ATOM     11  O   UNL     1      43.237   3.027  10.882  0.00  0.00    +0.000 OA
ATOM     12  C   UNL     1      44.363   3.400  10.086  0.00  0.00    +0.000 C 
ATOM     13  C   UNL     1      44.834   4.808  10.461  0.00  0.00    +0.000 C 
ENDBRANCH   6   8
BRANCH   1  14
ATOM     14  C   UNL     1      48.842   6.931  14.427  0.00  0.00    +0.000 C 
BRANCH  14  20
ATOM     15  F   UNL     1      48.306   2.854  19.207  0.00  0.00    +0.000 F 
ATOM     16  C   UNL     1      48.356   3.888  18.361  0.00  0.00    +0.000 A 
ATOM     17  C   UNL     1      48.630   3.726  17.028  0.00  0.00    +0.000 A 
ATOM     18  N   UNL     1      48.720   4.758  16.157  0.00  0.00    +0.000 NA
ATOM     19  C   UNL     1      48.510   5.990  16.645  0.00  0.00    +0.000 A 
ATOM     20  N   UNL     1      48.646   7.099  15.843  0.00  0.00    +0.000 N 
ATOM     21  N   UNL     1      48.195   6.239  17.930  0.00  0.00    +0.000 NA
ATOM     22  C   UNL     1      48.146   5.176  18.768  0.00  0.00    +0.000 A 
ATOM     23  H   UNL     1      48.168   7.910  16.203  0.00  0.00    +0.000 HD
ENDBRANCH  14  20
ENDBRANCH   1  14
TORSDOF 3
ENDMDL
