MODEL 1
REMARK VINA RESULT:    -7.968      0.000      0.000
REMARK INTER + INTRA:         -11.883
REMARK INTER:                 -10.763
REMARK INTRA:                  -1.120
REMARK UNBOUND:                -1.120
REMARK  Name = 
REMARK  7 active torsions:
REMARK  status: ('A' for Active; 'I' for Inactive)
REMARK    1  A    between atoms: C_1  and  C_2
REMARK    2  A    between atoms: C_2  and  N_3
REMARK    3  A    between atoms: C_2  and  C_16
REMARK    4  A    between atoms: C_4  and  C_6
REMARK    5  A    between atoms: C_19  and  C_20
REMARK    6  A    between atoms: C_20  and  N_21
REMARK    7  A    between atoms: C_22  and  C_24
REMARK                            x       y       z     vdW  Elec       q    Type
REMARK                         _______ _______ _______ _____ _____    ______ ____
ROOT
ATOM      1  C   UNL     1      47.713   8.516  13.942  0.00  0.00    +0.000 C 
ATOM      2  C   UNL     1      48.107   7.053  14.168  0.00  0.00    +0.000 C 
ENDROOT
BRANCH   2   3
ATOM      3  C   UNL     1      47.203   6.132  13.369  0.00  0.00    +0.000 A 
ATOM      4  C   UNL     1      46.816   4.881  13.850  0.00  0.00    +0.000 A 
ATOM      5  C   UNL     1      45.953   4.082  13.098  0.00  0.00    +0.000 A 
ATOM      6  C   UNL     1      45.490   4.550  11.869  0.00  0.00    +0.000 A 
ATOM      7  N   UNL     1      45.843   5.765  11.381  0.00  0.00    +0.000 NA
ATOM      8  C   UNL     1      46.683   6.515  12.132  0.00  0.00    +0.000 A 
BRANCH   6   9
ATOM      9  C   UNL     1      44.543   3.716  11.037  0.00  0.00    +0.000 C 
BRANCH   9  10
ATOM     10  N   UNL     1      45.214   2.994   9.978  0.00  0.00    +0.000 N 
ATOM     11  C   UNL     1      45.440   3.528   8.730  0.00  0.00    +0.000 C 
ATOM     12  O   UNL     1      45.112   4.664   8.406  0.00  0.00    +0.000 OA
ATOM     13  H   UNL     1      45.618   2.084  10.175  0.00  0.00    +0.000 HD
BRANCH  11  14
ATOM     14  C   UNL     1      46.124   2.604   7.764  0.00  0.00    +0.000 A 
ATOM     15  C   UNL     1      46.466   3.062   6.497  0.00  0.00    +0.000 A 
ATOM     16  C   UNL     1      47.087   2.177   5.620  0.00  0.00    +0.000 A 
ATOM     17  C   UNL     1      47.335   0.872   6.033  0.00  0.00    +0.000 A 
ATOM     18  C   UNL     1      46.953   0.499   7.313  0.00  0.00    +0.000 A 
ATOM     19  N   UNL     1      46.360   1.332   8.198  0.00  0.00    +0.000 NA
ENDBRANCH  11  14
ENDBRANCH   9  10
ENDBRANCH   6   9
ENDBRANCH   2   3
BRANCH   2  20
ATOM     20  N   UNL     1      48.048   6.669  15.570  0.00  0.00    +0.000 N 
ATOM     21  C   UNL     1      49.140   6.314  16.321  0.00  0.00    +0.000 C 
ATOM     22  O   UNL     1      50.285   6.325  15.885  0.00  0.00    +0.000 OA
ATOM     23  H   UNL     1      47.152   6.298  15.871  0.00  0.00    +0.000 HD
BRANCH  21  24
ATOM     24  C   UNL     1      48.859   5.994  17.727  0.00  0.00    +0.000 A 
ATOM     25  C   UNL     1      49.119   4.722  18.218  0.00  0.00    +0.000 A 
ATOM     26  S   UNL     1      48.795   4.557  19.885  0.00  0.00    +0.000 S 
ATOM     27  C   UNL     1      48.247   6.165  19.995  0.00  0.00    +0.000 A 
ATOM     28  N   UNL     1      47.792   6.676  21.171  0.00  0.00    +0.000 NA
ATOM     29  C   UNL     1      47.385   7.899  21.099  0.00  0.00    +0.000 A 
ATOM     30  N   UNL     1      47.393   8.663  19.960  0.00  0.00    +0.000 N 
ATOM     31  C   UNL     1      47.865   8.196  18.757  0.00  0.00    +0.000 A 
ATOM     32  O   UNL     1      47.898   8.911  17.761  0.00  0.00    +0.000 OA
ATOM     33  C   UNL     1      48.329   6.823  18.783  0.00  0.00    +0.000 A 
ATOM     34  H   UNL     1      47.070   9.618  19.969  0.00  0.00    +0.000 HD
ENDBRANCH  21  24
ENDBRANCH   2  20
TORSDOF 6
ENDMDL
MODEL 2
REMARK VINA RESULT:    -7.746      3.954      6.617
REMARK INTER + INTRA:         -11.583
REMARK INTER:                 -10.478
REMARK INTRA:                  -1.104
REMARK UNBOUND:                -1.120
REMARK  Name = 
REMARK  7 active torsions:
REMARK  status: ('A' for Active; 'I' for Inactive)
REMARK    1  A    between atoms: C_1  and  C_2
REMARK    2  A    between atoms: C_2  and  N_3
REMARK    3  A    between atoms: C_2  and  C_16
REMARK    4  A    between atoms: C_4  and  C_6
REMARK    5  A    between atoms: C_19  and  C_20
REMARK    6  A    between atoms: C_20  and  N_21
REMARK    7  A    between atoms: C_22  and  C_24
REMARK                            x       y       z     vdW  Elec       q    Type
REMARK                         _______ _______ _______ _____ _____    ______ ____
ROOT
ATOM      1  C   UNL     1      43.928   2.773  10.977  0.00  0.00    +0.000 C 
ATOM      2  C   UNL     1      44.156   3.858   9.920  0.00  0.00    +0.000 C 
ENDROOT
BRANCH   2   3
ATOM      3  C   UNL     1      45.105   3.358   8.846  0.00  0.00    +0.000 A 
ATOM      4  C   UNL     1      45.475   2.015   8.757  0.00  0.00    +0.000 A 
ATOM      5  C   UNL     1      46.322   1.593   7.731  0.00  0.00    +0.000 A 
ATOM      6  C   UNL     1      46.789   2.526   6.807  0.00  0.00    +0.000 A 
ATOM      7  N   UNL     1      46.440   3.835   6.864  0.00  0.00    +0.000 NA
ATOM      8  C   UNL     1      45.620   4.215   7.872  0.00  0.00    +0.000 A 
BRANCH   6   9
ATOM      9  C   UNL     1      47.697   2.098   5.676  0.00  0.00    +0.000 C 
BRANCH   9  10
ATOM     10  N   UNL     1      47.484   0.725   5.274  0.00  0.00    +0.000 N 
ATOM     11  C   UNL     1      46.928   0.371   4.067  0.00  0.00    +0.000 C 
ATOM     12  O   UNL     1      46.578   1.182   3.216  0.00  0.00    +0.000 OA
ATOM     13  H   UNL     1      47.834  -0.025   5.863  0.00  0.00    +0.000 HD
BRANCH  11  14
ATOM     14  C   UNL     1      46.765  -1.107   3.856  0.00  0.00    +0.000 A 
ATOM     15  C   UNL     1      46.603  -1.945   4.953  0.00  0.00    +0.000 A 
ATOM     16  C   UNL     1      46.468  -3.311   4.724  0.00  0.00    +0.000 A 
ATOM     17  C   UNL     1      46.509  -3.791   3.418  0.00  0.00    +0.000 A 
ATOM     18  C   UNL     1      46.682  -2.881   2.386  0.00  0.00    +0.000 A 
ATOM     19  N   UNL     1      46.803  -1.547   2.565  0.00  0.00    +0.000 NA
ENDBRANCH  11  14
ENDBRANCH   9  10
ENDBRANCH   6   9
ENDBRANCH   2   3
BRANCH   2  20
ATOM     20  N   UNL     1      44.693   5.085  10.487  0.00  0.00    +0.000 N 
ATOM     21  C   UNL     1      43.959   5.983  11.221  0.00  0.00    +0.000 C 
ATOM     22  O   UNL     1      42.778   5.812  11.502  0.00  0.00    +0.000 OA
ATOM     23  H   UNL     1      45.509   5.453  10.008  0.00  0.00    +0.000 HD
BRANCH  21  24
ATOM     24  C   UNL     1      44.706   7.141  11.728  0.00  0.00    +0.000 A 
ATOM     25  C   UNL     1      44.358   8.425  11.331  0.00  0.00    +0.000 A 
ATOM     26  S   UNL     1      45.292   9.644  12.074  0.00  0.00    +0.000 S 
ATOM     27  C   UNL     1      46.228   8.495  12.912  0.00  0.00    +0.000 A 
ATOM     28  N   UNL     1      47.245   8.876  13.732  0.00  0.00    +0.000 NA
ATOM     29  C   UNL     1      47.883   7.897  14.280  0.00  0.00    +0.000 A 
ATOM     30  N   UNL     1      47.598   6.569  14.088  0.00  0.00    +0.000 N 
ATOM     31  C   UNL     1      46.566   6.139  13.289  0.00  0.00    +0.000 A 
ATOM     32  O   UNL     1      46.307   4.948  13.164  0.00  0.00    +0.000 OA
ATOM     33  C   UNL     1      45.821   7.202  12.643  0.00  0.00    +0.000 A 
ATOM     34  H   UNL     1      48.129   5.849  14.553  0.00  0.00    +0.000 HD
ENDBRANCH  21  24
ENDBRANCH   2  20
TORSDOF 6
ENDMDL
MODEL 3
REMARK VINA RESULT:    -7.685      1.415      2.194
REMARK INTER + INTRA:         -11.501
REMARK INTER:                 -10.397
REMARK INTRA:                  -1.104
REMARK UNBOUND:                -1.120
REMARK  Name = 
REMARK  7 active torsions:
REMARK  status: ('A' for Active; 'I' for Inactive)
REMARK    1  A    between atoms: C_1  and  C_2
REMARK    2  A    between atoms: C_2  and  N_3
REMARK    3  A    between atoms: C_2  and  C_16
REMARK    4  A    between atoms: C_4  and  C_6
REMARK    5  A    between atoms: C_19  and  C_20
REMARK    6  A    between atoms: C_20  and  N_21
REMARK    7  A    between atoms: C_22  and  C_24
REMARK                            x       y       z     vdW  Elec       q    Type
REMARK                         _______ _______ _______ _____ _____    ______ ____
ROOT
ATOM      1  C   UNL     1      47.551   8.790  13.728  0.00  0.00    +0.000 C 
ATOM      2  C   UNL     1      48.003   7.359  14.038  0.00  0.00    +0.000 C 
ENDROOT
BRANCH   2   3
ATOM      3  C   UNL     1      47.099   6.358  13.343  0.00  0.00    +0.000 A 
ATOM      4  C   UNL     1      46.276   6.724  12.276  0.00  0.00    +0.000 A 
ATOM      5  C   UNL     1      45.488   5.763  11.642  0.00  0.00    +0.000 A 
ATOM      6  C   UNL     1      45.534   4.443  12.088  0.00  0.00    +0.000 A 
ATOM      7  N   UNL     1      46.329   4.057  13.118  0.00  0.00    +0.000 NA
ATOM      8  C   UNL     1      47.080   5.013  13.713  0.00  0.00    +0.000 A 
BRANCH   6   9
ATOM      9  C   UNL     1      44.702   3.376  11.415  0.00  0.00    +0.000 C 
BRANCH   9  10
ATOM     10  N   UNL     1      45.366   2.783  10.274  0.00  0.00    +0.000 N 
ATOM     11  C   UNL     1      45.231   3.263   8.992  0.00  0.00    +0.000 C 
ATOM     12  O   UNL     1      44.553   4.242   8.700  0.00  0.00    +0.000 OA
ATOM     13  H   UNL     1      46.031   2.031  10.422  0.00  0.00    +0.000 HD
BRANCH  11  14
ATOM     14  C   UNL     1      45.978   2.486   7.946  0.00  0.00    +0.000 A 
ATOM     15  C   UNL     1      46.286   3.087   6.731  0.00  0.00    +0.000 A 
ATOM     16  C   UNL     1      46.968   2.335   5.778  0.00  0.00    +0.000 A 
ATOM     17  C   UNL     1      47.307   1.017   6.065  0.00  0.00    +0.000 A 
ATOM     18  C   UNL     1      46.953   0.498   7.302  0.00  0.00    +0.000 A 
ATOM     19  N   UNL     1      46.304   1.199   8.259  0.00  0.00    +0.000 NA
ENDBRANCH  11  14
ENDBRANCH   9  10
ENDBRANCH   6   9
ENDBRANCH   2   3
BRANCH   2  20
ATOM     20  N   UNL     1      48.012   7.073  15.464  0.00  0.00    +0.000 N 
ATOM     21  C   UNL     1      48.999   7.478  16.327  0.00  0.00    +0.000 C 
ATOM     22  O   UNL     1      49.955   8.160  15.978  0.00  0.00    +0.000 OA
ATOM     23  H   UNL     1      47.484   6.249  15.735  0.00  0.00    +0.000 HD
BRANCH  21  24
ATOM     24  C   UNL     1      48.794   7.110  17.734  0.00  0.00    +0.000 A 
ATOM     25  C   UNL     1      48.554   8.093  18.684  0.00  0.00    +0.000 A 
ATOM     26  S   UNL     1      48.274   7.472  20.249  0.00  0.00    +0.000 S 
ATOM     27  C   UNL     1      48.514   5.873  19.719  0.00  0.00    +0.000 A 
ATOM     28  N   UNL     1      48.437   4.825  20.583  0.00  0.00    +0.000 NA
ATOM     29  C   UNL     1      48.667   3.673  20.047  0.00  0.00    +0.000 A 
ATOM     30  N   UNL     1      48.965   3.470  18.723  0.00  0.00    +0.000 N 
ATOM     31  C   UNL     1      49.030   4.495  17.811  0.00  0.00    +0.000 A 
ATOM     32  O   UNL     1      49.260   4.283  16.626  0.00  0.00    +0.000 OA
ATOM     33  C   UNL     1      48.785   5.812  18.366  0.00  0.00    +0.000 A 
ATOM     34  H   UNL     1      49.126   2.543  18.361  0.00  0.00    +0.000 HD
ENDBRANCH  21  24
ENDBRANCH   2  20
TORSDOF 6
ENDMDL
MODEL 4
REMARK VINA RESULT:    -7.614      3.022      4.519
REMARK INTER + INTRA:         -11.405
REMARK INTER:                 -10.189
REMARK INTRA:                  -1.216
REMARK UNBOUND:                -1.120
REMARK  Name = 
REMARK  7 active torsions:
REMARK  status: ('A' for Active; 'I' for Inactive)
REMARK    1  A    between atoms: C_1  and  C_2
REMARK    2  A    between atoms: C_2  and  N_3
REMARK    3  A    between atoms: C_2  and  C_16
REMARK    4  A    between atoms: C_4  and  C_6
REMARK    5  A    between atoms: C_19  and  C_20
REMARK    6  A    between atoms: C_20  and  N_21
REMARK    7  A    between atoms: C_22  and  C_24
REMARK                            x       y       z     vdW  Elec       q    Type
REMARK                         _______ _______ _______ _____ _____    ______ ____
ROOT
ATOM      1  C   UNL     1      47.446   4.072  15.536  0.00  0.00    +0.000 C 
ATOM      2  C   UNL     1      47.109   5.393  14.836  0.00  0.00    +0.000 C 
ENDROOT
BRANCH   2   3
ATOM      3  C   UNL     1      46.257   5.137  13.607  0.00  0.00    +0.000 A 
ATOM      4  C   UNL     1      45.769   6.180  12.818  0.00  0.00    +0.000 A 
ATOM      5  C   UNL     1      45.020   5.897  11.674  0.00  0.00    +0.000 A 
ATOM      6  C   UNL     1      44.769   4.568  11.337  0.00  0.00    +0.000 A 
ATOM      7  N   UNL     1      45.237   3.534  12.081  0.00  0.00    +0.000 NA
ATOM      8  C   UNL     1      45.958   3.841  13.185  0.00  0.00    +0.000 A 
BRANCH   6   9
ATOM      9  C   UNL     1      43.973   4.227  10.098  0.00  0.00    +0.000 C 
BRANCH   9  10
ATOM     10  N   UNL     1      44.712   3.407   9.164  0.00  0.00    +0.000 N 
ATOM     11  C   UNL     1      45.683   3.908   8.327  0.00  0.00    +0.000 C 
ATOM     12  O   UNL     1      46.023   5.086   8.308  0.00  0.00    +0.000 OA
ATOM     13  H   UNL     1      44.579   2.401   9.173  0.00  0.00    +0.000 HD
BRANCH  11  14
ATOM     14  C   UNL     1      46.309   2.896   7.411  0.00  0.00    +0.000 A 
ATOM     15  C   UNL     1      46.596   3.243   6.096  0.00  0.00    +0.000 A 
ATOM     16  C   UNL     1      47.165   2.278   5.269  0.00  0.00    +0.000 A 
ATOM     17  C   UNL     1      47.414   1.007   5.777  0.00  0.00    +0.000 A 
ATOM     18  C   UNL     1      47.088   0.748   7.100  0.00  0.00    +0.000 A 
ATOM     19  N   UNL     1      46.548   1.661   7.938  0.00  0.00    +0.000 NA
ENDBRANCH  11  14
ENDBRANCH   9  10
ENDBRANCH   6   9
ENDBRANCH   2   3
BRANCH   2  20
ATOM     20  N   UNL     1      48.296   6.133  14.440  0.00  0.00    +0.000 N 
ATOM     21  C   UNL     1      48.931   7.058  15.231  0.00  0.00    +0.000 C 
ATOM     22  O   UNL     1      48.574   7.319  16.374  0.00  0.00    +0.000 OA
ATOM     23  H   UNL     1      48.416   6.238  13.437  0.00  0.00    +0.000 HD
BRANCH  21  24
ATOM     24  C   UNL     1      50.134   7.665  14.647  0.00  0.00    +0.000 A 
ATOM     25  C   UNL     1      51.357   7.552  15.295  0.00  0.00    +0.000 A 
ATOM     26  S   UNL     1      52.649   8.260  14.435  0.00  0.00    +0.000 S 
ATOM     27  C   UNL     1      51.610   8.786  13.194  0.00  0.00    +0.000 A 
ATOM     28  N   UNL     1      52.083   9.493  12.131  0.00  0.00    +0.000 NA
ATOM     29  C   UNL     1      51.177   9.848  11.282  0.00  0.00    +0.000 A 
ATOM     30  N   UNL     1      49.841   9.559  11.394  0.00  0.00    +0.000 N 
ATOM     31  C   UNL     1      49.324   8.828  12.436  0.00  0.00    +0.000 A 
ATOM     32  O   UNL     1      48.131   8.550  12.493  0.00  0.00    +0.000 OA
ATOM     33  C   UNL     1      50.300   8.411  13.423  0.00  0.00    +0.000 A 
ATOM     34  H   UNL     1      49.182   9.857  10.691  0.00  0.00    +0.000 HD
ENDBRANCH  21  24
ENDBRANCH   2  20
TORSDOF 6
ENDMDL
MODEL 5
REMARK VINA RESULT:    -7.538      4.762      7.415
REMARK INTER + INTRA:         -11.302
REMARK INTER:                 -10.505
REMARK INTRA:                  -0.797
REMARK UNBOUND:                -1.120
REMARK  Name = 
REMARK  7 active torsions:
REMARK  status: ('A' for Active; 'I' for Inactive)
REMARK    1  A    between atoms: C_1  and  C_2
REMARK    2  A    between atoms: C_2  and  N_3
REMARK    3  A    between atoms: C_2  and  C_16
REMARK    4  A    between atoms: C_4  and  C_6
REMARK    5  A    between atoms: C_19  and  C_20
REMARK    6  A    between atoms: C_20  and  N_21
REMARK    7  A    between atoms: C_22  and  C_24
REMARK                            x       y       z     vdW  Elec       q    Type
REMARK                         _______ _______ _______ _____ _____    ______ ____
ROOT
ATOM      1  C   UNL     1      47.469   8.286  13.886  0.00  0.00    +0.000 C 
ATOM      2  C   UNL     1      46.126   8.403  13.157  0.00  0.00    +0.000 C 
ENDROOT
BRANCH   2   3
ATOM      3  C   UNL     1      45.686   7.046  12.639  0.00  0.00    +0.000 A 
ATOM      4  C   UNL     1      46.361   5.873  12.981  0.00  0.00    +0.000 A 
ATOM      5  C   UNL     1      45.901   4.642  12.511  0.00  0.00    +0.000 A 
ATOM      6  C   UNL     1      44.767   4.604  11.701  0.00  0.00    +0.000 A 
ATOM      7  N   UNL     1      44.087   5.727  11.358  0.00  0.00    +0.000 NA
ATOM      8  C   UNL     1      44.560   6.905  11.828  0.00  0.00    +0.000 A 
BRANCH   6   9
ATOM      9  C   UNL     1      44.235   3.286  11.186  0.00  0.00    +0.000 C 
BRANCH   9  10
ATOM     10  N   UNL     1      45.036   2.736  10.115  0.00  0.00    +0.000 N 
ATOM     11  C   UNL     1      45.052   3.258   8.842  0.00  0.00    +0.000 C 
ATOM     12  O   UNL     1      44.404   4.243   8.503  0.00  0.00    +0.000 OA
ATOM     13  H   UNL     1      45.687   1.983  10.317  0.00  0.00    +0.000 HD
BRANCH  11  14
ATOM     14  C   UNL     1      45.926   2.521   7.869  0.00  0.00    +0.000 A 
ATOM     15  C   UNL     1      46.304   3.136   6.680  0.00  0.00    +0.000 A 
ATOM     16  C   UNL     1      47.104   2.421   5.794  0.00  0.00    +0.000 A 
ATOM     17  C   UNL     1      47.489   1.124   6.118  0.00  0.00    +0.000 A 
ATOM     18  C   UNL     1      47.059   0.588   7.323  0.00  0.00    +0.000 A 
ATOM     19  N   UNL     1      46.293   1.254   8.216  0.00  0.00    +0.000 NA
ENDBRANCH  11  14
ENDBRANCH   9  10
ENDBRANCH   6   9
ENDBRANCH   2   3
BRANCH   2  20
ATOM     20  N   UNL     1      46.175   9.337  12.044  0.00  0.00    +0.000 N 
ATOM     21  C   UNL     1      45.214  10.283  11.785  0.00  0.00    +0.000 C 
ATOM     22  O   UNL     1      44.234  10.455  12.501  0.00  0.00    +0.000 OA
ATOM     23  H   UNL     1      46.725   9.025  11.250  0.00  0.00    +0.000 HD
BRANCH  21  24
ATOM     24  C   UNL     1      45.477  11.148  10.627  0.00  0.00    +0.000 A 
ATOM     25  C   UNL     1      46.661  11.868  10.550  0.00  0.00    +0.000 A 
ATOM     26  S   UNL     1      46.820  12.761   9.105  0.00  0.00    +0.000 S 
ATOM     27  C   UNL     1      45.289  12.255   8.557  0.00  0.00    +0.000 A 
ATOM     28  N   UNL     1      44.790  12.683   7.366  0.00  0.00    +0.000 NA
ATOM     29  C   UNL     1      43.609  12.239   7.093  0.00  0.00    +0.000 A 
ATOM     30  N   UNL     1      42.879  11.403   7.900  0.00  0.00    +0.000 N 
ATOM     31  C   UNL     1      43.353  10.928   9.098  0.00  0.00    +0.000 A 
ATOM     32  O   UNL     1      42.697  10.151   9.783  0.00  0.00    +0.000 OA
ATOM     33  C   UNL     1      44.675  11.403   9.455  0.00  0.00    +0.000 A 
ATOM     34  H   UNL     1      41.963  11.083   7.626  0.00  0.00    +0.000 HD
ENDBRANCH  21  24
ENDBRANCH   2  20
TORSDOF 6
ENDMDL
MODEL 6
REMARK VINA RESULT:    -7.390      3.861      9.016
REMARK INTER + INTRA:         -11.101
REMARK INTER:                 -10.036
REMARK INTRA:                  -1.065
REMARK UNBOUND:                -1.120
REMARK  Name = 
REMARK  7 active torsions:
REMARK  status: ('A' for Active; 'I' for Inactive)
REMARK    1  A    between atoms: C_1  and  C_2
REMARK    2  A    between atoms: C_2  and  N_3
REMARK    3  A    between atoms: C_2  and  C_16
REMARK    4  A    between atoms: C_4  and  C_6
REMARK    5  A    between atoms: C_19  and  C_20
REMARK    6  A    between atoms: C_20  and  N_21
REMARK    7  A    between atoms: C_22  and  C_24
REMARK                            x       y       z     vdW  Elec       q    Type
REMARK                         _______ _______ _______ _____ _____    ______ ____
ROOT
ATOM      1  C   UNL     1      49.789   7.983  11.482  0.00  0.00    +0.000 C 
ATOM      2  C   UNL     1      48.531   7.696  12.309  0.00  0.00    +0.000 C 
ENDROOT
BRANCH   2   3
ATOM      3  C   UNL     1      48.910   7.240  13.706  0.00  0.00    +0.000 A 
ATOM      4  C   UNL     1      49.993   7.793  14.392  0.00  0.00    +0.000 A 
ATOM      5  C   UNL     1      50.284   7.370  15.690  0.00  0.00    +0.000 A 
ATOM      6  C   UNL     1      49.484   6.394  16.283  0.00  0.00    +0.000 A 
ATOM      7  N   UNL     1      48.421   5.846  15.643  0.00  0.00    +0.000 NA
ATOM      8  C   UNL     1      48.166   6.275  14.385  0.00  0.00    +0.000 A 
BRANCH   6   9
ATOM      9  C   UNL     1      49.764   5.924  17.692  0.00  0.00    +0.000 C 
BRANCH   9  10
ATOM     10  N   UNL     1      50.811   4.928  17.754  0.00  0.00    +0.000 N 
ATOM     11  C   UNL     1      50.576   3.579  17.617  0.00  0.00    +0.000 C 
ATOM     12  O   UNL     1      49.465   3.100  17.414  0.00  0.00    +0.000 OA
ATOM     13  H   UNL     1      51.779   5.227  17.816  0.00  0.00    +0.000 HD
BRANCH  11  14
ATOM     14  C   UNL     1      51.794   2.710  17.744  0.00  0.00    +0.000 A 
ATOM     15  C   UNL     1      51.697   1.347  17.486  0.00  0.00    +0.000 A 
ATOM     16  C   UNL     1      52.842   0.568  17.626  0.00  0.00    +0.000 A 
ATOM     17  C   UNL     1      54.032   1.169  18.025  0.00  0.00    +0.000 A 
ATOM     18  C   UNL     1      54.033   2.534  18.268  0.00  0.00    +0.000 A 
ATOM     19  N   UNL     1      52.947   3.328  18.130  0.00  0.00    +0.000 NA
ENDBRANCH  11  14
ENDBRANCH   9  10
ENDBRANCH   6   9
ENDBRANCH   2   3
BRANCH   2  20
ATOM     20  N   UNL     1      47.681   6.685  11.699  0.00  0.00    +0.000 N 
ATOM     21  C   UNL     1      46.331   6.829  11.498  0.00  0.00    +0.000 C 
ATOM     22  O   UNL     1      45.717   7.852  11.780  0.00  0.00    +0.000 OA
ATOM     23  H   UNL     1      48.026   5.734  11.782  0.00  0.00    +0.000 HD
BRANCH  21  24
ATOM     24  C   UNL     1      45.670   5.698  10.835  0.00  0.00    +0.000 A 
ATOM     25  C   UNL     1      45.801   5.519   9.465  0.00  0.00    +0.000 A 
ATOM     26  S   UNL     1      45.020   4.116   8.885  0.00  0.00    +0.000 S 
ATOM     27  C   UNL     1      44.438   3.730  10.438  0.00  0.00    +0.000 A 
ATOM     28  N   UNL     1      43.660   2.633  10.646  0.00  0.00    +0.000 NA
ATOM     29  C   UNL     1      43.270   2.480  11.867  0.00  0.00    +0.000 A 
ATOM     30  N   UNL     1      43.588   3.322  12.903  0.00  0.00    +0.000 N 
ATOM     31  C   UNL     1      44.389   4.426  12.743  0.00  0.00    +0.000 A 
ATOM     32  O   UNL     1      44.690   5.141  13.693  0.00  0.00    +0.000 OA
ATOM     33  C   UNL     1      44.848   4.647  11.387  0.00  0.00    +0.000 A 
ATOM     34  H   UNL     1      43.259   3.143  13.839  0.00  0.00    +0.000 HD
ENDBRANCH  21  24
ENDBRANCH   2  20
TORSDOF 6
ENDMDL
MODEL 7
REMARK VINA RESULT:    -7.335      3.320      4.809
REMARK INTER + INTRA:         -11.027
REMARK INTER:                  -9.817
REMARK INTRA:                  -1.210
REMARK UNBOUND:                -1.120
REMARK  Name = 
REMARK  7 active torsions:
REMARK  status: ('A' for Active; 'I' for Inactive)
REMARK    1  A    between atoms: C_1  and  C_2
REMARK    2  A    between atoms: C_2  and  N_3
REMARK    3  A    between atoms: C_2  and  C_16
REMARK    4  A    between atoms: C_4  and  C_6
REMARK    5  A    between atoms: C_19  and  C_20
REMARK    6  A    between atoms: C_20  and  N_21
REMARK    7  A    between atoms: C_22  and  C_24
REMARK                            x       y       z     vdW  Elec       q    Type
REMARK                         _______ _______ _______ _____ _____    ______ ____
ROOT
ATOM      1  C   UNL     1      47.877   5.051  15.739  0.00  0.00    +0.000 C 
ATOM      2  C   UNL     1      47.364   6.022  14.670  0.00  0.00    +0.000 C 
ENDROOT
BRANCH   2   3
ATOM      3  C   UNL     1      46.491   5.290  13.667  0.00  0.00    +0.000 A 
ATOM      4  C   UNL     1      45.686   5.974  12.755  0.00  0.00    +0.000 A 
ATOM      5  C   UNL     1      44.926   5.261  11.826  0.00  0.00    +0.000 A 
ATOM      6  C   UNL     1      44.983   3.868  11.826  0.00  0.00    +0.000 A 
ATOM      7  N   UNL     1      45.762   3.178  12.696  0.00  0.00    +0.000 NA
ATOM      8  C   UNL     1      46.485   3.898  13.586  0.00  0.00    +0.000 A 
BRANCH   6   9
ATOM      9  C   UNL     1      44.183   3.067  10.824  0.00  0.00    +0.000 C 
BRANCH   9  10
ATOM     10  N   UNL     1      44.990   2.564   9.734  0.00  0.00    +0.000 N 
ATOM     11  C   UNL     1      45.299   3.310   8.620  0.00  0.00    +0.000 C 
ATOM     12  O   UNL     1      44.935   4.469   8.455  0.00  0.00    +0.000 OA
ATOM     13  H   UNL     1      45.427   1.652   9.819  0.00  0.00    +0.000 HD
BRANCH  11  14
ATOM     14  C   UNL     1      46.122   2.592   7.589  0.00  0.00    +0.000 A 
ATOM     15  C   UNL     1      46.404   3.214   6.378  0.00  0.00    +0.000 A 
ATOM     16  C   UNL     1      47.159   2.517   5.439  0.00  0.00    +0.000 A 
ATOM     17  C   UNL     1      47.594   1.228   5.735  0.00  0.00    +0.000 A 
ATOM     18  C   UNL     1      47.258   0.684   6.966  0.00  0.00    +0.000 A 
ATOM     19  N   UNL     1      46.540   1.334   7.910  0.00  0.00    +0.000 NA
ENDBRANCH  11  14
ENDBRANCH   9  10
ENDBRANCH   6   9
ENDBRANCH   2   3
BRANCH   2  20
ATOM     20  N   UNL     1      48.444   6.686  13.956  0.00  0.00    +0.000 N 
ATOM     21  C   UNL     1      48.493   8.036  13.711  0.00  0.00    +0.000 C 
ATOM     22  O   UNL     1      47.641   8.821  14.112  0.00  0.00    +0.000 OA
ATOM     23  H   UNL     1      48.957   6.092  13.312  0.00  0.00    +0.000 HD
BRANCH  21  24
ATOM     24  C   UNL     1      49.691   8.503  13.001  0.00  0.00    +0.000 A 
ATOM     25  C   UNL     1      49.568   9.167  11.789  0.00  0.00    +0.000 A 
ATOM     26  S   UNL     1      51.059   9.693  11.148  0.00  0.00    +0.000 S 
ATOM     27  C   UNL     1      51.923   9.006  12.444  0.00  0.00    +0.000 A 
ATOM     28  N   UNL     1      53.281   9.078  12.502  0.00  0.00    +0.000 NA
ATOM     29  C   UNL     1      53.802   8.491  13.527  0.00  0.00    +0.000 A 
ATOM     30  N   UNL     1      53.091   7.839  14.503  0.00  0.00    +0.000 N 
ATOM     31  C   UNL     1      51.719   7.762  14.496  0.00  0.00    +0.000 A 
ATOM     32  O   UNL     1      51.105   7.207  15.400  0.00  0.00    +0.000 OA
ATOM     33  C   UNL     1      51.085   8.401  13.360  0.00  0.00    +0.000 A 
ATOM     34  H   UNL     1      53.556   7.406  15.286  0.00  0.00    +0.000 HD
ENDBRANCH  21  24
ENDBRANCH   2  20
TORSDOF 6
ENDMDL
MODEL 8
REMARK VINA RESULT:    -7.208      2.349      2.865
REMARK INTER + INTRA:         -10.856
REMARK INTER:                  -9.620
REMARK INTRA:                  -1.236
REMARK UNBOUND:                -1.120
REMARK  Name = 
REMARK  7 active torsions:
REMARK  status: ('A' for Active; 'I' for Inactive)
REMARK    1  A    between atoms: C_1  and  C_2
REMARK    2  A    between atoms: C_2  and  N_3
REMARK    3  A    between atoms: C_2  and  C_16
REMARK    4  A    between atoms: C_4  and  C_6
REMARK    5  A    between atoms: C_19  and  C_20
REMARK    6  A    between atoms: C_20  and  N_21
REMARK    7  A    between atoms: C_22  and  C_24
REMARK                            x       y       z     vdW  Elec       q    Type
REMARK                         _______ _______ _______ _____ _____    ______ ____
ROOT
ATOM      1  C   UNL     1      48.785  10.256  14.386  0.00  0.00    +0.000 C 
ATOM      2  C   UNL     1      49.041   8.770  14.112  0.00  0.00    +0.000 C 
ENDROOT
BRANCH   2   3
ATOM      3  C   UNL     1      47.890   8.174  13.322  0.00  0.00    +0.000 A 
ATOM      4  C   UNL     1      46.624   8.762  13.307  0.00  0.00    +0.000 A 
ATOM      5  C   UNL     1      45.604   8.200  12.537  0.00  0.00    +0.000 A 
ATOM      6  C   UNL     1      45.868   7.051  11.793  0.00  0.00    +0.000 A 
ATOM      7  N   UNL     1      47.090   6.463  11.784  0.00  0.00    +0.000 NA
ATOM      8  C   UNL     1      48.058   7.030  12.541  0.00  0.00    +0.000 A 
BRANCH   6   9
ATOM      9  C   UNL     1      44.789   6.425  10.939  0.00  0.00    +0.000 C 
BRANCH   9  10
ATOM     10  N   UNL     1      45.315   5.507   9.953  0.00  0.00    +0.000 N 
ATOM     11  C   UNL     1      44.768   4.268   9.711  0.00  0.00    +0.000 C 
ATOM     12  O   UNL     1      43.779   3.836  10.293  0.00  0.00    +0.000 OA
ATOM     13  H   UNL     1      46.070   5.809   9.345  0.00  0.00    +0.000 HD
BRANCH  11  14
ATOM     14  C   UNL     1      45.483   3.456   8.670  0.00  0.00    +0.000 A 
ATOM     15  C   UNL     1      45.649   2.088   8.857  0.00  0.00    +0.000 A 
ATOM     16  C   UNL     1      46.327   1.366   7.879  0.00  0.00    +0.000 A 
ATOM     17  C   UNL     1      46.821   2.031   6.761  0.00  0.00    +0.000 A 
ATOM     18  C   UNL     1      46.615   3.399   6.661  0.00  0.00    +0.000 A 
ATOM     19  N   UNL     1      45.950   4.133   7.582  0.00  0.00    +0.000 NA
ENDBRANCH  11  14
ENDBRANCH   9  10
ENDBRANCH   6   9
ENDBRANCH   2   3
BRANCH   2  20
ATOM     20  N   UNL     1      49.221   8.001  15.333  0.00  0.00    +0.000 N 
ATOM     21  C   UNL     1      50.407   7.428  15.717  0.00  0.00    +0.000 C 
ATOM     22  O   UNL     1      51.446   7.546  15.078  0.00  0.00    +0.000 OA
ATOM     23  H   UNL     1      48.374   7.573  15.695  0.00  0.00    +0.000 HD
BRANCH  21  24
ATOM     24  C   UNL     1      50.377   6.722  17.005  0.00  0.00    +0.000 A 
ATOM     25  C   UNL     1      51.233   7.102  18.029  0.00  0.00    +0.000 A 
ATOM     26  S   UNL     1      51.007   6.214  19.469  0.00  0.00    +0.000 S 
ATOM     27  C   UNL     1      49.794   5.257  18.755  0.00  0.00    +0.000 A 
ATOM     28  N   UNL     1      49.180   4.262  19.452  0.00  0.00    +0.000 NA
ATOM     29  C   UNL     1      48.301   3.603  18.775  0.00  0.00    +0.000 A 
ATOM     30  N   UNL     1      47.974   3.846  17.465  0.00  0.00    +0.000 N 
ATOM     31  C   UNL     1      48.551   4.854  16.731  0.00  0.00    +0.000 A 
ATOM     32  O   UNL     1      48.214   5.076  15.574  0.00  0.00    +0.000 OA
ATOM     33  C   UNL     1      49.552   5.621  17.444  0.00  0.00    +0.000 A 
ATOM     34  H   UNL     1      47.270   3.300  16.993  0.00  0.00    +0.000 HD
ENDBRANCH  21  24
ENDBRANCH   2  20
TORSDOF 6
ENDMDL
MODEL 9
REMARK VINA RESULT:    -7.056      3.098      9.362
REMARK INTER + INTRA:         -10.651
REMARK INTER:                  -9.694
REMARK INTRA:                  -0.957
REMARK UNBOUND:                -1.120
REMARK  Name = 
REMARK  7 active torsions:
REMARK  status: ('A' for Active; 'I' for Inactive)
REMARK    1  A    between atoms: C_1  and  C_2
REMARK    2  A    between atoms: C_2  and  N_3
REMARK    3  A    between atoms: C_2  and  C_16
REMARK    4  A    between atoms: C_4  and  C_6
REMARK    5  A    between atoms: C_19  and  C_20
REMARK    6  A    between atoms: C_20  and  N_21
REMARK    7  A    between atoms: C_22  and  C_24
REMARK                            x       y       z     vdW  Elec       q    Type
REMARK                         _______ _______ _______ _____ _____    ______ ____
ROOT
ATOM      1  C   UNL     1      47.933   8.407  11.742  0.00  0.00    +0.000 C 
ATOM      2  C   UNL     1      47.001   7.864  12.830  0.00  0.00    +0.000 C 
ENDROOT
BRANCH   2   3
ATOM      3  C   UNL     1      47.769   7.640  14.120  0.00  0.00    +0.000 A 
ATOM      4  C   UNL     1      48.113   8.696  14.964  0.00  0.00    +0.000 A 
ATOM      5  C   UNL     1      48.788   8.441  16.159  0.00  0.00    +0.000 A 
ATOM      6  C   UNL     1      49.111   7.126  16.491  0.00  0.00    +0.000 A 
ATOM      7  N   UNL     1      48.782   6.079  15.692  0.00  0.00    +0.000 NA
ATOM      8  C   UNL     1      48.130   6.359  14.540  0.00  0.00    +0.000 A 
BRANCH   6   9
ATOM      9  C   UNL     1      49.830   6.814  17.783  0.00  0.00    +0.000 C 
BRANCH   9  10
ATOM     10  N   UNL     1      50.291   5.445  17.854  0.00  0.00    +0.000 N 
ATOM     11  C   UNL     1      51.559   5.058  17.487  0.00  0.00    +0.000 C 
ATOM     12  O   UNL     1      52.418   5.836  17.084  0.00  0.00    +0.000 OA
ATOM     13  H   UNL     1      49.691   4.740  18.270  0.00  0.00    +0.000 HD
BRANCH  11  14
ATOM     14  C   UNL     1      51.828   3.586  17.605  0.00  0.00    +0.000 A 
ATOM     15  C   UNL     1      53.064   3.147  18.068  0.00  0.00    +0.000 A 
ATOM     16  C   UNL     1      53.286   1.775  18.154  0.00  0.00    +0.000 A 
ATOM     17  C   UNL     1      52.279   0.896  17.768  0.00  0.00    +0.000 A 
ATOM     18  C   UNL     1      51.080   1.424  17.311  0.00  0.00    +0.000 A 
ATOM     19  N   UNL     1      50.821   2.749  17.226  0.00  0.00    +0.000 NA
ENDBRANCH  11  14
ENDBRANCH   9  10
ENDBRANCH   6   9
ENDBRANCH   2   3
BRANCH   2  20
ATOM     20  N   UNL     1      46.358   6.617  12.443  0.00  0.00    +0.000 N 
ATOM     21  C   UNL     1      45.151   6.538  11.795  0.00  0.00    +0.000 C 
ATOM     22  O   UNL     1      44.515   7.525  11.443  0.00  0.00    +0.000 OA
ATOM     23  H   UNL     1      46.626   5.811  13.000  0.00  0.00    +0.000 HD
BRANCH  21  24
ATOM     24  C   UNL     1      44.700   5.179  11.469  0.00  0.00    +0.000 A 
ATOM     25  C   UNL     1      43.931   4.463  12.376  0.00  0.00    +0.000 A 
ATOM     26  S   UNL     1      43.445   2.934  11.796  0.00  0.00    +0.000 S 
ATOM     27  C   UNL     1      44.289   3.156  10.335  0.00  0.00    +0.000 A 
ATOM     28  N   UNL     1      44.304   2.191   9.376  0.00  0.00    +0.000 NA
ATOM     29  C   UNL     1      45.006   2.487   8.333  0.00  0.00    +0.000 A 
ATOM     30  N   UNL     1      45.692   3.661   8.157  0.00  0.00    +0.000 N 
ATOM     31  C   UNL     1      45.685   4.672   9.087  0.00  0.00    +0.000 A 
ATOM     32  O   UNL     1      46.275   5.728   8.889  0.00  0.00    +0.000 OA
ATOM     33  C   UNL     1      44.916   4.386  10.282  0.00  0.00    +0.000 A 
ATOM     34  H   UNL     1      46.216   3.838   7.314  0.00  0.00    +0.000 HD
ENDBRANCH  21  24
ENDBRANCH   2  20
TORSDOF 6
ENDMDL
