MODEL 1
REMARK VINA RESULT:    -7.864      0.000      0.000
REMARK INTER + INTRA:         -10.512
REMARK INTER:                  -9.703
REMARK INTRA:                  -0.810
REMARK UNBOUND:                -0.810
REMARK  Name = 
REMARK  4 active torsions:
REMARK  status: ('A' for Active; 'I' for Inactive)
REMARK    1  A    between atoms: C_7  and  N_8
REMARK    2  A    between atoms: N_8  and  C_9
REMARK    3  A    between atoms: C_9  and  C_10
REMARK    4  A    between atoms: C_14  and  C_15
REMARK                            x       y       z     vdW  Elec       q    Type
REMARK                         _______ _______ _______ _____ _____    ______ ____
ROOT
ATOM      1  C   UNL     1      43.709   4.759  10.662  0.00  0.00    +0.000 A 
ATOM      2  C   UNL     1      43.133   3.726  11.387  0.00  0.00    +0.000 A 
ATOM      3  N   UNL     1      43.330   2.419  11.114  0.00  0.00    +0.000 NA
ATOM      4  C   UNL     1      44.156   2.127  10.079  0.00  0.00    +0.000 A 
ATOM      5  C   UNL     1      44.808   3.066   9.280  0.00  0.00    +0.000 A 
ATOM      6  C   UNL     1      44.563   4.412   9.605  0.00  0.00    +0.000 A 
ENDROOT
BRANCH   5   7
ATOM      7  C   UNL     1      45.696   2.675   8.163  0.00  0.00    +0.000 A 
ATOM      8  C   UNL     1      46.021   3.555   7.120  0.00  0.00    +0.000 A 
ATOM      9  C   UNL     1      46.859   3.149   6.081  0.00  0.00    +0.000 A 
ATOM     10  C   UNL     1      47.368   1.864   6.109  0.00  0.00    +0.000 A 
ATOM     11  N   UNL     1      47.093   0.979   7.086  0.00  0.00    +0.000 NA
ATOM     12  C   UNL     1      46.267   1.403   8.076  0.00  0.00    +0.000 A 
ENDBRANCH   5   7
BRANCH   1  13
ATOM     13  C   UNL     1      43.424   6.196  11.001  0.00  0.00    +0.000 C 
BRANCH  13  14
ATOM     14  N   UNL     1      43.902   6.496  12.344  0.00  0.00    +0.000 N 
ATOM     15  H   UNL     1      43.330   6.060  13.068  0.00  0.00    +0.000 HD
BRANCH  14  22
ATOM     16 CL   UNL     1      48.865   7.704  11.517  0.00  0.00    +0.000 Cl
ATOM     17  C   UNL     1      47.631   6.820  12.326  0.00  0.00    +0.000 A 
ATOM     18  C   UNL     1      47.974   5.897  13.307  0.00  0.00    +0.000 A 
ATOM     19  C   UNL     1      46.965   5.177  13.933  0.00  0.00    +0.000 A 
ATOM     20 CL   UNL     1      47.369   4.033  15.156  0.00  0.00    +0.000 Cl
ATOM     21  C   UNL     1      45.626   5.380  13.589  0.00  0.00    +0.000 A 
ATOM     22  C   UNL     1      45.265   6.338  12.633  0.00  0.00    +0.000 A 
ATOM     23  C   UNL     1      46.291   7.040  11.989  0.00  0.00    +0.000 A 
ENDBRANCH  14  22
ENDBRANCH  13  14
ENDBRANCH   1  13
TORSDOF 4
ENDMDL
MODEL 2
REMARK VINA RESULT:    -7.841      0.082      1.918
REMARK INTER + INTRA:         -10.484
REMARK INTER:                  -9.737
REMARK INTRA:                  -0.747
REMARK UNBOUND:                -0.810
REMARK  Name = 
REMARK  4 active torsions:
REMARK  status: ('A' for Active; 'I' for Inactive)
REMARK    1  A    between atoms: C_7  and  N_8
REMARK    2  A    between atoms: N_8  and  C_9
REMARK    3  A    between atoms: C_9  and  C_10
REMARK    4  A    between atoms: C_14  and  C_15
REMARK                            x       y       z     vdW  Elec       q    Type
REMARK                         _______ _______ _______ _____ _____    ______ ____
ROOT
ATOM      1  C   UNL     1      43.680   4.765  10.687  0.00  0.00    +0.000 A 
ATOM      2  C   UNL     1      43.116   3.738  11.430  0.00  0.00    +0.000 A 
ATOM      3  N   UNL     1      43.328   2.429  11.181  0.00  0.00    +0.000 NA
ATOM      4  C   UNL     1      44.158   2.127  10.152  0.00  0.00    +0.000 A 
ATOM      5  C   UNL     1      44.800   3.060   9.336  0.00  0.00    +0.000 A 
ATOM      6  C   UNL     1      44.539   4.407   9.637  0.00  0.00    +0.000 A 
ENDROOT
BRANCH   5   7
ATOM      7  C   UNL     1      45.693   2.658   8.228  0.00  0.00    +0.000 A 
ATOM      8  C   UNL     1      46.017   3.527   7.174  0.00  0.00    +0.000 A 
ATOM      9  C   UNL     1      46.861   3.111   6.143  0.00  0.00    +0.000 A 
ATOM     10  C   UNL     1      47.375   1.829   6.189  0.00  0.00    +0.000 A 
ATOM     11  N   UNL     1      47.101   0.955   7.176  0.00  0.00    +0.000 NA
ATOM     12  C   UNL     1      46.270   1.388   8.158  0.00  0.00    +0.000 A 
ENDBRANCH   5   7
BRANCH   1  13
ATOM     13  C   UNL     1      43.379   6.204  11.000  0.00  0.00    +0.000 C 
BRANCH  13  14
ATOM     14  N   UNL     1      43.853   6.534  12.337  0.00  0.00    +0.000 N 
ATOM     15  H   UNL     1      43.230   6.190  13.068  0.00  0.00    +0.000 HD
BRANCH  14  22
ATOM     16 CL   UNL     1      47.407   3.951  15.071  0.00  0.00    +0.000 Cl
ATOM     17  C   UNL     1      46.949   5.127  13.902  0.00  0.00    +0.000 A 
ATOM     18  C   UNL     1      47.926   5.868  13.249  0.00  0.00    +0.000 A 
ATOM     19  C   UNL     1      47.535   6.828  12.324  0.00  0.00    +0.000 A 
ATOM     20 CL   UNL     1      48.732   7.753  11.500  0.00  0.00    +0.000 Cl
ATOM     21  C   UNL     1      46.182   7.043  12.049  0.00  0.00    +0.000 A 
ATOM     22  C   UNL     1      45.190   6.272  12.669  0.00  0.00    +0.000 A 
ATOM     23  C   UNL     1      45.593   5.325  13.618  0.00  0.00    +0.000 A 
ENDBRANCH  14  22
ENDBRANCH  13  14
ENDBRANCH   1  13
TORSDOF 4
ENDMDL
MODEL 3
REMARK VINA RESULT:    -7.451      1.457      2.402
REMARK INTER + INTRA:         -10.002
REMARK INTER:                  -9.295
REMARK INTRA:                  -0.708
REMARK UNBOUND:                -0.810
REMARK  Name = 
REMARK  4 active torsions:
REMARK  status: ('A' for Active; 'I' for Inactive)
REMARK    1  A    between atoms: C_7  and  N_8
REMARK    2  A    between atoms: N_8  and  C_9
REMARK    3  A    between atoms: C_9  and  C_10
REMARK    4  A    between atoms: C_14  and  C_15
REMARK                            x       y       z     vdW  Elec       q    Type
REMARK                         _______ _______ _______ _____ _____    ______ ____
ROOT
ATOM      1  C   UNL     1      43.817   4.974  10.973  0.00  0.00    +0.000 A 
ATOM      2  C   UNL     1      43.143   3.975  11.662  0.00  0.00    +0.000 A 
ATOM      3  N   UNL     1      43.223   2.665  11.349  0.00  0.00    +0.000 NA
ATOM      4  C   UNL     1      44.029   2.331  10.311  0.00  0.00    +0.000 A 
ATOM      5  C   UNL     1      44.771   3.231   9.545  0.00  0.00    +0.000 A 
ATOM      6  C   UNL     1      44.645   4.583   9.911  0.00  0.00    +0.000 A 
ENDROOT
BRANCH   5   7
ATOM      7  C   UNL     1      45.629   2.796   8.423  0.00  0.00    +0.000 A 
ATOM      8  C   UNL     1      46.002   3.661   7.384  0.00  0.00    +0.000 A 
ATOM      9  C   UNL     1      46.811   3.213   6.338  0.00  0.00    +0.000 A 
ATOM     10  C   UNL     1      47.242   1.900   6.357  0.00  0.00    +0.000 A 
ATOM     11  N   UNL     1      46.919   1.026   7.329  0.00  0.00    +0.000 NA
ATOM     12  C   UNL     1      46.123   1.493   8.325  0.00  0.00    +0.000 A 
ENDBRANCH   5   7
BRANCH   1  13
ATOM     13  C   UNL     1      43.661   6.420  11.356  0.00  0.00    +0.000 C 
BRANCH  13  14
ATOM     14  N   UNL     1      44.493   6.722  12.512  0.00  0.00    +0.000 N 
ATOM     15  H   UNL     1      44.734   5.888  13.048  0.00  0.00    +0.000 HD
BRANCH  14  22
ATOM     16 CL   UNL     1      49.616   7.339  12.121  0.00  0.00    +0.000 Cl
ATOM     17  C   UNL     1      48.009   7.954  12.156  0.00  0.00    +0.000 A 
ATOM     18  C   UNL     1      47.791   9.320  12.023  0.00  0.00    +0.000 A 
ATOM     19  C   UNL     1      46.488   9.800  12.076  0.00  0.00    +0.000 A 
ATOM     20 CL   UNL     1      46.196  11.489  11.907  0.00  0.00    +0.000 Cl
ATOM     21  C   UNL     1      45.413   8.925  12.254  0.00  0.00    +0.000 A 
ATOM     22  C   UNL     1      45.618   7.542  12.346  0.00  0.00    +0.000 A 
ATOM     23  C   UNL     1      46.935   7.071  12.317  0.00  0.00    +0.000 A 
ENDBRANCH  14  22
ENDBRANCH  13  14
ENDBRANCH   1  13
TORSDOF 4
ENDMDL
MODEL 4
REMARK VINA RESULT:    -7.450      1.458      2.072
REMARK INTER + INTRA:         -10.001
REMARK INTER:                  -9.296
REMARK INTRA:                  -0.706
REMARK UNBOUND:                -0.810
REMARK  Name = 
REMARK  4 active torsions:
REMARK  status: ('A' for Active; 'I' for Inactive)
REMARK    1  A    between atoms: C_7  and  N_8
REMARK    2  A    between atoms: N_8  and  C_9
REMARK    3  A    between atoms: C_9  and  C_10
REMARK    4  A    between atoms: C_14  and  C_15
REMARK                            x       y       z     vdW  Elec       q    Type
REMARK                         _______ _______ _______ _____ _____    ______ ____
ROOT
ATOM      1  C   UNL     1      43.810   5.043  11.011  0.00  0.00    +0.000 A 
ATOM      2  C   UNL     1      43.139   4.054  11.716  0.00  0.00    +0.000 A 
ATOM      3  N   UNL     1      43.210   2.740  11.416  0.00  0.00    +0.000 NA
ATOM      4  C   UNL     1      44.005   2.392  10.374  0.00  0.00    +0.000 A 
ATOM      5  C   UNL     1      44.743   3.281   9.592  0.00  0.00    +0.000 A 
ATOM      6  C   UNL     1      44.627   4.636   9.945  0.00  0.00    +0.000 A 
ENDROOT
BRANCH   5   7
ATOM      7  C   UNL     1      45.589   2.830   8.466  0.00  0.00    +0.000 A 
ATOM      8  C   UNL     1      45.955   3.683   7.414  0.00  0.00    +0.000 A 
ATOM      9  C   UNL     1      46.752   3.220   6.366  0.00  0.00    +0.000 A 
ATOM     10  C   UNL     1      47.178   1.906   6.394  0.00  0.00    +0.000 A 
ATOM     11  N   UNL     1      46.861   1.044   7.379  0.00  0.00    +0.000 NA
ATOM     12  C   UNL     1      46.077   1.524   8.377  0.00  0.00    +0.000 A 
ENDBRANCH   5   7
BRANCH   1  13
ATOM     13  C   UNL     1      43.664   6.493  11.380  0.00  0.00    +0.000 C 
BRANCH  13  14
ATOM     14  N   UNL     1      44.486   6.797  12.543  0.00  0.00    +0.000 N 
ATOM     15  H   UNL     1      44.763   5.959  13.055  0.00  0.00    +0.000 HD
BRANCH  14  22
ATOM     16 CL   UNL     1      46.418  11.554  11.892  0.00  0.00    +0.000 Cl
ATOM     17  C   UNL     1      46.598   9.854  12.085  0.00  0.00    +0.000 A 
ATOM     18  C   UNL     1      47.869   9.291  12.092  0.00  0.00    +0.000 A 
ATOM     19  C   UNL     1      47.993   7.914  12.227  0.00  0.00    +0.000 A 
ATOM     20 CL   UNL     1      49.559   7.199  12.244  0.00  0.00    +0.000 Cl
ATOM     21  C   UNL     1      46.860   7.106  12.359  0.00  0.00    +0.000 A 
ATOM     22  C   UNL     1      45.577   7.666  12.397  0.00  0.00    +0.000 A 
ATOM     23  C   UNL     1      45.461   9.051  12.234  0.00  0.00    +0.000 A 
ENDBRANCH  14  22
ENDBRANCH  13  14
ENDBRANCH   1  13
TORSDOF 4
ENDMDL
MODEL 5
REMARK VINA RESULT:    -7.303      1.557      2.607
REMARK INTER + INTRA:          -9.821
REMARK INTER:                  -9.122
REMARK INTRA:                  -0.698
REMARK UNBOUND:                -0.810
REMARK  Name = 
REMARK  4 active torsions:
REMARK  status: ('A' for Active; 'I' for Inactive)
REMARK    1  A    between atoms: C_7  and  N_8
REMARK    2  A    between atoms: N_8  and  C_9
REMARK    3  A    between atoms: C_9  and  C_10
REMARK    4  A    between atoms: C_14  and  C_15
REMARK                            x       y       z     vdW  Elec       q    Type
REMARK                         _______ _______ _______ _____ _____    ______ ____
ROOT
ATOM      1  C   UNL     1      43.736   5.032  11.022  0.00  0.00    +0.000 A 
ATOM      2  C   UNL     1      43.088   4.020  11.716  0.00  0.00    +0.000 A 
ATOM      3  N   UNL     1      43.202   2.711  11.412  0.00  0.00    +0.000 NA
ATOM      4  C   UNL     1      44.017   2.391  10.377  0.00  0.00    +0.000 A 
ATOM      5  C   UNL     1      44.736   3.305   9.606  0.00  0.00    +0.000 A 
ATOM      6  C   UNL     1      44.575   4.655   9.963  0.00  0.00    +0.000 A 
ENDROOT
BRANCH   5   7
ATOM      7  C   UNL     1      45.607   2.885   8.487  0.00  0.00    +0.000 A 
ATOM      8  C   UNL     1      46.118   1.583   8.383  0.00  0.00    +0.000 A 
ATOM      9  C   UNL     1      46.940   1.224   7.314  0.00  0.00    +0.000 A 
ATOM     10  C   UNL     1      47.229   2.178   6.356  0.00  0.00    +0.000 A 
ATOM     11  N   UNL     1      46.764   3.440   6.403  0.00  0.00    +0.000 NA
ATOM     12  C   UNL     1      45.976   3.759   7.461  0.00  0.00    +0.000 A 
ENDBRANCH   5   7
BRANCH   1  13
ATOM     13  C   UNL     1      43.542   6.475  11.395  0.00  0.00    +0.000 C 
BRANCH  13  14
ATOM     14  N   UNL     1      44.344   6.800  12.567  0.00  0.00    +0.000 N 
ATOM     15  H   UNL     1      44.534   5.983  13.148  0.00  0.00    +0.000 HD
BRANCH  14  22
ATOM     16 CL   UNL     1      49.495   7.201  12.283  0.00  0.00    +0.000 Cl
ATOM     17  C   UNL     1      47.915   7.880  12.262  0.00  0.00    +0.000 A 
ATOM     18  C   UNL     1      47.755   9.249  12.086  0.00  0.00    +0.000 A 
ATOM     19  C   UNL     1      46.472   9.782  12.093  0.00  0.00    +0.000 A 
ATOM     20 CL   UNL     1      46.253  11.475  11.871  0.00  0.00    +0.000 Cl
ATOM     21  C   UNL     1      45.359   8.956  12.270  0.00  0.00    +0.000 A 
ATOM     22  C   UNL     1      45.505   7.569  12.405  0.00  0.00    +0.000 A 
ATOM     23  C   UNL     1      46.803   7.045  12.421  0.00  0.00    +0.000 A 
ENDBRANCH  14  22
ENDBRANCH  13  14
ENDBRANCH   1  13
TORSDOF 4
ENDMDL
MODEL 6
REMARK VINA RESULT:    -6.760      1.932      2.452
REMARK INTER + INTRA:          -9.151
REMARK INTER:                  -8.592
REMARK INTRA:                  -0.559
REMARK UNBOUND:                -0.810
REMARK  Name = 
REMARK  4 active torsions:
REMARK  status: ('A' for Active; 'I' for Inactive)
REMARK    1  A    between atoms: C_7  and  N_8
REMARK    2  A    between atoms: N_8  and  C_9
REMARK    3  A    between atoms: C_9  and  C_10
REMARK    4  A    between atoms: C_14  and  C_15
REMARK                            x       y       z     vdW  Elec       q    Type
REMARK                         _______ _______ _______ _____ _____    ______ ____
ROOT
ATOM      1  C   UNL     1      44.680   4.331  12.047  0.00  0.00    +0.000 A 
ATOM      2  C   UNL     1      43.605   3.495  12.318  0.00  0.00    +0.000 A 
ATOM      3  N   UNL     1      43.181   2.526  11.482  0.00  0.00    +0.000 NA
ATOM      4  C   UNL     1      43.872   2.369  10.325  0.00  0.00    +0.000 A 
ATOM      5  C   UNL     1      44.975   3.129   9.937  0.00  0.00    +0.000 A 
ATOM      6  C   UNL     1      45.370   4.128  10.844  0.00  0.00    +0.000 A 
ENDROOT
BRANCH   5   7
ATOM      7  C   UNL     1      45.681   2.903   8.657  0.00  0.00    +0.000 A 
ATOM      8  C   UNL     1      46.165   1.642   8.280  0.00  0.00    +0.000 A 
ATOM      9  C   UNL     1      46.829   1.468   7.065  0.00  0.00    +0.000 A 
ATOM     10  C   UNL     1      46.990   2.565   6.240  0.00  0.00    +0.000 A 
ATOM     11  N   UNL     1      46.544   3.797   6.549  0.00  0.00    +0.000 NA
ATOM     12  C   UNL     1      45.911   3.933   7.741  0.00  0.00    +0.000 A 
ENDBRANCH   5   7
BRANCH   1  13
ATOM     13  C   UNL     1      45.083   5.412  13.012  0.00  0.00    +0.000 C 
BRANCH  13  14
ATOM     14  N   UNL     1      46.529   5.584  12.993  0.00  0.00    +0.000 N 
ATOM     15  H   UNL     1      46.819   6.386  12.433  0.00  0.00    +0.000 HD
BRANCH  14  22
ATOM     16 CL   UNL     1      50.057   7.555  16.225  0.00  0.00    +0.000 Cl
ATOM     17  C   UNL     1      48.874   6.380  15.799  0.00  0.00    +0.000 A 
ATOM     18  C   UNL     1      48.593   5.336  16.673  0.00  0.00    +0.000 A 
ATOM     19  C   UNL     1      47.651   4.385  16.301  0.00  0.00    +0.000 A 
ATOM     20 CL   UNL     1      47.284   3.088  17.372  0.00  0.00    +0.000 Cl
ATOM     21  C   UNL     1      46.992   4.478  15.073  0.00  0.00    +0.000 A 
ATOM     22  C   UNL     1      47.235   5.549  14.203  0.00  0.00    +0.000 A 
ATOM     23  C   UNL     1      48.204   6.487  14.575  0.00  0.00    +0.000 A 
ENDBRANCH  14  22
ENDBRANCH  13  14
ENDBRANCH   1  13
TORSDOF 4
ENDMDL
MODEL 7
REMARK VINA RESULT:    -6.561      3.104      4.262
REMARK INTER + INTRA:          -8.905
REMARK INTER:                  -8.228
REMARK INTRA:                  -0.677
REMARK UNBOUND:                -0.810
REMARK  Name = 
REMARK  4 active torsions:
REMARK  status: ('A' for Active; 'I' for Inactive)
REMARK    1  A    between atoms: C_7  and  N_8
REMARK    2  A    between atoms: N_8  and  C_9
REMARK    3  A    between atoms: C_9  and  C_10
REMARK    4  A    between atoms: C_14  and  C_15
REMARK                            x       y       z     vdW  Elec       q    Type
REMARK                         _______ _______ _______ _____ _____    ______ ____
ROOT
ATOM      1  C   UNL     1      44.979   6.342  11.764  0.00  0.00    +0.000 A 
ATOM      2  C   UNL     1      43.629   6.124  12.003  0.00  0.00    +0.000 A 
ATOM      3  N   UNL     1      42.888   5.214  11.337  0.00  0.00    +0.000 NA
ATOM      4  C   UNL     1      43.527   4.471  10.399  0.00  0.00    +0.000 A 
ATOM      5  C   UNL     1      44.879   4.579  10.071  0.00  0.00    +0.000 A 
ATOM      6  C   UNL     1      45.601   5.546  10.791  0.00  0.00    +0.000 A 
ENDROOT
BRANCH   5   7
ATOM      7  C   UNL     1      45.510   3.736   9.033  0.00  0.00    +0.000 A 
ATOM      8  C   UNL     1      46.152   4.281   7.911  0.00  0.00    +0.000 A 
ATOM      9  C   UNL     1      46.734   3.453   6.950  0.00  0.00    +0.000 A 
ATOM     10  C   UNL     1      46.671   2.085   7.135  0.00  0.00    +0.000 A 
ATOM     11  N   UNL     1      46.072   1.506   8.193  0.00  0.00    +0.000 NA
ATOM     12  C   UNL     1      45.508   2.340   9.103  0.00  0.00    +0.000 A 
ENDBRANCH   5   7
BRANCH   1  13
ATOM     13  C   UNL     1      45.740   7.393  12.523  0.00  0.00    +0.000 C 
BRANCH  13  14
ATOM     14  N   UNL     1      44.896   8.561  12.740  0.00  0.00    +0.000 N 
ATOM     15  H   UNL     1      44.992   8.942  13.681  0.00  0.00    +0.000 HD
BRANCH  14  22
ATOM     16 CL   UNL     1      42.794  10.968   8.670  0.00  0.00    +0.000 Cl
ATOM     17  C   UNL     1      44.011  10.801   9.874  0.00  0.00    +0.000 A 
ATOM     18  C   UNL     1      45.062  11.709   9.924  0.00  0.00    +0.000 A 
ATOM     19  C   UNL     1      46.046  11.544  10.890  0.00  0.00    +0.000 A 
ATOM     20 CL   UNL     1      47.353  12.663  10.973  0.00  0.00    +0.000 Cl
ATOM     21  C   UNL     1      45.980  10.487  11.802  0.00  0.00    +0.000 A 
ATOM     22  C   UNL     1      44.904   9.591  11.789  0.00  0.00    +0.000 A 
ATOM     23  C   UNL     1      43.930   9.750  10.796  0.00  0.00    +0.000 A 
ENDBRANCH  14  22
ENDBRANCH  13  14
ENDBRANCH   1  13
TORSDOF 4
ENDMDL
MODEL 8
REMARK VINA RESULT:    -6.440      2.037      3.076
REMARK INTER + INTRA:          -8.756
REMARK INTER:                  -8.122
REMARK INTRA:                  -0.634
REMARK UNBOUND:                -0.810
REMARK  Name = 
REMARK  4 active torsions:
REMARK  status: ('A' for Active; 'I' for Inactive)
REMARK    1  A    between atoms: C_7  and  N_8
REMARK    2  A    between atoms: N_8  and  C_9
REMARK    3  A    between atoms: C_9  and  C_10
REMARK    4  A    between atoms: C_14  and  C_15
REMARK                            x       y       z     vdW  Elec       q    Type
REMARK                         _______ _______ _______ _____ _____    ______ ____
ROOT
ATOM      1  C   UNL     1      44.918   5.791  12.099  0.00  0.00    +0.000 A 
ATOM      2  C   UNL     1      43.596   5.473  12.378  0.00  0.00    +0.000 A 
ATOM      3  N   UNL     1      42.872   4.588  11.662  0.00  0.00    +0.000 NA
ATOM      4  C   UNL     1      43.500   3.975  10.629  0.00  0.00    +0.000 A 
ATOM      5  C   UNL     1      44.825   4.192  10.250  0.00  0.00    +0.000 A 
ATOM      6  C   UNL     1      45.531   5.127  11.026  0.00  0.00    +0.000 A 
ENDROOT
BRANCH   5   7
ATOM      7  C   UNL     1      45.446   3.488   9.108  0.00  0.00    +0.000 A 
ATOM      8  C   UNL     1      46.014   4.173   8.023  0.00  0.00    +0.000 A 
ATOM      9  C   UNL     1      46.588   3.474   6.960  0.00  0.00    +0.000 A 
ATOM     10  C   UNL     1      46.593   2.093   7.007  0.00  0.00    +0.000 A 
ATOM     11  N   UNL     1      46.067   1.383   8.023  0.00  0.00    +0.000 NA
ATOM     12  C   UNL     1      45.508   2.094   9.035  0.00  0.00    +0.000 A 
ENDBRANCH   5   7
BRANCH   1  13
ATOM     13  C   UNL     1      45.660   6.809  12.920  0.00  0.00    +0.000 C 
BRANCH  13  14
ATOM     14  N   UNL     1      47.070   6.453  13.002  0.00  0.00    +0.000 N 
ATOM     15  H   UNL     1      47.673   7.143  12.552  0.00  0.00    +0.000 HD
BRANCH  14  22
ATOM     16 CL   UNL     1      47.238   3.214  17.033  0.00  0.00    +0.000 Cl
ATOM     17  C   UNL     1      47.766   4.616  16.188  0.00  0.00    +0.000 A 
ATOM     18  C   UNL     1      48.757   5.420  16.737  0.00  0.00    +0.000 A 
ATOM     19  C   UNL     1      49.154   6.560  16.049  0.00  0.00    +0.000 A 
ATOM     20 CL   UNL     1      50.385   7.567  16.710  0.00  0.00    +0.000 Cl
ATOM     21  C   UNL     1      48.572   6.891  14.823  0.00  0.00    +0.000 A 
ATOM     22  C   UNL     1      47.603   6.065  14.239  0.00  0.00    +0.000 A 
ATOM     23  C   UNL     1      47.191   4.933  14.951  0.00  0.00    +0.000 A 
ENDBRANCH  14  22
ENDBRANCH  13  14
ENDBRANCH   1  13
TORSDOF 4
ENDMDL
MODEL 9
REMARK VINA RESULT:    -6.393      3.172      4.328
REMARK INTER + INTRA:          -8.698
REMARK INTER:                  -8.033
REMARK INTRA:                  -0.665
REMARK UNBOUND:                -0.810
REMARK  Name = 
REMARK  4 active torsions:
REMARK  status: ('A' for Active; 'I' for Inactive)
REMARK    1  A    between atoms: C_7  and  N_8
REMARK    2  A    between atoms: N_8  and  C_9
REMARK    3  A    between atoms: C_9  and  C_10
REMARK    4  A    between atoms: C_14  and  C_15
REMARK                            x       y       z     vdW  Elec       q    Type
REMARK                         _______ _______ _______ _____ _____    ______ ____
ROOT
ATOM      1  C   UNL     1      44.900   6.308  11.971  0.00  0.00    +0.000 A 
ATOM      2  C   UNL     1      43.644   5.892  12.391  0.00  0.00    +0.000 A 
ATOM      3  N   UNL     1      42.959   4.881  11.818  0.00  0.00    +0.000 NA
ATOM      4  C   UNL     1      43.562   4.240  10.786  0.00  0.00    +0.000 A 
ATOM      5  C   UNL     1      44.823   4.547  10.275  0.00  0.00    +0.000 A 
ATOM      6  C   UNL     1      45.489   5.612  10.906  0.00  0.00    +0.000 A 
ENDROOT
BRANCH   5   7
ATOM      7  C   UNL     1      45.420   3.806   9.143  0.00  0.00    +0.000 A 
ATOM      8  C   UNL     1      45.472   2.404   9.108  0.00  0.00    +0.000 A 
ATOM      9  C   UNL     1      46.046   1.739   8.024  0.00  0.00    +0.000 A 
ATOM     10  C   UNL     1      46.554   2.493   6.983  0.00  0.00    +0.000 A 
ATOM     11  N   UNL     1      46.527   3.839   6.960  0.00  0.00    +0.000 NA
ATOM     12  C   UNL     1      45.971   4.454   8.034  0.00  0.00    +0.000 A 
ENDBRANCH   5   7
BRANCH   1  13
ATOM     13  C   UNL     1      45.596   7.462  12.637  0.00  0.00    +0.000 C 
BRANCH  13  14
ATOM     14  N   UNL     1      44.711   8.618  12.686  0.00  0.00    +0.000 N 
ATOM     15  H   UNL     1      44.616   8.997  13.628  0.00  0.00    +0.000 HD
BRANCH  14  22
ATOM     16 CL   UNL     1      47.395  12.660  10.885  0.00  0.00    +0.000 Cl
ATOM     17  C   UNL     1      46.065  11.570  10.824  0.00  0.00    +0.000 A 
ATOM     18  C   UNL     1      45.109  11.704   9.824  0.00  0.00    +0.000 A 
ATOM     19  C   UNL     1      44.031  10.827   9.804  0.00  0.00    +0.000 A 
ATOM     20 CL   UNL     1      42.839  10.972   8.570  0.00  0.00    +0.000 Cl
ATOM     21  C   UNL     1      43.911   9.824  10.769  0.00  0.00    +0.000 A 
ATOM     22  C   UNL     1      44.891   9.652  11.756  0.00  0.00    +0.000 A 
ATOM     23  C   UNL     1      45.959  10.556  11.783  0.00  0.00    +0.000 A 
ENDBRANCH  14  22
ENDBRANCH  13  14
ENDBRANCH   1  13
TORSDOF 4
ENDMDL
