MODEL 1
REMARK VINA RESULT:    -7.920      0.000      0.000
REMARK INTER + INTRA:         -12.589
REMARK INTER:                 -11.624
REMARK INTRA:                  -0.965
REMARK UNBOUND:                -0.965
REMARK  Name = 
REMARK  8 active torsions:
REMARK  status: ('A' for Active; 'I' for Inactive)
REMARK    1  A    between atoms: C_2  and  O_3
REMARK    2  A    between atoms: C_2  and  C_20
REMARK    3  A    between atoms: O_3  and  C_4
REMARK    4  A    between atoms: C_4  and  C_5
REMARK    5  A    between atoms: C_8  and  C_9
REMARK    6  A    between atoms: C_9  and  O_10
REMARK    7  A    between atoms: O_10  and  C_11
REMARK    8  A    between atoms: C_11  and  C_12
REMARK                            x       y       z     vdW  Elec       q    Type
REMARK                         _______ _______ _______ _____ _____    ______ ____
ROOT
ATOM      1  C   UNL     1      47.171   4.784  14.824  0.00  0.00    +0.000 C 
ENDROOT
BRANCH   1   2
ATOM      2  C   UNL     1      46.313   4.792  13.592  0.00  0.00    +0.000 A 
ATOM      3  C   UNL     1      46.065   5.971  12.896  0.00  0.00    +0.000 A 
ATOM      4  C   UNL     1      45.190   5.933  11.815  0.00  0.00    +0.000 A 
ATOM      5  C   UNL     1      44.591   4.725  11.448  0.00  0.00    +0.000 A 
ATOM      6  C   UNL     1      44.904   3.601  12.200  0.00  0.00    +0.000 A 
ATOM      7  N   UNL     1      45.737   3.612  13.257  0.00  0.00    +0.000 NA
BRANCH   5   8
ATOM      8  C   UNL     1      43.631   4.628  10.305  0.00  0.00    +0.000 C 
BRANCH   8   9
ATOM      9  O   UNL     1      44.111   3.609   9.438  0.00  0.00    +0.000 OA
BRANCH   9  10
ATOM     10  C   UNL     1      44.918   4.116   8.385  0.00  0.00    +0.000 C 
BRANCH  10  11
ATOM     11  C   UNL     1      45.835   3.016   7.973  0.00  0.00    +0.000 A 
ATOM     12  C   UNL     1      46.864   3.222   7.076  0.00  0.00    +0.000 A 
ATOM     13  N   UNL     1      47.702   2.256   6.652  0.00  0.00    +0.000 NA
ATOM     14  C   UNL     1      47.473   1.034   7.155  0.00  0.00    +0.000 A 
ATOM     15  N   UNL     1      46.516   0.709   8.037  0.00  0.00    +0.000 NA
ATOM     16  C   UNL     1      45.711   1.718   8.425  0.00  0.00    +0.000 A 
ENDBRANCH  10  11
ENDBRANCH   9  10
ENDBRANCH   8   9
ENDBRANCH   5   8
ENDBRANCH   1   2
BRANCH   1  17
ATOM     17  O   UNL     1      46.935   3.653  15.662  0.00  0.00    +0.000 OA
BRANCH  17  19
ATOM     18  O   UNL     1      46.813   4.153  17.901  0.00  0.00    +0.000 OA
ATOM     19  C   UNL     1      47.421   3.714  16.929  0.00  0.00    +0.000 C 
BRANCH  19  20
ATOM     20  C   UNL     1      48.841   3.401  16.960  0.00  0.00    +0.000 A 
ATOM     21  C   UNL     1      49.343   2.137  16.701  0.00  0.00    +0.000 A 
ATOM     22  S   UNL     1      50.925   1.938  17.340  0.00  0.00    +0.000 S 
ATOM     23  C   UNL     1      50.935   3.538  17.930  0.00  0.00    +0.000 A 
ATOM     24  N   UNL     1      51.841   3.977  18.842  0.00  0.00    +0.000 NA
ATOM     25  C   UNL     1      51.669   5.208  19.202  0.00  0.00    +0.000 A 
ATOM     26  N   UNL     1      50.751   6.072  18.652  0.00  0.00    +0.000 N 
ATOM     27  C   UNL     1      49.849   5.686  17.687  0.00  0.00    +0.000 A 
ATOM     28  O   UNL     1      49.119   6.493  17.118  0.00  0.00    +0.000 OA
ATOM     29  C   UNL     1      49.879   4.267  17.426  0.00  0.00    +0.000 A 
ATOM     30  H   UNL     1      50.748   7.048  18.897  0.00  0.00    +0.000 HD
ENDBRANCH  19  20
ENDBRANCH  17  19
ENDBRANCH   1  17
TORSDOF 8
ENDMDL
MODEL 2
REMARK VINA RESULT:    -7.740      1.682      2.059
REMARK INTER + INTRA:         -12.324
REMARK INTER:                 -11.359
REMARK INTRA:                  -0.965
REMARK UNBOUND:                -0.965
REMARK  Name = 
REMARK  8 active torsions:
REMARK  status: ('A' for Active; 'I' for Inactive)
REMARK    1  A    between atoms: C_2  and  O_3
REMARK    2  A    between atoms: C_2  and  C_20
REMARK    3  A    between atoms: O_3  and  C_4
REMARK    4  A    between atoms: C_4  and  C_5
REMARK    5  A    between atoms: C_8  and  C_9
REMARK    6  A    between atoms: C_9  and  O_10
REMARK    7  A    between atoms: O_10  and  C_11
REMARK    8  A    between atoms: C_11  and  C_12
REMARK                            x       y       z     vdW  Elec       q    Type
REMARK                         _______ _______ _______ _____ _____    ______ ____
ROOT
ATOM      1  C   UNL     1      47.278   4.601  14.911  0.00  0.00    +0.000 C 
ENDROOT
BRANCH   1   2
ATOM      2  C   UNL     1      46.403   4.643  13.692  0.00  0.00    +0.000 A 
ATOM      3  C   UNL     1      46.070   5.850  13.086  0.00  0.00    +0.000 A 
ATOM      4  C   UNL     1      45.182   5.833  12.014  0.00  0.00    +0.000 A 
ATOM      5  C   UNL     1      44.656   4.619  11.567  0.00  0.00    +0.000 A 
ATOM      6  C   UNL     1      45.052   3.466  12.231  0.00  0.00    +0.000 A 
ATOM      7  N   UNL     1      45.899   3.454  13.278  0.00  0.00    +0.000 NA
BRANCH   5   8
ATOM      8  C   UNL     1      43.687   4.542  10.430  0.00  0.00    +0.000 C 
BRANCH   8   9
ATOM      9  O   UNL     1      44.139   3.512   9.560  0.00  0.00    +0.000 OA
BRANCH   9  10
ATOM     10  C   UNL     1      44.811   4.014   8.414  0.00  0.00    +0.000 C 
BRANCH  10  11
ATOM     11  C   UNL     1      45.787   2.970   7.991  0.00  0.00    +0.000 A 
ATOM     12  C   UNL     1      46.810   3.245   7.105  0.00  0.00    +0.000 A 
ATOM     13  N   UNL     1      47.699   2.331   6.671  0.00  0.00    +0.000 NA
ATOM     14  C   UNL     1      47.530   1.091   7.151  0.00  0.00    +0.000 A 
ATOM     15  N   UNL     1      46.585   0.701   8.020  0.00  0.00    +0.000 NA
ATOM     16  C   UNL     1      45.727   1.661   8.419  0.00  0.00    +0.000 A 
ENDBRANCH  10  11
ENDBRANCH   9  10
ENDBRANCH   8   9
ENDBRANCH   5   8
ENDBRANCH   1   2
BRANCH   1  17
ATOM     17  O   UNL     1      46.596   4.132  16.074  0.00  0.00    +0.000 OA
BRANCH  17  19
ATOM     18  O   UNL     1      47.491   2.487  17.404  0.00  0.00    +0.000 OA
ATOM     19  C   UNL     1      47.364   3.667  17.093  0.00  0.00    +0.000 C 
BRANCH  19  20
ATOM     20  C   UNL     1      47.850   4.759  17.921  0.00  0.00    +0.000 A 
ATOM     21  C   UNL     1      47.021   5.532  18.717  0.00  0.00    +0.000 A 
ATOM     22  S   UNL     1      47.745   7.036  19.120  0.00  0.00    +0.000 S 
ATOM     23  C   UNL     1      49.160   6.634  18.257  0.00  0.00    +0.000 A 
ATOM     24  N   UNL     1      50.095   7.558  17.913  0.00  0.00    +0.000 NA
ATOM     25  C   UNL     1      51.080   7.076  17.225  0.00  0.00    +0.000 A 
ATOM     26  N   UNL     1      51.275   5.742  16.950  0.00  0.00    +0.000 N 
ATOM     27  C   UNL     1      50.381   4.766  17.325  0.00  0.00    +0.000 A 
ATOM     28  O   UNL     1      50.624   3.571  17.180  0.00  0.00    +0.000 OA
ATOM     29  C   UNL     1      49.172   5.302  17.902  0.00  0.00    +0.000 A 
ATOM     30  H   UNL     1      52.122   5.423  16.510  0.00  0.00    +0.000 HD
ENDBRANCH  19  20
ENDBRANCH  17  19
ENDBRANCH   1  17
TORSDOF 8
ENDMDL
MODEL 3
REMARK VINA RESULT:    -7.398      1.835      2.731
REMARK INTER + INTRA:         -11.822
REMARK INTER:                 -10.686
REMARK INTRA:                  -1.136
REMARK UNBOUND:                -0.965
REMARK  Name = 
REMARK  8 active torsions:
REMARK  status: ('A' for Active; 'I' for Inactive)
REMARK    1  A    between atoms: C_2  and  O_3
REMARK    2  A    between atoms: C_2  and  C_20
REMARK    3  A    between atoms: O_3  and  C_4
REMARK    4  A    between atoms: C_4  and  C_5
REMARK    5  A    between atoms: C_8  and  C_9
REMARK    6  A    between atoms: C_9  and  O_10
REMARK    7  A    between atoms: O_10  and  C_11
REMARK    8  A    between atoms: C_11  and  C_12
REMARK                            x       y       z     vdW  Elec       q    Type
REMARK                         _______ _______ _______ _____ _____    ______ ____
ROOT
ATOM      1  C   UNL     1      48.209   6.695  13.107  0.00  0.00    +0.000 C 
ENDROOT
BRANCH   1   2
ATOM      2  C   UNL     1      46.940   5.982  12.737  0.00  0.00    +0.000 A 
ATOM      3  C   UNL     1      46.566   4.803  13.372  0.00  0.00    +0.000 A 
ATOM      4  C   UNL     1      45.427   4.139  12.924  0.00  0.00    +0.000 A 
ATOM      5  C   UNL     1      44.686   4.669  11.865  0.00  0.00    +0.000 A 
ATOM      6  C   UNL     1      45.136   5.854  11.298  0.00  0.00    +0.000 A 
ATOM      7  N   UNL     1      46.239   6.509  11.703  0.00  0.00    +0.000 NA
BRANCH   5   8
ATOM      8  C   UNL     1      43.464   3.991  11.333  0.00  0.00    +0.000 C 
BRANCH   8   9
ATOM      9  O   UNL     1      43.700   3.716   9.958  0.00  0.00    +0.000 OA
BRANCH   9  10
ATOM     10  C   UNL     1      44.319   2.455   9.747  0.00  0.00    +0.000 C 
BRANCH  10  11
ATOM     11  C   UNL     1      45.352   2.650   8.691  0.00  0.00    +0.000 A 
ATOM     12  C   UNL     1      46.153   1.613   8.255  0.00  0.00    +0.000 A 
ATOM     13  N   UNL     1      47.118   1.745   7.324  0.00  0.00    +0.000 NA
ATOM     14  C   UNL     1      47.277   2.981   6.830  0.00  0.00    +0.000 A 
ATOM     15  N   UNL     1      46.559   4.065   7.164  0.00  0.00    +0.000 NA
ATOM     16  C   UNL     1      45.607   3.869   8.098  0.00  0.00    +0.000 A 
ENDBRANCH  10  11
ENDBRANCH   9  10
ENDBRANCH   8   9
ENDBRANCH   5   8
ENDBRANCH   1   2
BRANCH   1  17
ATOM     17  O   UNL     1      48.840   6.147  14.264  0.00  0.00    +0.000 OA
BRANCH  17  19
ATOM     18  O   UNL     1      48.447   8.077  15.447  0.00  0.00    +0.000 OA
ATOM     19  C   UNL     1      48.897   6.938  15.367  0.00  0.00    +0.000 C 
BRANCH  19  20
ATOM     20  C   UNL     1      49.760   6.356  16.383  0.00  0.00    +0.000 A 
ATOM     21  C   UNL     1      50.980   6.903  16.744  0.00  0.00    +0.000 A 
ATOM     22  S   UNL     1      51.992   5.750  17.516  0.00  0.00    +0.000 S 
ATOM     23  C   UNL     1      50.791   4.546  17.386  0.00  0.00    +0.000 A 
ATOM     24  N   UNL     1      51.056   3.225  17.564  0.00  0.00    +0.000 NA
ATOM     25  C   UNL     1      50.030   2.456  17.386  0.00  0.00    +0.000 A 
ATOM     26  N   UNL     1      48.745   2.892  17.162  0.00  0.00    +0.000 N 
ATOM     27  C   UNL     1      48.421   4.222  17.028  0.00  0.00    +0.000 A 
ATOM     28  O   UNL     1      47.257   4.604  16.949  0.00  0.00    +0.000 OA
ATOM     29  C   UNL     1      49.580   5.083  17.007  0.00  0.00    +0.000 A 
ATOM     30  H   UNL     1      47.974   2.244  17.148  0.00  0.00    +0.000 HD
ENDBRANCH  19  20
ENDBRANCH  17  19
ENDBRANCH   1  17
TORSDOF 8
ENDMDL
MODEL 4
REMARK VINA RESULT:    -7.022      3.382      8.592
REMARK INTER + INTRA:         -11.270
REMARK INTER:                  -9.879
REMARK INTRA:                  -1.391
REMARK UNBOUND:                -0.965
REMARK  Name = 
REMARK  8 active torsions:
REMARK  status: ('A' for Active; 'I' for Inactive)
REMARK    1  A    between atoms: C_2  and  O_3
REMARK    2  A    between atoms: C_2  and  C_20
REMARK    3  A    between atoms: O_3  and  C_4
REMARK    4  A    between atoms: C_4  and  C_5
REMARK    5  A    between atoms: C_8  and  C_9
REMARK    6  A    between atoms: C_9  and  O_10
REMARK    7  A    between atoms: O_10  and  C_11
REMARK    8  A    between atoms: C_11  and  C_12
REMARK                            x       y       z     vdW  Elec       q    Type
REMARK                         _______ _______ _______ _____ _____    ______ ____
ROOT
ATOM      1  C   UNL     1      47.563   8.258  12.337  0.00  0.00    +0.000 C 
ENDROOT
BRANCH   1   2
ATOM      2  C   UNL     1      48.139   8.145  13.720  0.00  0.00    +0.000 A 
ATOM      3  C   UNL     1      48.837   7.009  14.117  0.00  0.00    +0.000 A 
ATOM      4  C   UNL     1      49.269   6.923  15.437  0.00  0.00    +0.000 A 
ATOM      5  C   UNL     1      49.004   7.969  16.325  0.00  0.00    +0.000 A 
ATOM      6  C   UNL     1      48.305   9.063  15.834  0.00  0.00    +0.000 A 
ATOM      7  N   UNL     1      47.865   9.167  14.566  0.00  0.00    +0.000 NA
BRANCH   5   8
ATOM      8  C   UNL     1      49.430   7.923  17.757  0.00  0.00    +0.000 C 
BRANCH   8   9
ATOM      9  O   UNL     1      48.440   7.192  18.469  0.00  0.00    +0.000 OA
BRANCH   9  10
ATOM     10  C   UNL     1      48.955   6.020  19.083  0.00  0.00    +0.000 C 
BRANCH  10  11
ATOM     11  C   UNL     1      48.567   4.870  18.218  0.00  0.00    +0.000 A 
ATOM     12  C   UNL     1      49.505   3.999  17.698  0.00  0.00    +0.000 A 
ATOM     13  N   UNL     1      49.207   2.963  16.891  0.00  0.00    +0.000 NA
ATOM     14  C   UNL     1      47.908   2.817  16.596  0.00  0.00    +0.000 A 
ATOM     15  N   UNL     1      46.904   3.588  17.043  0.00  0.00    +0.000 NA
ATOM     16  C   UNL     1      47.265   4.607  17.849  0.00  0.00    +0.000 A 
ENDBRANCH  10  11
ENDBRANCH   9  10
ENDBRANCH   8   9
ENDBRANCH   5   8
ENDBRANCH   1   2
BRANCH   1  17
ATOM     17  O   UNL     1      47.195   6.996  11.780  0.00  0.00    +0.000 OA
BRANCH  17  19
ATOM     18  O   UNL     1      44.968   7.559  11.786  0.00  0.00    +0.000 OA
ATOM     19  C   UNL     1      45.893   6.834  11.430  0.00  0.00    +0.000 C 
BRANCH  19  20
ATOM     20  C   UNL     1      45.686   5.561  10.760  0.00  0.00    +0.000 A 
ATOM     21  C   UNL     1      45.791   5.401   9.388  0.00  0.00    +0.000 A 
ATOM     22  S   UNL     1      44.973   3.992   8.846  0.00  0.00    +0.000 S 
ATOM     23  C   UNL     1      44.511   3.595  10.439  0.00  0.00    +0.000 A 
ATOM     24  N   UNL     1      43.543   2.683  10.715  0.00  0.00    +0.000 NA
ATOM     25  C   UNL     1      43.300   2.543  11.979  0.00  0.00    +0.000 A 
ATOM     26  N   UNL     1      44.011   3.142  12.992  0.00  0.00    +0.000 N 
ATOM     27  C   UNL     1      45.034   4.032  12.760  0.00  0.00    +0.000 A 
ATOM     28  O   UNL     1      45.738   4.465  13.668  0.00  0.00    +0.000 OA
ATOM     29  C   UNL     1      45.180   4.368  11.364  0.00  0.00    +0.000 A 
ATOM     30  H   UNL     1      43.843   2.899  13.955  0.00  0.00    +0.000 HD
ENDBRANCH  19  20
ENDBRANCH  17  19
ENDBRANCH   1  17
TORSDOF 8
ENDMDL
MODEL 5
REMARK VINA RESULT:    -6.981      2.326      3.126
REMARK INTER + INTRA:         -11.211
REMARK INTER:                 -10.145
REMARK INTRA:                  -1.066
REMARK UNBOUND:                -0.965
REMARK  Name = 
REMARK  8 active torsions:
REMARK  status: ('A' for Active; 'I' for Inactive)
REMARK    1  A    between atoms: C_2  and  O_3
REMARK    2  A    between atoms: C_2  and  C_20
REMARK    3  A    between atoms: O_3  and  C_4
REMARK    4  A    between atoms: C_4  and  C_5
REMARK    5  A    between atoms: C_8  and  C_9
REMARK    6  A    between atoms: C_9  and  O_10
REMARK    7  A    between atoms: O_10  and  C_11
REMARK    8  A    between atoms: C_11  and  C_12
REMARK                            x       y       z     vdW  Elec       q    Type
REMARK                         _______ _______ _______ _____ _____    ______ ____
ROOT
ATOM      1  C   UNL     1      48.804   6.930  14.002  0.00  0.00    +0.000 C 
ENDROOT
BRANCH   1   2
ATOM      2  C   UNL     1      47.675   6.131  13.416  0.00  0.00    +0.000 A 
ATOM      3  C   UNL     1      46.874   6.653  12.405  0.00  0.00    +0.000 A 
ATOM      4  C   UNL     1      45.788   5.902  11.965  0.00  0.00    +0.000 A 
ATOM      5  C   UNL     1      45.532   4.651  12.532  0.00  0.00    +0.000 A 
ATOM      6  C   UNL     1      46.391   4.214  13.531  0.00  0.00    +0.000 A 
ATOM      7  N   UNL     1      47.440   4.924  13.985  0.00  0.00    +0.000 NA
BRANCH   5   8
ATOM      8  C   UNL     1      44.371   3.809  12.109  0.00  0.00    +0.000 C 
BRANCH   8   9
ATOM      9  O   UNL     1      44.208   3.990  10.708  0.00  0.00    +0.000 OA
BRANCH   9  10
ATOM     10  C   UNL     1      44.192   2.763   9.993  0.00  0.00    +0.000 C 
BRANCH  10  11
ATOM     11  C   UNL     1      45.246   2.857   8.944  0.00  0.00    +0.000 A 
ATOM     12  C   UNL     1      45.575   4.058   8.347  0.00  0.00    +0.000 A 
ATOM     13  N   UNL     1      46.500   4.191   7.376  0.00  0.00    +0.000 NA
ATOM     14  C   UNL     1      47.102   3.055   6.996  0.00  0.00    +0.000 A 
ATOM     15  N   UNL     1      46.878   1.833   7.502  0.00  0.00    +0.000 NA
ATOM     16  C   UNL     1      45.943   1.765   8.471  0.00  0.00    +0.000 A 
ENDBRANCH  10  11
ENDBRANCH   9  10
ENDBRANCH   8   9
ENDBRANCH   5   8
ENDBRANCH   1   2
BRANCH   1  17
ATOM     17  O   UNL     1      48.604   7.253  15.377  0.00  0.00    +0.000 OA
BRANCH  17  19
ATOM     18  O   UNL     1      50.488   6.083  15.977  0.00  0.00    +0.000 OA
ATOM     19  C   UNL     1      49.550   6.825  16.254  0.00  0.00    +0.000 C 
BRANCH  19  20
ATOM     20  C   UNL     1      49.191   7.170  17.620  0.00  0.00    +0.000 A 
ATOM     21  C   UNL     1      49.537   8.373  18.212  0.00  0.00    +0.000 A 
ATOM     22  S   UNL     1      49.483   8.277  19.926  0.00  0.00    +0.000 S 
ATOM     23  C   UNL     1      48.978   6.650  19.863  0.00  0.00    +0.000 A 
ATOM     24  N   UNL     1      49.019   5.828  20.943  0.00  0.00    +0.000 NA
ATOM     25  C   UNL     1      48.634   4.617  20.695  0.00  0.00    +0.000 A 
ATOM     26  N   UNL     1      48.105   4.184  19.502  0.00  0.00    +0.000 N 
ATOM     27  C   UNL     1      47.994   4.996  18.397  0.00  0.00    +0.000 A 
ATOM     28  O   UNL     1      47.410   4.634  17.379  0.00  0.00    +0.000 OA
ATOM     29  C   UNL     1      48.615   6.286  18.584  0.00  0.00    +0.000 A 
ATOM     30  H   UNL     1      47.718   3.259  19.413  0.00  0.00    +0.000 HD
ENDBRANCH  19  20
ENDBRANCH  17  19
ENDBRANCH   1  17
TORSDOF 8
ENDMDL
MODEL 6
REMARK VINA RESULT:    -6.912      2.037      3.066
REMARK INTER + INTRA:         -11.109
REMARK INTER:                  -9.806
REMARK INTRA:                  -1.303
REMARK UNBOUND:                -0.965
REMARK  Name = 
REMARK  8 active torsions:
REMARK  status: ('A' for Active; 'I' for Inactive)
REMARK    1  A    between atoms: C_2  and  O_3
REMARK    2  A    between atoms: C_2  and  C_20
REMARK    3  A    between atoms: O_3  and  C_4
REMARK    4  A    between atoms: C_4  and  C_5
REMARK    5  A    between atoms: C_8  and  C_9
REMARK    6  A    between atoms: C_9  and  O_10
REMARK    7  A    between atoms: O_10  and  C_11
REMARK    8  A    between atoms: C_11  and  C_12
REMARK                            x       y       z     vdW  Elec       q    Type
REMARK                         _______ _______ _______ _____ _____    ______ ____
ROOT
ATOM      1  C   UNL     1      49.462   7.807  14.816  0.00  0.00    +0.000 C 
ENDROOT
BRANCH   1   2
ATOM      2  C   UNL     1      48.239   7.207  14.184  0.00  0.00    +0.000 A 
ATOM      3  C   UNL     1      47.322   7.998  13.499  0.00  0.00    +0.000 A 
ATOM      4  C   UNL     1      46.163   7.400  13.013  0.00  0.00    +0.000 A 
ATOM      5  C   UNL     1      45.949   6.034  13.212  0.00  0.00    +0.000 A 
ATOM      6  C   UNL     1      46.924   5.328  13.902  0.00  0.00    +0.000 A 
ATOM      7  N   UNL     1      48.048   5.882  14.394  0.00  0.00    +0.000 NA
BRANCH   5   8
ATOM      8  C   UNL     1      44.715   5.343  12.725  0.00  0.00    +0.000 C 
BRANCH   8   9
ATOM      9  O   UNL     1      45.120   4.409  11.732  0.00  0.00    +0.000 OA
BRANCH   9  10
ATOM     10  C   UNL     1      44.252   4.389  10.608  0.00  0.00    +0.000 C 
BRANCH  10  11
ATOM     11  C   UNL     1      44.997   3.734   9.496  0.00  0.00    +0.000 A 
ATOM     12  C   UNL     1      45.547   4.462   8.459  0.00  0.00    +0.000 A 
ATOM     13  N   UNL     1      46.205   3.915   7.418  0.00  0.00    +0.000 NA
ATOM     14  C   UNL     1      46.296   2.578   7.433  0.00  0.00    +0.000 A 
ATOM     15  N   UNL     1      45.813   1.763   8.384  0.00  0.00    +0.000 NA
ATOM     16  C   UNL     1      45.167   2.369   9.400  0.00  0.00    +0.000 A 
ENDBRANCH  10  11
ENDBRANCH   9  10
ENDBRANCH   8   9
ENDBRANCH   5   8
ENDBRANCH   1   2
BRANCH   1  17
ATOM     17  O   UNL     1      50.435   6.831  15.188  0.00  0.00    +0.000 OA
BRANCH  17  19
ATOM     18  O   UNL     1      51.580   7.810  16.923  0.00  0.00    +0.000 OA
ATOM     19  C   UNL     1      50.911   6.891  16.459  0.00  0.00    +0.000 C 
BRANCH  19  20
ATOM     20  C   UNL     1      50.723   5.624  17.148  0.00  0.00    +0.000 A 
ATOM     21  C   UNL     1      51.730   4.685  17.293  0.00  0.00    +0.000 A 
ATOM     22  S   UNL     1      51.100   3.122  17.627  0.00  0.00    +0.000 S 
ATOM     23  C   UNL     1      49.501   3.714  17.600  0.00  0.00    +0.000 A 
ATOM     24  N   UNL     1      48.419   2.897  17.512  0.00  0.00    +0.000 NA
ATOM     25  C   UNL     1      47.289   3.527  17.464  0.00  0.00    +0.000 A 
ATOM     26  N   UNL     1      47.134   4.886  17.612  0.00  0.00    +0.000 N 
ATOM     27  C   UNL     1      48.197   5.746  17.758  0.00  0.00    +0.000 A 
ATOM     28  O   UNL     1      48.042   6.937  18.011  0.00  0.00    +0.000 OA
ATOM     29  C   UNL     1      49.475   5.092  17.598  0.00  0.00    +0.000 A 
ATOM     30  H   UNL     1      46.218   5.297  17.681  0.00  0.00    +0.000 HD
ENDBRANCH  19  20
ENDBRANCH  17  19
ENDBRANCH   1  17
TORSDOF 8
ENDMDL
MODEL 7
REMARK VINA RESULT:    -6.634      3.060      4.476
REMARK INTER + INTRA:         -10.701
REMARK INTER:                  -9.182
REMARK INTRA:                  -1.519
REMARK UNBOUND:                -0.965
REMARK  Name = 
REMARK  8 active torsions:
REMARK  status: ('A' for Active; 'I' for Inactive)
REMARK    1  A    between atoms: C_2  and  O_3
REMARK    2  A    between atoms: C_2  and  C_20
REMARK    3  A    between atoms: O_3  and  C_4
REMARK    4  A    between atoms: C_4  and  C_5
REMARK    5  A    between atoms: C_8  and  C_9
REMARK    6  A    between atoms: C_9  and  O_10
REMARK    7  A    between atoms: O_10  and  C_11
REMARK    8  A    between atoms: C_11  and  C_12
REMARK                            x       y       z     vdW  Elec       q    Type
REMARK                         _______ _______ _______ _____ _____    ______ ____
ROOT
ATOM      1  C   UNL     1      50.915   7.301  16.337  0.00  0.00    +0.000 C 
ENDROOT
BRANCH   1   2
ATOM      2  C   UNL     1      50.071   7.327  15.095  0.00  0.00    +0.000 A 
ATOM      3  C   UNL     1      50.431   8.103  13.998  0.00  0.00    +0.000 A 
ATOM      4  C   UNL     1      49.564   8.158  12.910  0.00  0.00    +0.000 A 
ATOM      5  C   UNL     1      48.369   7.434  12.937  0.00  0.00    +0.000 A 
ATOM      6  C   UNL     1      48.100   6.685  14.074  0.00  0.00    +0.000 A 
ATOM      7  N   UNL     1      48.914   6.623  15.144  0.00  0.00    +0.000 NA
BRANCH   5   8
ATOM      8  C   UNL     1      47.394   7.468  11.804  0.00  0.00    +0.000 C 
BRANCH   8   9
ATOM      9  O   UNL     1      46.930   6.138  11.608  0.00  0.00    +0.000 OA
BRANCH   9  10
ATOM     10  C   UNL     1      45.761   6.075  10.804  0.00  0.00    +0.000 C 
BRANCH  10  11
ATOM     11  C   UNL     1      44.947   4.934  11.310  0.00  0.00    +0.000 A 
ATOM     12  C   UNL     1      45.219   4.323  12.518  0.00  0.00    +0.000 A 
ATOM     13  N   UNL     1      44.530   3.273  13.005  0.00  0.00    +0.000 NA
ATOM     14  C   UNL     1      43.535   2.825  12.226  0.00  0.00    +0.000 A 
ATOM     15  N   UNL     1      43.168   3.336  11.041  0.00  0.00    +0.000 NA
ATOM     16  C   UNL     1      43.893   4.387  10.608  0.00  0.00    +0.000 A 
ENDBRANCH  10  11
ENDBRANCH   9  10
ENDBRANCH   8   9
ENDBRANCH   5   8
ENDBRANCH   1   2
BRANCH   1  17
ATOM     17  O   UNL     1      51.655   6.090  16.485  0.00  0.00    +0.000 OA
BRANCH  17  19
ATOM     18  O   UNL     1      52.393   5.869  18.649  0.00  0.00    +0.000 OA
ATOM     19  C   UNL     1      51.670   5.524  17.720  0.00  0.00    +0.000 C 
BRANCH  19  20
ATOM     20  C   UNL     1      50.878   4.305  17.745  0.00  0.00    +0.000 A 
ATOM     21  C   UNL     1      51.417   3.048  17.529  0.00  0.00    +0.000 A 
ATOM     22  S   UNL     1      50.215   1.909  17.071  0.00  0.00    +0.000 S 
ATOM     23  C   UNL     1      48.990   3.090  17.190  0.00  0.00    +0.000 A 
ATOM     24  N   UNL     1      47.753   2.917  16.657  0.00  0.00    +0.000 NA
ATOM     25  C   UNL     1      46.969   3.936  16.810  0.00  0.00    +0.000 A 
ATOM     26  N   UNL     1      47.268   5.061  17.543  0.00  0.00    +0.000 N 
ATOM     27  C   UNL     1      48.490   5.256  18.145  0.00  0.00    +0.000 A 
ATOM     28  O   UNL     1      48.703   6.204  18.895  0.00  0.00    +0.000 OA
ATOM     29  C   UNL     1      49.452   4.233  17.807  0.00  0.00    +0.000 A 
ATOM     30  H   UNL     1      46.571   5.765  17.718  0.00  0.00    +0.000 HD
ENDBRANCH  19  20
ENDBRANCH  17  19
ENDBRANCH   1  17
TORSDOF 8
ENDMDL
MODEL 8
REMARK VINA RESULT:    -6.506      2.847      3.911
REMARK INTER + INTRA:         -10.513
REMARK INTER:                  -9.097
REMARK INTRA:                  -1.416
REMARK UNBOUND:                -0.965
REMARK  Name = 
REMARK  8 active torsions:
REMARK  status: ('A' for Active; 'I' for Inactive)
REMARK    1  A    between atoms: C_2  and  O_3
REMARK    2  A    between atoms: C_2  and  C_20
REMARK    3  A    between atoms: O_3  and  C_4
REMARK    4  A    between atoms: C_4  and  C_5
REMARK    5  A    between atoms: C_8  and  C_9
REMARK    6  A    between atoms: C_9  and  O_10
REMARK    7  A    between atoms: O_10  and  C_11
REMARK    8  A    between atoms: C_11  and  C_12
REMARK                            x       y       z     vdW  Elec       q    Type
REMARK                         _______ _______ _______ _____ _____    ______ ____
ROOT
ATOM      1  C   UNL     1      48.878   7.992  12.048  0.00  0.00    +0.000 C 
ENDROOT
BRANCH   1   2
ATOM      2  C   UNL     1      47.647   7.174  12.315  0.00  0.00    +0.000 A 
ATOM      3  C   UNL     1      47.727   5.946  12.964  0.00  0.00    +0.000 A 
ATOM      4  C   UNL     1      46.566   5.191  13.103  0.00  0.00    +0.000 A 
ATOM      5  C   UNL     1      45.356   5.679  12.602  0.00  0.00    +0.000 A 
ATOM      6  C   UNL     1      45.376   6.917  11.975  0.00  0.00    +0.000 A 
ATOM      7  N   UNL     1      46.485   7.662  11.816  0.00  0.00    +0.000 NA
BRANCH   5   8
ATOM      8  C   UNL     1      44.081   4.905  12.710  0.00  0.00    +0.000 C 
BRANCH   8   9
ATOM      9  O   UNL     1      43.665   4.592  11.387  0.00  0.00    +0.000 OA
BRANCH   9  10
ATOM     10  C   UNL     1      43.952   3.249  11.023  0.00  0.00    +0.000 C 
BRANCH  10  11
ATOM     11  C   UNL     1      44.754   3.300   9.768  0.00  0.00    +0.000 A 
ATOM     12  C   UNL     1      45.232   2.156   9.161  0.00  0.00    +0.000 A 
ATOM     13  N   UNL     1      45.983   2.152   8.043  0.00  0.00    +0.000 NA
ATOM     14  C   UNL     1      46.263   3.360   7.533  0.00  0.00    +0.000 A 
ATOM     15  N   UNL     1      45.852   4.539   8.022  0.00  0.00    +0.000 NA
ATOM     16  C   UNL     1      45.102   4.478   9.141  0.00  0.00    +0.000 A 
ENDBRANCH  10  11
ENDBRANCH   9  10
ENDBRANCH   8   9
ENDBRANCH   5   8
ENDBRANCH   1   2
BRANCH   1  17
ATOM     17  O   UNL     1      50.013   7.552  12.792  0.00  0.00    +0.000 OA
BRANCH  17  19
ATOM     18  O   UNL     1      50.950   9.605  13.223  0.00  0.00    +0.000 OA
ATOM     19  C   UNL     1      50.629   8.474  13.577  0.00  0.00    +0.000 C 
BRANCH  19  20
ATOM     20  C   UNL     1      51.071   7.883  14.829  0.00  0.00    +0.000 A 
ATOM     21  C   UNL     1      52.404   7.660  15.133  0.00  0.00    +0.000 A 
ATOM     22  S   UNL     1      52.587   6.484  16.371  0.00  0.00    +0.000 S 
ATOM     23  C   UNL     1      50.897   6.303  16.508  0.00  0.00    +0.000 A 
ATOM     24  N   UNL     1      50.323   5.256  17.156  0.00  0.00    +0.000 NA
ATOM     25  C   UNL     1      49.029   5.264  17.123  0.00  0.00    +0.000 A 
ATOM     26  N   UNL     1      48.258   6.278  16.604  0.00  0.00    +0.000 N 
ATOM     27  C   UNL     1      48.796   7.383  15.987  0.00  0.00    +0.000 A 
ATOM     28  O   UNL     1      48.105   8.336  15.638  0.00  0.00    +0.000 OA
ATOM     29  C   UNL     1      50.227   7.292  15.820  0.00  0.00    +0.000 A 
ATOM     30  H   UNL     1      47.257   6.275  16.715  0.00  0.00    +0.000 HD
ENDBRANCH  19  20
ENDBRANCH  17  19
ENDBRANCH   1  17
TORSDOF 8
ENDMDL
MODEL 9
REMARK VINA RESULT:    -6.383      3.225      8.451
REMARK INTER + INTRA:         -10.333
REMARK INTER:                  -8.776
REMARK INTRA:                  -1.557
REMARK UNBOUND:                -0.965
REMARK  Name = 
REMARK  8 active torsions:
REMARK  status: ('A' for Active; 'I' for Inactive)
REMARK    1  A    between atoms: C_2  and  O_3
REMARK    2  A    between atoms: C_2  and  C_20
REMARK    3  A    between atoms: O_3  and  C_4
REMARK    4  A    between atoms: C_4  and  C_5
REMARK    5  A    between atoms: C_8  and  C_9
REMARK    6  A    between atoms: C_9  and  O_10
REMARK    7  A    between atoms: O_10  and  C_11
REMARK    8  A    between atoms: C_11  and  C_12
REMARK                            x       y       z     vdW  Elec       q    Type
REMARK                         _______ _______ _______ _____ _____    ______ ____
ROOT
ATOM      1  C   UNL     1      48.226   8.840  12.326  0.00  0.00    +0.000 C 
ENDROOT
BRANCH   1   2
ATOM      2  C   UNL     1      48.733   8.614  13.722  0.00  0.00    +0.000 A 
ATOM      3  C   UNL     1      48.367   9.458  14.765  0.00  0.00    +0.000 A 
ATOM      4  C   UNL     1      48.939   9.253  16.018  0.00  0.00    +0.000 A 
ATOM      5  C   UNL     1      49.851   8.211  16.202  0.00  0.00    +0.000 A 
ATOM      6  C   UNL     1      50.149   7.419  15.103  0.00  0.00    +0.000 A 
ATOM      7  N   UNL     1      49.621   7.602  13.878  0.00  0.00    +0.000 NA
BRANCH   5   8
ATOM      8  C   UNL     1      50.508   7.954  17.521  0.00  0.00    +0.000 C 
BRANCH   8   9
ATOM      9  O   UNL     1      50.359   6.568  17.802  0.00  0.00    +0.000 OA
BRANCH   9  10
ATOM     10  C   UNL     1      49.124   6.263  18.434  0.00  0.00    +0.000 C 
BRANCH  10  11
ATOM     11  C   UNL     1      48.646   4.976  17.855  0.00  0.00    +0.000 A 
ATOM     12  C   UNL     1      49.523   4.015  17.392  0.00  0.00    +0.000 A 
ATOM     13  N   UNL     1      49.140   2.848  16.837  0.00  0.00    +0.000 NA
ATOM     14  C   UNL     1      47.816   2.662  16.742  0.00  0.00    +0.000 A 
ATOM     15  N   UNL     1      46.867   3.512  17.161  0.00  0.00    +0.000 NA
ATOM     16  C   UNL     1      47.311   4.661  17.710  0.00  0.00    +0.000 A 
ENDBRANCH  10  11
ENDBRANCH   9  10
ENDBRANCH   8   9
ENDBRANCH   5   8
ENDBRANCH   1   2
BRANCH   1  17
ATOM     17  O   UNL     1      47.372   7.794  11.866  0.00  0.00    +0.000 OA
BRANCH  17  19
ATOM     18  O   UNL     1      45.493   8.593  12.919  0.00  0.00    +0.000 OA
ATOM     19  C   UNL     1      46.169   7.666  12.483  0.00  0.00    +0.000 C 
BRANCH  19  20
ATOM     20  C   UNL     1      45.876   6.271  12.771  0.00  0.00    +0.000 A 
ATOM     21  C   UNL     1      46.628   5.504  13.645  0.00  0.00    +0.000 A 
ATOM     22  S   UNL     1      46.411   3.823  13.365  0.00  0.00    +0.000 S 
ATOM     23  C   UNL     1      45.302   4.132  12.107  0.00  0.00    +0.000 A 
ATOM     24  N   UNL     1      44.928   3.181  11.211  0.00  0.00    +0.000 NA
ATOM     25  C   UNL     1      44.111   3.609  10.303  0.00  0.00    +0.000 A 
ATOM     26  N   UNL     1      43.544   4.862  10.277  0.00  0.00    +0.000 N 
ATOM     27  C   UNL     1      43.852   5.839  11.195  0.00  0.00    +0.000 A 
ATOM     28  O   UNL     1      43.252   6.910  11.233  0.00  0.00    +0.000 OA
ATOM     29  C   UNL     1      44.922   5.456  12.085  0.00  0.00    +0.000 A 
ATOM     30  H   UNL     1      42.827   5.092   9.608  0.00  0.00    +0.000 HD
ENDBRANCH  19  20
ENDBRANCH  17  19
ENDBRANCH   1  17
TORSDOF 8
ENDMDL
