MODEL 1
REMARK VINA RESULT:    -6.963      0.000      0.000
REMARK INTER + INTRA:         -11.501
REMARK INTER:                 -10.423
REMARK INTRA:                  -1.078
REMARK UNBOUND:                -1.078
REMARK  Name = 
REMARK  12 active torsions:
REMARK  status: ('A' for Active; 'I' for Inactive)
REMARK    1  A    between atoms: C_1  and  C_2
REMARK    2  A    between atoms: C_3  and  C_4
REMARK    3  A    between atoms: C_7  and  C_8
REMARK    4  A    between atoms: C_8  and  C_9
REMARK    5  A    between atoms: C_8  and  C_10
REMARK    6  A    between atoms: C_10  and  O_11
REMARK    7  A    between atoms: O_11  and  C_12
REMARK    8  A    between atoms: C_16  and  C_17
REMARK    9  A    between atoms: C_17  and  N_18
REMARK   10  A    between atoms: N_18  and  C_19
REMARK   11  A    between atoms: C_19  and  C_20
REMARK   12  A    between atoms: C_22  and  N_23
REMARK                            x       y       z     vdW  Elec       q    Type
REMARK                         _______ _______ _______ _____ _____    ______ ____
ROOT
ATOM      1  C   UNL     1      44.000   4.321  12.259  0.00  0.00    +0.000 C 
ATOM      2  C   UNL     1      42.856   5.094  12.934  0.00  0.00    +0.000 C 
ENDROOT
BRANCH   1   6
ATOM      3  C   UNL     1      47.662   6.571  12.498  0.00  0.00    +0.000 A 
ATOM      4  C   UNL     1      46.570   6.967  11.748  0.00  0.00    +0.000 A 
ATOM      5  N   UNL     1      45.406   6.270  11.652  0.00  0.00    +0.000 NA
ATOM      6  C   UNL     1      45.322   5.075  12.326  0.00  0.00    +0.000 A 
ATOM      7  C   UNL     1      46.383   4.593  13.110  0.00  0.00    +0.000 A 
ATOM      8  C   UNL     1      47.551   5.357  13.181  0.00  0.00    +0.000 A 
BRANCH   3  11
ATOM      9  C   UNL     1      51.288   8.800  12.773  0.00  0.00    +0.000 C 
ATOM     10  C   UNL     1      49.990   8.015  12.670  0.00  0.00    +0.000 C 
ATOM     11  C   UNL     1      48.876   7.343  12.581  0.00  0.00    +0.000 C 
ENDBRANCH   3  11
BRANCH   7  12
ATOM     12  N   UNL     1      46.413   3.287  13.632  0.00  0.00    +0.000 N 
ATOM     13  H   UNL     1      46.924   3.116  14.485  0.00  0.00    +0.000 HD
ATOM     14  H   UNL     1      46.467   2.530  12.961  0.00  0.00    +0.000 HD
ENDBRANCH   7  12
ENDBRANCH   1   6
BRANCH   1  15
ATOM     15  C   UNL     1      43.592   3.962  10.832  0.00  0.00    +0.000 C 
BRANCH  15  16
ATOM     16  O   UNL     1      44.337   2.807  10.410  0.00  0.00    +0.000 OA
BRANCH  16  17
ATOM     17  C   UNL     1      45.115   3.000   9.303  0.00  0.00    +0.000 A 
ATOM     18  C   UNL     1      45.362   4.260   8.740  0.00  0.00    +0.000 A 
ATOM     19  C   UNL     1      46.183   4.377   7.638  0.00  0.00    +0.000 A 
ATOM     20  C   UNL     1      46.769   3.238   7.079  0.00  0.00    +0.000 A 
ATOM     21  C   UNL     1      46.543   1.969   7.629  0.00  0.00    +0.000 A 
ATOM     22  C   UNL     1      45.705   1.861   8.746  0.00  0.00    +0.000 A 
BRANCH  21  23
ATOM     23  C   UNL     1      47.206   0.742   7.044  0.00  0.00    +0.000 C 
BRANCH  23  24
ATOM     24  N   UNL     1      47.839   1.045   5.764  0.00  0.00    +0.000 NA
ATOM     25  H   UNL     1      48.815   0.756   5.800  0.00  0.00    +0.000 HD
BRANCH  24  26
ATOM     26  C   UNL     1      47.175   0.366   4.655  0.00  0.00    +0.000 C 
ATOM     27  C   UNL     1      46.447   1.406   3.815  0.00  0.00    +0.000 C 
ENDBRANCH  24  26
ENDBRANCH  23  24
ENDBRANCH  21  23
ENDBRANCH  16  17
ENDBRANCH  15  16
ENDBRANCH   1  15
TORSDOF 9
ENDMDL
MODEL 2
REMARK VINA RESULT:    -6.549      1.809      2.394
REMARK INTER + INTRA:         -10.882
REMARK INTER:                 -10.134
REMARK INTRA:                  -0.748
REMARK UNBOUND:                -1.078
REMARK  Name = 
REMARK  12 active torsions:
REMARK  status: ('A' for Active; 'I' for Inactive)
REMARK    1  A    between atoms: C_1  and  C_2
REMARK    2  A    between atoms: C_3  and  C_4
REMARK    3  A    between atoms: C_7  and  C_8
REMARK    4  A    between atoms: C_8  and  C_9
REMARK    5  A    between atoms: C_8  and  C_10
REMARK    6  A    between atoms: C_10  and  O_11
REMARK    7  A    between atoms: O_11  and  C_12
REMARK    8  A    between atoms: C_16  and  C_17
REMARK    9  A    between atoms: C_17  and  N_18
REMARK   10  A    between atoms: N_18  and  C_19
REMARK   11  A    between atoms: C_19  and  C_20
REMARK   12  A    between atoms: C_22  and  N_23
REMARK                            x       y       z     vdW  Elec       q    Type
REMARK                         _______ _______ _______ _____ _____    ______ ____
ROOT
ATOM      1  C   UNL     1      44.746   4.928  10.860  0.00  0.00    +0.000 C 
ATOM      2  C   UNL     1      43.495   5.814  10.973  0.00  0.00    +0.000 C 
ENDROOT
BRANCH   1   6
ATOM      3  C   UNL     1      47.354   5.599  14.218  0.00  0.00    +0.000 A 
ATOM      4  C   UNL     1      47.096   6.551  13.249  0.00  0.00    +0.000 A 
ATOM      5  N   UNL     1      46.282   6.360  12.176  0.00  0.00    +0.000 NA
ATOM      6  C   UNL     1      45.697   5.125  12.033  0.00  0.00    +0.000 A 
ATOM      7  C   UNL     1      45.904   4.096  12.967  0.00  0.00    +0.000 A 
ATOM      8  C   UNL     1      46.743   4.353  14.055  0.00  0.00    +0.000 A 
BRANCH   3  11
ATOM      9  C   UNL     1      49.940   6.374  17.520  0.00  0.00    +0.000 C 
ATOM     10  C   UNL     1      49.013   6.089  16.349  0.00  0.00    +0.000 C 
ATOM     11  C   UNL     1      48.217   5.843  15.346  0.00  0.00    +0.000 C 
ENDBRANCH   3  11
BRANCH   7  12
ATOM     12  N   UNL     1      45.502   2.767  12.740  0.00  0.00    +0.000 N 
ATOM     13  H   UNL     1      44.867   2.575  11.980  0.00  0.00    +0.000 HD
ATOM     14  H   UNL     1      45.347   2.192  13.560  0.00  0.00    +0.000 HD
ENDBRANCH   7  12
ENDBRANCH   1   6
BRANCH   1  15
ATOM     15  C   UNL     1      45.412   5.168   9.507  0.00  0.00    +0.000 C 
BRANCH  15  16
ATOM     16  O   UNL     1      44.754   4.362   8.514  0.00  0.00    +0.000 OA
BRANCH  16  17
ATOM     17  C   UNL     1      45.461   3.267   8.105  0.00  0.00    +0.000 A 
ATOM     18  C   UNL     1      45.460   2.044   8.789  0.00  0.00    +0.000 A 
ATOM     19  C   UNL     1      46.178   0.973   8.296  0.00  0.00    +0.000 A 
ATOM     20  C   UNL     1      46.910   1.107   7.114  0.00  0.00    +0.000 A 
ATOM     21  C   UNL     1      46.919   2.318   6.408  0.00  0.00    +0.000 A 
ATOM     22  C   UNL     1      46.191   3.399   6.919  0.00  0.00    +0.000 A 
BRANCH  21  23
ATOM     23  C   UNL     1      47.684   2.451   5.109  0.00  0.00    +0.000 C 
BRANCH  23  24
ATOM     24  N   UNL     1      47.727   1.181   4.391  0.00  0.00    +0.000 NA
ATOM     25  H   UNL     1      47.812   0.422   5.064  0.00  0.00    +0.000 HD
BRANCH  24  26
ATOM     26  C   UNL     1      46.531   0.974   3.579  0.00  0.00    +0.000 C 
ATOM     27  C   UNL     1      46.546  -0.452   3.047  0.00  0.00    +0.000 C 
ENDBRANCH  24  26
ENDBRANCH  23  24
ENDBRANCH  21  23
ENDBRANCH  16  17
ENDBRANCH  15  16
ENDBRANCH   1  15
TORSDOF 9
ENDMDL
MODEL 3
REMARK VINA RESULT:    -6.497      2.316      7.389
REMARK INTER + INTRA:         -10.805
REMARK INTER:                  -9.634
REMARK INTRA:                  -1.171
REMARK UNBOUND:                -1.078
REMARK  Name = 
REMARK  12 active torsions:
REMARK  status: ('A' for Active; 'I' for Inactive)
REMARK    1  A    between atoms: C_1  and  C_2
REMARK    2  A    between atoms: C_3  and  C_4
REMARK    3  A    between atoms: C_7  and  C_8
REMARK    4  A    between atoms: C_8  and  C_9
REMARK    5  A    between atoms: C_8  and  C_10
REMARK    6  A    between atoms: C_10  and  O_11
REMARK    7  A    between atoms: O_11  and  C_12
REMARK    8  A    between atoms: C_16  and  C_17
REMARK    9  A    between atoms: C_17  and  N_18
REMARK   10  A    between atoms: N_18  and  C_19
REMARK   11  A    between atoms: C_19  and  C_20
REMARK   12  A    between atoms: C_22  and  N_23
REMARK                            x       y       z     vdW  Elec       q    Type
REMARK                         _______ _______ _______ _____ _____    ______ ____
ROOT
ATOM      1  C   UNL     1      44.394   4.166  11.526  0.00  0.00    +0.000 C 
ATOM      2  C   UNL     1      43.124   3.376  11.884  0.00  0.00    +0.000 C 
ENDROOT
BRANCH   1   6
ATOM      3  C   UNL     1      45.983   2.807   7.763  0.00  0.00    +0.000 A 
ATOM      4  C   UNL     1      45.521   1.956   8.749  0.00  0.00    +0.000 A 
ATOM      5  N   UNL     1      45.021   2.361   9.948  0.00  0.00    +0.000 NA
ATOM      6  C   UNL     1      45.000   3.711  10.205  0.00  0.00    +0.000 A 
ATOM      7  C   UNL     1      45.452   4.650   9.264  0.00  0.00    +0.000 A 
ATOM      8  C   UNL     1      45.946   4.176   8.045  0.00  0.00    +0.000 A 
BRANCH   3  11
ATOM      9  C   UNL     1      47.460   1.371   4.030  0.00  0.00    +0.000 C 
ATOM     10  C   UNL     1      46.942   1.891   5.361  0.00  0.00    +0.000 C 
ATOM     11  C   UNL     1      46.498   2.339   6.502  0.00  0.00    +0.000 C 
ENDBRANCH   3  11
BRANCH   7  12
ATOM     12  N   UNL     1      45.646   6.008   9.573  0.00  0.00    +0.000 N 
ATOM     13  H   UNL     1      45.797   6.661   8.819  0.00  0.00    +0.000 HD
ATOM     14  H   UNL     1      46.181   6.213  10.409  0.00  0.00    +0.000 HD
ENDBRANCH   7  12
ENDBRANCH   1   6
BRANCH   1  15
ATOM     15  C   UNL     1      45.378   4.091  12.691  0.00  0.00    +0.000 C 
BRANCH  15  16
ATOM     16  O   UNL     1      45.299   5.311  13.448  0.00  0.00    +0.000 OA
BRANCH  16  17
ATOM     17  C   UNL     1      46.176   6.285  13.059  0.00  0.00    +0.000 A 
ATOM     18  C   UNL     1      47.554   6.073  12.913  0.00  0.00    +0.000 A 
ATOM     19  C   UNL     1      48.371   7.100  12.488  0.00  0.00    +0.000 A 
ATOM     20  C   UNL     1      47.827   8.355  12.204  0.00  0.00    +0.000 A 
ATOM     21  C   UNL     1      46.451   8.588  12.336  0.00  0.00    +0.000 A 
ATOM     22  C   UNL     1      45.631   7.540  12.771  0.00  0.00    +0.000 A 
BRANCH  21  23
ATOM     23  C   UNL     1      45.858   9.937  11.994  0.00  0.00    +0.000 C 
BRANCH  23  24
ATOM     24  N   UNL     1      44.508  10.072  12.535  0.00  0.00    +0.000 NA
ATOM     25  H   UNL     1      44.551  10.601  13.404  0.00  0.00    +0.000 HD
BRANCH  24  26
ATOM     26  C   UNL     1      43.613  10.748  11.601  0.00  0.00    +0.000 C 
ATOM     27  C   UNL     1      43.219   9.764  10.507  0.00  0.00    +0.000 C 
ENDBRANCH  24  26
ENDBRANCH  23  24
ENDBRANCH  21  23
ENDBRANCH  16  17
ENDBRANCH  15  16
ENDBRANCH   1  15
TORSDOF 9
ENDMDL
MODEL 4
REMARK VINA RESULT:    -6.371      2.783      7.967
REMARK INTER + INTRA:         -10.615
REMARK INTER:                 -10.329
REMARK INTRA:                  -0.286
REMARK UNBOUND:                -1.078
REMARK  Name = 
REMARK  12 active torsions:
REMARK  status: ('A' for Active; 'I' for Inactive)
REMARK    1  A    between atoms: C_1  and  C_2
REMARK    2  A    between atoms: C_3  and  C_4
REMARK    3  A    between atoms: C_7  and  C_8
REMARK    4  A    between atoms: C_8  and  C_9
REMARK    5  A    between atoms: C_8  and  C_10
REMARK    6  A    between atoms: C_10  and  O_11
REMARK    7  A    between atoms: O_11  and  C_12
REMARK    8  A    between atoms: C_16  and  C_17
REMARK    9  A    between atoms: C_17  and  N_18
REMARK   10  A    between atoms: N_18  and  C_19
REMARK   11  A    between atoms: C_19  and  C_20
REMARK   12  A    between atoms: C_22  and  N_23
REMARK                            x       y       z     vdW  Elec       q    Type
REMARK                         _______ _______ _______ _____ _____    ______ ____
ROOT
ATOM      1  C   UNL     1      44.106   5.132  12.073  0.00  0.00    +0.000 C 
ATOM      2  C   UNL     1      42.589   5.381  12.047  0.00  0.00    +0.000 C 
ENDROOT
BRANCH   1   6
ATOM      3  C   UNL     1      45.685   3.561   8.389  0.00  0.00    +0.000 A 
ATOM      4  C   UNL     1      45.800   4.886   8.766  0.00  0.00    +0.000 A 
ATOM      5  N   UNL     1      45.305   5.407   9.921  0.00  0.00    +0.000 NA
ATOM      6  C   UNL     1      44.617   4.560  10.757  0.00  0.00    +0.000 A 
ATOM      7  C   UNL     1      44.447   3.199  10.454  0.00  0.00    +0.000 A 
ATOM      8  C   UNL     1      44.987   2.718   9.258  0.00  0.00    +0.000 A 
BRANCH   3  11
ATOM      9  C   UNL     1      47.362   2.024   4.782  0.00  0.00    +0.000 C 
ATOM     10  C   UNL     1      46.754   2.574   6.062  0.00  0.00    +0.000 C 
ATOM     11  C   UNL     1      46.231   3.047   7.159  0.00  0.00    +0.000 C 
ENDBRANCH   3  11
BRANCH   7  12
ATOM     12  N   UNL     1      43.573   2.361  11.171  0.00  0.00    +0.000 N 
ATOM     13  H   UNL     1      42.708   2.746  11.519  0.00  0.00    +0.000 HD
ATOM     14  H   UNL     1      44.000   1.681  11.789  0.00  0.00    +0.000 HD
ENDBRANCH   7  12
ENDBRANCH   1   6
BRANCH   1  15
ATOM     15  C   UNL     1      44.452   4.258  13.276  0.00  0.00    +0.000 C 
BRANCH  15  16
ATOM     16  O   UNL     1      45.828   3.852  13.178  0.00  0.00    +0.000 OA
BRANCH  16  17
ATOM     17  C   UNL     1      46.707   4.634  13.874  0.00  0.00    +0.000 A 
ATOM     18  C   UNL     1      47.373   5.735  13.317  0.00  0.00    +0.000 A 
ATOM     19  C   UNL     1      48.224   6.494  14.093  0.00  0.00    +0.000 A 
ATOM     20  C   UNL     1      48.426   6.166  15.436  0.00  0.00    +0.000 A 
ATOM     21  C   UNL     1      47.764   5.075  16.016  0.00  0.00    +0.000 A 
ATOM     22  C   UNL     1      46.906   4.309  15.219  0.00  0.00    +0.000 A 
BRANCH  21  23
ATOM     23  C   UNL     1      47.956   4.742  17.480  0.00  0.00    +0.000 C 
BRANCH  23  24
ATOM     24  N   UNL     1      46.797   5.149  18.269  0.00  0.00    +0.000 NA
ATOM     25  H   UNL     1      46.283   4.318  18.555  0.00  0.00    +0.000 HD
BRANCH  24  26
ATOM     26  C   UNL     1      47.186   5.909  19.454  0.00  0.00    +0.000 C 
ATOM     27  C   UNL     1      47.516   7.333  19.031  0.00  0.00    +0.000 C 
ENDBRANCH  24  26
ENDBRANCH  23  24
ENDBRANCH  21  23
ENDBRANCH  16  17
ENDBRANCH  15  16
ENDBRANCH   1  15
TORSDOF 9
ENDMDL
MODEL 5
REMARK VINA RESULT:    -6.194      3.218      7.791
REMARK INTER + INTRA:         -10.351
REMARK INTER:                  -9.536
REMARK INTRA:                  -0.815
REMARK UNBOUND:                -1.078
REMARK  Name = 
REMARK  12 active torsions:
REMARK  status: ('A' for Active; 'I' for Inactive)
REMARK    1  A    between atoms: C_1  and  C_2
REMARK    2  A    between atoms: C_3  and  C_4
REMARK    3  A    between atoms: C_7  and  C_8
REMARK    4  A    between atoms: C_8  and  C_9
REMARK    5  A    between atoms: C_8  and  C_10
REMARK    6  A    between atoms: C_10  and  O_11
REMARK    7  A    between atoms: O_11  and  C_12
REMARK    8  A    between atoms: C_16  and  C_17
REMARK    9  A    between atoms: C_17  and  N_18
REMARK   10  A    between atoms: N_18  and  C_19
REMARK   11  A    between atoms: C_19  and  C_20
REMARK   12  A    between atoms: C_22  and  N_23
REMARK                            x       y       z     vdW  Elec       q    Type
REMARK                         _______ _______ _______ _____ _____    ______ ____
ROOT
ATOM      1  C   UNL     1      44.402   5.100  12.178  0.00  0.00    +0.000 C 
ATOM      2  C   UNL     1      45.331   4.624  13.307  0.00  0.00    +0.000 C 
ENDROOT
BRANCH   1   6
ATOM      3  C   UNL     1      45.694   3.548   8.377  0.00  0.00    +0.000 A 
ATOM      4  C   UNL     1      45.909   4.851   8.782  0.00  0.00    +0.000 A 
ATOM      5  N   UNL     1      45.505   5.367   9.974  0.00  0.00    +0.000 NA
ATOM      6  C   UNL     1      44.810   4.538  10.823  0.00  0.00    +0.000 A 
ATOM      7  C   UNL     1      44.543   3.199  10.493  0.00  0.00    +0.000 A 
ATOM      8  C   UNL     1      44.992   2.722   9.259  0.00  0.00    +0.000 A 
BRANCH   3  11
ATOM      9  C   UNL     1      47.018   2.100   4.590  0.00  0.00    +0.000 C 
ATOM     10  C   UNL     1      46.548   2.605   5.945  0.00  0.00    +0.000 C 
ATOM     11  C   UNL     1      46.146   3.038   7.107  0.00  0.00    +0.000 C 
ENDBRANCH   3  11
BRANCH   7  12
ATOM     12  N   UNL     1      43.658   2.393  11.233  0.00  0.00    +0.000 N 
ATOM     13  H   UNL     1      43.371   1.506  10.847  0.00  0.00    +0.000 HD
ATOM     14  H   UNL     1      42.930   2.873  11.749  0.00  0.00    +0.000 HD
ENDBRANCH   7  12
ENDBRANCH   1   6
BRANCH   1  15
ATOM     15  C   UNL     1      44.333   6.625  12.194  0.00  0.00    +0.000 C 
BRANCH  15  16
ATOM     16  O   UNL     1      45.516   7.139  12.828  0.00  0.00    +0.000 OA
BRANCH  16  17
ATOM     17  C   UNL     1      45.823   8.432  12.507  0.00  0.00    +0.000 A 
ATOM     18  C   UNL     1      47.130   8.939  12.502  0.00  0.00    +0.000 A 
ATOM     19  C   UNL     1      47.362  10.249  12.137  0.00  0.00    +0.000 A 
ATOM     20  C   UNL     1      46.295  11.074  11.773  0.00  0.00    +0.000 A 
ATOM     21  C   UNL     1      44.981  10.586  11.763  0.00  0.00    +0.000 A 
ATOM     22  C   UNL     1      44.755   9.256  12.139  0.00  0.00    +0.000 A 
BRANCH  21  23
ATOM     23  C   UNL     1      43.830  11.470  11.335  0.00  0.00    +0.000 C 
BRANCH  23  24
ATOM     24  N   UNL     1      42.560  10.971  11.855  0.00  0.00    +0.000 NA
ATOM     25  H   UNL     1      42.138  11.689  12.442  0.00  0.00    +0.000 HD
BRANCH  24  26
ATOM     26  C   UNL     1      41.635  10.617  10.784  0.00  0.00    +0.000 C 
ATOM     27  C   UNL     1      40.282  10.288  11.399  0.00  0.00    +0.000 C 
ENDBRANCH  24  26
ENDBRANCH  23  24
ENDBRANCH  21  23
ENDBRANCH  16  17
ENDBRANCH  15  16
ENDBRANCH   1  15
TORSDOF 9
ENDMDL
MODEL 6
REMARK VINA RESULT:    -5.979      2.031      7.011
REMARK INTER + INTRA:         -10.028
REMARK INTER:                  -8.849
REMARK INTRA:                  -1.180
REMARK UNBOUND:                -1.078
REMARK  Name = 
REMARK  12 active torsions:
REMARK  status: ('A' for Active; 'I' for Inactive)
REMARK    1  A    between atoms: C_1  and  C_2
REMARK    2  A    between atoms: C_3  and  C_4
REMARK    3  A    between atoms: C_7  and  C_8
REMARK    4  A    between atoms: C_8  and  C_9
REMARK    5  A    between atoms: C_8  and  C_10
REMARK    6  A    between atoms: C_10  and  O_11
REMARK    7  A    between atoms: O_11  and  C_12
REMARK    8  A    between atoms: C_16  and  C_17
REMARK    9  A    between atoms: C_17  and  N_18
REMARK   10  A    between atoms: N_18  and  C_19
REMARK   11  A    between atoms: C_19  and  C_20
REMARK   12  A    between atoms: C_22  and  N_23
REMARK                            x       y       z     vdW  Elec       q    Type
REMARK                         _______ _______ _______ _____ _____    ______ ____
ROOT
ATOM      1  C   UNL     1      44.539   4.225  11.491  0.00  0.00    +0.000 C 
ATOM      2  C   UNL     1      43.146   3.641  11.779  0.00  0.00    +0.000 C 
ENDROOT
BRANCH   1   6
ATOM      3  C   UNL     1      46.001   2.783   7.707  0.00  0.00    +0.000 A 
ATOM      4  C   UNL     1      45.514   1.957   8.703  0.00  0.00    +0.000 A 
ATOM      5  N   UNL     1      45.053   2.388   9.908  0.00  0.00    +0.000 NA
ATOM      6  C   UNL     1      45.101   3.738  10.162  0.00  0.00    +0.000 A 
ATOM      7  C   UNL     1      45.583   4.652   9.210  0.00  0.00    +0.000 A 
ATOM      8  C   UNL     1      46.034   4.152   7.986  0.00  0.00    +0.000 A 
BRANCH   3  11
ATOM      9  C   UNL     1      47.345   1.272   3.953  0.00  0.00    +0.000 C 
ATOM     10  C   UNL     1      46.875   1.818   5.292  0.00  0.00    +0.000 C 
ATOM     11  C   UNL     1      46.473   2.287   6.440  0.00  0.00    +0.000 C 
ENDBRANCH   3  11
BRANCH   7  12
ATOM     12  N   UNL     1      45.847   6.000   9.513  0.00  0.00    +0.000 N 
ATOM     13  H   UNL     1      46.518   6.502   8.951  0.00  0.00    +0.000 HD
ATOM     14  H   UNL     1      45.862   6.252  10.495  0.00  0.00    +0.000 HD
ENDBRANCH   7  12
ENDBRANCH   1   6
BRANCH   1  15
ATOM     15  C   UNL     1      45.461   3.932  12.671  0.00  0.00    +0.000 C 
BRANCH  15  16
ATOM     16  O   UNL     1      45.437   5.053  13.572  0.00  0.00    +0.000 OA
BRANCH  16  17
ATOM     17  C   UNL     1      46.033   6.186  13.092  0.00  0.00    +0.000 A 
ATOM     18  C   UNL     1      45.332   7.364  12.799  0.00  0.00    +0.000 A 
ATOM     19  C   UNL     1      46.009   8.478  12.346  0.00  0.00    +0.000 A 
ATOM     20  C   UNL     1      47.395   8.432  12.175  0.00  0.00    +0.000 A 
ATOM     21  C   UNL     1      48.117   7.267  12.469  0.00  0.00    +0.000 A 
ATOM     22  C   UNL     1      47.420   6.142  12.925  0.00  0.00    +0.000 A 
BRANCH  21  23
ATOM     23  C   UNL     1      49.622   7.231  12.318  0.00  0.00    +0.000 C 
BRANCH  23  24
ATOM     24  N   UNL     1      50.192   8.573  12.389  0.00  0.00    +0.000 NA
ATOM     25  H   UNL     1      50.772   8.643  13.223  0.00  0.00    +0.000 HD
BRANCH  24  26
ATOM     26  C   UNL     1      50.998   8.885  11.213  0.00  0.00    +0.000 C 
ATOM     27  C   UNL     1      51.529   7.584  10.628  0.00  0.00    +0.000 C 
ENDBRANCH  24  26
ENDBRANCH  23  24
ENDBRANCH  21  23
ENDBRANCH  16  17
ENDBRANCH  15  16
ENDBRANCH   1  15
TORSDOF 9
ENDMDL
MODEL 7
REMARK VINA RESULT:    -5.940      4.723      6.674
REMARK INTER + INTRA:          -9.970
REMARK INTER:                  -9.065
REMARK INTRA:                  -0.904
REMARK UNBOUND:                -1.078
REMARK  Name = 
REMARK  12 active torsions:
REMARK  status: ('A' for Active; 'I' for Inactive)
REMARK    1  A    between atoms: C_1  and  C_2
REMARK    2  A    between atoms: C_3  and  C_4
REMARK    3  A    between atoms: C_7  and  C_8
REMARK    4  A    between atoms: C_8  and  C_9
REMARK    5  A    between atoms: C_8  and  C_10
REMARK    6  A    between atoms: C_10  and  O_11
REMARK    7  A    between atoms: O_11  and  C_12
REMARK    8  A    between atoms: C_16  and  C_17
REMARK    9  A    between atoms: C_17  and  N_18
REMARK   10  A    between atoms: N_18  and  C_19
REMARK   11  A    between atoms: C_19  and  C_20
REMARK   12  A    between atoms: C_22  and  N_23
REMARK                            x       y       z     vdW  Elec       q    Type
REMARK                         _______ _______ _______ _____ _____    ______ ____
ROOT
ATOM      1  C   UNL     1      48.423   5.663  16.950  0.00  0.00    +0.000 C 
ATOM      2  C   UNL     1      48.768   6.861  17.849  0.00  0.00    +0.000 C 
ENDROOT
BRANCH   1   6
ATOM      3  C   UNL     1      51.282   2.496  17.520  0.00  0.00    +0.000 A 
ATOM      4  C   UNL     1      51.626   3.833  17.452  0.00  0.00    +0.000 A 
ATOM      5  N   UNL     1      50.743   4.850  17.267  0.00  0.00    +0.000 NA
ATOM      6  C   UNL     1      49.418   4.520  17.107  0.00  0.00    +0.000 A 
ATOM      7  C   UNL     1      48.976   3.188  17.157  0.00  0.00    +0.000 A 
ATOM      8  C   UNL     1      49.928   2.186  17.362  0.00  0.00    +0.000 A 
BRANCH   3  11
ATOM      9  C   UNL     1      54.185  -0.577  18.085  0.00  0.00    +0.000 C 
ATOM     10  C   UNL     1      53.143   0.513  17.891  0.00  0.00    +0.000 C 
ATOM     11  C   UNL     1      52.248   1.447  17.726  0.00  0.00    +0.000 C 
ENDBRANCH   3  11
BRANCH   7  12
ATOM     12  N   UNL     1      47.676   2.801  16.786  0.00  0.00    +0.000 N 
ATOM     13  H   UNL     1      47.418   2.838  15.812  0.00  0.00    +0.000 HD
ATOM     14  H   UNL     1      46.927   3.054  17.421  0.00  0.00    +0.000 HD
ENDBRANCH   7  12
ENDBRANCH   1   6
BRANCH   1  15
ATOM     15  C   UNL     1      48.288   6.140  15.506  0.00  0.00    +0.000 C 
BRANCH  15  16
ATOM     16  O   UNL     1      47.901   5.028  14.681  0.00  0.00    +0.000 OA
BRANCH  16  17
ATOM     17  C   UNL     1      47.226   5.366  13.542  0.00  0.00    +0.000 A 
ATOM     18  C   UNL     1      47.559   6.468  12.742  0.00  0.00    +0.000 A 
ATOM     19  C   UNL     1      46.847   6.728  11.590  0.00  0.00    +0.000 A 
ATOM     20  C   UNL     1      45.789   5.894  11.218  0.00  0.00    +0.000 A 
ATOM     21  C   UNL     1      45.443   4.782  11.998  0.00  0.00    +0.000 A 
ATOM     22  C   UNL     1      46.170   4.529  13.168  0.00  0.00    +0.000 A 
BRANCH  21  23
ATOM     23  C   UNL     1      44.320   3.860  11.576  0.00  0.00    +0.000 C 
BRANCH  23  24
ATOM     24  N   UNL     1      44.839   2.669  10.908  0.00  0.00    +0.000 NA
ATOM     25  H   UNL     1      44.458   1.842  11.363  0.00  0.00    +0.000 HD
BRANCH  24  26
ATOM     26  C   UNL     1      44.489   2.646   9.491  0.00  0.00    +0.000 C 
ATOM     27  C   UNL     1      45.557   1.863   8.740  0.00  0.00    +0.000 C 
ENDBRANCH  24  26
ENDBRANCH  23  24
ENDBRANCH  21  23
ENDBRANCH  16  17
ENDBRANCH  15  16
ENDBRANCH   1  15
TORSDOF 9
ENDMDL
MODEL 8
REMARK VINA RESULT:    -5.890      2.412      7.684
REMARK INTER + INTRA:          -9.895
REMARK INTER:                  -9.112
REMARK INTRA:                  -0.783
REMARK UNBOUND:                -1.078
REMARK  Name = 
REMARK  12 active torsions:
REMARK  status: ('A' for Active; 'I' for Inactive)
REMARK    1  A    between atoms: C_1  and  C_2
REMARK    2  A    between atoms: C_3  and  C_4
REMARK    3  A    between atoms: C_7  and  C_8
REMARK    4  A    between atoms: C_8  and  C_9
REMARK    5  A    between atoms: C_8  and  C_10
REMARK    6  A    between atoms: C_10  and  O_11
REMARK    7  A    between atoms: O_11  and  C_12
REMARK    8  A    between atoms: C_16  and  C_17
REMARK    9  A    between atoms: C_17  and  N_18
REMARK   10  A    between atoms: N_18  and  C_19
REMARK   11  A    between atoms: C_19  and  C_20
REMARK   12  A    between atoms: C_22  and  N_23
REMARK                            x       y       z     vdW  Elec       q    Type
REMARK                         _______ _______ _______ _____ _____    ______ ____
ROOT
ATOM      1  C   UNL     1      44.104   4.591  12.238  0.00  0.00    +0.000 C 
ATOM      2  C   UNL     1      43.257   3.466  12.854  0.00  0.00    +0.000 C 
ENDROOT
BRANCH   1   6
ATOM      3  C   UNL     1      45.710   3.370   8.436  0.00  0.00    +0.000 A 
ATOM      4  C   UNL     1      45.260   2.482   9.395  0.00  0.00    +0.000 A 
ATOM      5  N   UNL     1      44.755   2.843  10.606  0.00  0.00    +0.000 NA
ATOM      6  C   UNL     1      44.716   4.185  10.904  0.00  0.00    +0.000 A 
ATOM      7  C   UNL     1      45.156   5.158   9.992  0.00  0.00    +0.000 A 
ATOM      8  C   UNL     1      45.655   4.728   8.759  0.00  0.00    +0.000 A 
BRANCH   3  11
ATOM      9  C   UNL     1      47.205   2.155   4.631  0.00  0.00    +0.000 C 
ATOM     10  C   UNL     1      46.680   2.581   5.993  0.00  0.00    +0.000 C 
ATOM     11  C   UNL     1      46.232   2.946   7.161  0.00  0.00    +0.000 C 
ENDBRANCH   3  11
BRANCH   7  12
ATOM     12  N   UNL     1      45.331   6.509  10.343  0.00  0.00    +0.000 N 
ATOM     13  H   UNL     1      45.488   7.185   9.610  0.00  0.00    +0.000 HD
ATOM     14  H   UNL     1      45.851   6.695  11.193  0.00  0.00    +0.000 HD
ENDBRANCH   7  12
ENDBRANCH   1   6
BRANCH   1  15
ATOM     15  C   UNL     1      45.145   5.052  13.255  0.00  0.00    +0.000 C 
BRANCH  15  16
ATOM     16  O   UNL     1      46.456   4.900  12.683  0.00  0.00    +0.000 OA
BRANCH  16  17
ATOM     17  C   UNL     1      47.431   5.651  13.277  0.00  0.00    +0.000 A 
ATOM     18  C   UNL     1      48.241   6.559  12.580  0.00  0.00    +0.000 A 
ATOM     19  C   UNL     1      49.186   7.303  13.256  0.00  0.00    +0.000 A 
ATOM     20  C   UNL     1      49.339   7.152  14.636  0.00  0.00    +0.000 A 
ATOM     21  C   UNL     1      48.535   6.257  15.354  0.00  0.00    +0.000 A 
ATOM     22  C   UNL     1      47.582   5.503  14.659  0.00  0.00    +0.000 A 
BRANCH  21  23
ATOM     23  C   UNL     1      48.678   6.120  16.855  0.00  0.00    +0.000 C 
BRANCH  23  24
ATOM     24  N   UNL     1      47.554   5.384  17.426  0.00  0.00    +0.000 NA
ATOM     25  H   UNL     1      46.971   5.030  16.670  0.00  0.00    +0.000 HD
BRANCH  24  26
ATOM     26  C   UNL     1      48.000   4.268  18.255  0.00  0.00    +0.000 C 
ATOM     27  C   UNL     1      48.216   3.055  17.361  0.00  0.00    +0.000 C 
ENDBRANCH  24  26
ENDBRANCH  23  24
ENDBRANCH  21  23
ENDBRANCH  16  17
ENDBRANCH  15  16
ENDBRANCH   1  15
TORSDOF 9
ENDMDL
MODEL 9
REMARK VINA RESULT:    -5.813      4.448      6.065
REMARK INTER + INTRA:          -9.780
REMARK INTER:                  -8.988
REMARK INTRA:                  -0.793
REMARK UNBOUND:                -1.078
REMARK  Name = 
REMARK  12 active torsions:
REMARK  status: ('A' for Active; 'I' for Inactive)
REMARK    1  A    between atoms: C_1  and  C_2
REMARK    2  A    between atoms: C_3  and  C_4
REMARK    3  A    between atoms: C_7  and  C_8
REMARK    4  A    between atoms: C_8  and  C_9
REMARK    5  A    between atoms: C_8  and  C_10
REMARK    6  A    between atoms: C_10  and  O_11
REMARK    7  A    between atoms: O_11  and  C_12
REMARK    8  A    between atoms: C_16  and  C_17
REMARK    9  A    between atoms: C_17  and  N_18
REMARK   10  A    between atoms: N_18  and  C_19
REMARK   11  A    between atoms: C_19  and  C_20
REMARK   12  A    between atoms: C_22  and  N_23
REMARK                            x       y       z     vdW  Elec       q    Type
REMARK                         _______ _______ _______ _____ _____    ______ ____
ROOT
ATOM      1  C   UNL     1      47.973   3.276  16.484  0.00  0.00    +0.000 C 
ATOM      2  C   UNL     1      47.035   2.832  17.618  0.00  0.00    +0.000 C 
ENDROOT
BRANCH   1   6
ATOM      3  C   UNL     1      51.625   4.895  18.088  0.00  0.00    +0.000 A 
ATOM      4  C   UNL     1      50.522   5.666  17.772  0.00  0.00    +0.000 A 
ATOM      5  N   UNL     1      49.360   5.179  17.258  0.00  0.00    +0.000 NA
ATOM      6  C   UNL     1      49.291   3.828  17.011  0.00  0.00    +0.000 A 
ATOM      7  C   UNL     1      50.364   2.969  17.298  0.00  0.00    +0.000 A 
ATOM      8  C   UNL     1      51.529   3.524  17.834  0.00  0.00    +0.000 A 
BRANCH   3  11
ATOM      9  C   UNL     1      55.220   6.568  19.657  0.00  0.00    +0.000 C 
ATOM     10  C   UNL     1      53.937   5.966  19.108  0.00  0.00    +0.000 C 
ATOM     11  C   UNL     1      52.836   5.449  18.638  0.00  0.00    +0.000 C 
ENDBRANCH   3  11
BRANCH   7  12
ATOM     12  N   UNL     1      50.408   1.632  16.861  0.00  0.00    +0.000 N 
ATOM     13  H   UNL     1      51.306   1.180  16.770  0.00  0.00    +0.000 HD
ATOM     14  H   UNL     1      49.738   1.363  16.151  0.00  0.00    +0.000 HD
ENDBRANCH   7  12
ENDBRANCH   1   6
BRANCH   1  15
ATOM     15  C   UNL     1      47.237   4.258  15.577  0.00  0.00    +0.000 C 
BRANCH  15  16
ATOM     16  O   UNL     1      46.786   3.561  14.403  0.00  0.00    +0.000 OA
BRANCH  16  17
ATOM     17  C   UNL     1      46.381   4.369  13.377  0.00  0.00    +0.000 A 
ATOM     18  C   UNL     1      46.985   5.597  13.074  0.00  0.00    +0.000 A 
ATOM     19  C   UNL     1      46.538   6.343  12.003  0.00  0.00    +0.000 A 
ATOM     20  C   UNL     1      45.480   5.876  11.218  0.00  0.00    +0.000 A 
ATOM     21  C   UNL     1      44.867   4.647  11.497  0.00  0.00    +0.000 A 
ATOM     22  C   UNL     1      45.326   3.900  12.589  0.00  0.00    +0.000 A 
BRANCH  21  23
ATOM     23  C   UNL     1      43.745   4.125  10.626  0.00  0.00    +0.000 C 
BRANCH  23  24
ATOM     24  N   UNL     1      43.993   4.419   9.217  0.00  0.00    +0.000 NA
ATOM     25  H   UNL     1      44.561   5.261   9.149  0.00  0.00    +0.000 HD
BRANCH  24  26
ATOM     26  C   UNL     1      44.677   3.318   8.544  0.00  0.00    +0.000 C 
ATOM     27  C   UNL     1      45.937   3.860   7.885  0.00  0.00    +0.000 C 
ENDBRANCH  24  26
ENDBRANCH  23  24
ENDBRANCH  21  23
ENDBRANCH  16  17
ENDBRANCH  15  16
ENDBRANCH   1  15
TORSDOF 9
ENDMDL
