MODEL 1
REMARK VINA RESULT:    -8.455      0.000      0.000
REMARK INTER + INTRA:         -12.255
REMARK INTER:                 -11.420
REMARK INTRA:                  -0.834
REMARK UNBOUND:                -0.834
REMARK  Name = 
REMARK  6 active torsions:
REMARK  status: ('A' for Active; 'I' for Inactive)
REMARK    1  A    between atoms: N_4  and  C_5
REMARK    2  A    between atoms: C_9  and  C_10
REMARK    3  A    between atoms: C_10  and  C_11
REMARK    4  A    between atoms: C_14  and  C_15
REMARK    5  A    between atoms: C_15  and  N_16
REMARK    6  A    between atoms: C_17  and  C_19
REMARK                            x       y       z     vdW  Elec       q    Type
REMARK                         _______ _______ _______ _____ _____    ______ ____
ROOT
ATOM      1  C   UNL     1      44.839   6.098  11.041  0.00  0.00    +0.000 A 
ATOM      2  C   UNL     1      45.972   5.461  11.542  0.00  0.00    +0.000 A 
ATOM      3  C   UNL     1      46.819   6.162  12.401  0.00  0.00    +0.000 A 
ATOM      4  C   UNL     1      46.545   7.494  12.720  0.00  0.00    +0.000 A 
ATOM      5  C   UNL     1      45.413   8.057  12.141  0.00  0.00    +0.000 A 
ATOM      6  N   UNL     1      44.562   7.398  11.315  0.00  0.00    +0.000 NA
ENDROOT
BRANCH   1   7
ATOM      7  C   UNL     1      43.822   5.314  10.239  0.00  0.00    +0.000 C 
BRANCH   7  12
ATOM      8  C   UNL     1      45.798   3.057   7.843  0.00  0.00    +0.000 A 
ATOM      9  C   UNL     1      45.555   1.807   8.411  0.00  0.00    +0.000 A 
ATOM     10  C   UNL     1      44.692   1.678   9.494  0.00  0.00    +0.000 A 
ATOM     11  C   UNL     1      44.089   2.803  10.051  0.00  0.00    +0.000 A 
ATOM     12  C   UNL     1      44.388   4.081   9.558  0.00  0.00    +0.000 A 
ATOM     13  C   UNL     1      45.247   4.195   8.445  0.00  0.00    +0.000 A 
BRANCH   8  17
ATOM     14  N   UNL     1      48.240   2.860   5.165  0.00  0.00    +0.000 N 
ATOM     15  C   UNL     1      47.691   2.490   6.354  0.00  0.00    +0.000 C 
ATOM     16  O   UNL     1      48.204   1.568   6.977  0.00  0.00    +0.000 OA
ATOM     17  N   UNL     1      46.573   3.217   6.673  0.00  0.00    +0.000 N 
ATOM     18  H   UNL     1      49.119   2.386   5.000  0.00  0.00    +0.000 HD
ATOM     19  H   UNL     1      48.250   3.844   4.944  0.00  0.00    +0.000 HD
ATOM     20  H   UNL     1      46.150   3.724   5.909  0.00  0.00    +0.000 HD
ENDBRANCH   8  17
ENDBRANCH   7  12
ENDBRANCH   1   7
BRANCH   4  21
ATOM     21  C   UNL     1      47.407   8.281  13.666  0.00  0.00    +0.000 C 
BRANCH  21  22
ATOM     22  N   UNL     1      47.751   7.520  14.840  0.00  0.00    +0.000 N 
ATOM     23  C   UNL     1      49.004   6.963  15.001  0.00  0.00    +0.000 C 
ATOM     24  O   UNL     1      49.896   7.115  14.176  0.00  0.00    +0.000 OA
ATOM     25  H   UNL     1      46.986   7.163  15.401  0.00  0.00    +0.000 HD
BRANCH  23  26
ATOM     26  C   UNL     1      49.225   6.245  16.265  0.00  0.00    +0.000 A 
ATOM     27  C   UNL     1      50.213   6.676  17.144  0.00  0.00    +0.000 A 
ATOM     28  S   UNL     1      50.278   5.774  18.591  0.00  0.00    +0.000 S 
ATOM     29  C   UNL     1      49.040   4.731  18.066  0.00  0.00    +0.000 A 
ATOM     30  N   UNL     1      48.623   3.690  18.835  0.00  0.00    +0.000 NA
ATOM     31  C   UNL     1      47.698   2.964  18.297  0.00  0.00    +0.000 A 
ATOM     32  N   UNL     1      47.152   3.190  17.060  0.00  0.00    +0.000 N 
ATOM     33  C   UNL     1      47.512   4.250  16.266  0.00  0.00    +0.000 A 
ATOM     34  O   UNL     1      46.957   4.464  15.196  0.00  0.00    +0.000 OA
ATOM     35  C   UNL     1      48.567   5.086  16.816  0.00  0.00    +0.000 A 
ATOM     36  H   UNL     1      46.418   2.594  16.702  0.00  0.00    +0.000 HD
ENDBRANCH  23  26
ENDBRANCH  21  22
ENDBRANCH   4  21
TORSDOF 6
ENDMDL
MODEL 2
REMARK VINA RESULT:    -8.319      2.959      8.528
REMARK INTER + INTRA:         -12.072
REMARK INTER:                 -10.818
REMARK INTRA:                  -1.254
REMARK UNBOUND:                -0.834
REMARK  Name = 
REMARK  6 active torsions:
REMARK  status: ('A' for Active; 'I' for Inactive)
REMARK    1  A    between atoms: N_4  and  C_5
REMARK    2  A    between atoms: C_9  and  C_10
REMARK    3  A    between atoms: C_10  and  C_11
REMARK    4  A    between atoms: C_14  and  C_15
REMARK    5  A    between atoms: C_15  and  N_16
REMARK    6  A    between atoms: C_17  and  C_19
REMARK                            x       y       z     vdW  Elec       q    Type
REMARK                         _______ _______ _______ _____ _____    ______ ____
ROOT
ATOM      1  C   UNL     1      49.373   7.752  15.585  0.00  0.00    +0.000 A 
ATOM      2  C   UNL     1      48.401   8.720  15.344  0.00  0.00    +0.000 A 
ATOM      3  C   UNL     1      47.766   8.748  14.102  0.00  0.00    +0.000 A 
ATOM      4  C   UNL     1      48.133   7.838  13.108  0.00  0.00    +0.000 A 
ATOM      5  C   UNL     1      49.141   6.934  13.427  0.00  0.00    +0.000 A 
ATOM      6  N   UNL     1      49.766   6.871  14.630  0.00  0.00    +0.000 NA
ENDROOT
BRANCH   1   7
ATOM      7  C   UNL     1      49.960   7.596  16.972  0.00  0.00    +0.000 C 
BRANCH   7  12
ATOM      8  C   UNL     1      49.989   3.990  18.289  0.00  0.00    +0.000 A 
ATOM      9  C   UNL     1      48.867   4.012  19.117  0.00  0.00    +0.000 A 
ATOM     10  C   UNL     1      48.056   5.140  19.179  0.00  0.00    +0.000 A 
ATOM     11  C   UNL     1      48.378   6.280  18.446  0.00  0.00    +0.000 A 
ATOM     12  C   UNL     1      49.550   6.317  17.678  0.00  0.00    +0.000 A 
ATOM     13  C   UNL     1      50.350   5.158  17.606  0.00  0.00    +0.000 A 
BRANCH   8  17
ATOM     14  N   UNL     1      51.495   0.880  17.180  0.00  0.00    +0.000 N 
ATOM     15  C   UNL     1      50.600   1.902  17.110  0.00  0.00    +0.000 C 
ATOM     16  O   UNL     1      49.789   1.913  16.191  0.00  0.00    +0.000 OA
ATOM     17  N   UNL     1      50.770   2.828  18.107  0.00  0.00    +0.000 N 
ATOM     18  H   UNL     1      51.286   0.158  16.502  0.00  0.00    +0.000 HD
ATOM     19  H   UNL     1      51.735   0.533  18.096  0.00  0.00    +0.000 HD
ATOM     20  H   UNL     1      51.659   2.794  18.586  0.00  0.00    +0.000 HD
ENDBRANCH   8  17
ENDBRANCH   7  12
ENDBRANCH   1   7
BRANCH   4  21
ATOM     21  C   UNL     1      47.457   7.806  11.767  0.00  0.00    +0.000 C 
BRANCH  21  22
ATOM     22  N   UNL     1      46.779   6.556  11.535  0.00  0.00    +0.000 N 
ATOM     23  C   UNL     1      45.447   6.384  11.849  0.00  0.00    +0.000 C 
ATOM     24  O   UNL     1      44.763   7.292  12.306  0.00  0.00    +0.000 OA
ATOM     25  H   UNL     1      47.357   5.731  11.410  0.00  0.00    +0.000 HD
BRANCH  23  26
ATOM     26  C   UNL     1      44.878   5.068  11.524  0.00  0.00    +0.000 A 
ATOM     27  C   UNL     1      44.161   4.364  12.485  0.00  0.00    +0.000 A 
ATOM     28  S   UNL     1      43.511   2.894  11.910  0.00  0.00    +0.000 S 
ATOM     29  C   UNL     1      44.224   3.110  10.380  0.00  0.00    +0.000 A 
ATOM     30  N   UNL     1      44.084   2.176   9.400  0.00  0.00    +0.000 NA
ATOM     31  C   UNL     1      44.704   2.457   8.301  0.00  0.00    +0.000 A 
ATOM     32  N   UNL     1      45.448   3.591   8.095  0.00  0.00    +0.000 N 
ATOM     33  C   UNL     1      45.583   4.578   9.038  0.00  0.00    +0.000 A 
ATOM     34  O   UNL     1      46.198   5.610   8.799  0.00  0.00    +0.000 OA
ATOM     35  C   UNL     1      44.923   4.301  10.303  0.00  0.00    +0.000 A 
ATOM     36  H   UNL     1      45.895   3.760   7.204  0.00  0.00    +0.000 HD
ENDBRANCH  23  26
ENDBRANCH  21  22
ENDBRANCH   4  21
TORSDOF 6
ENDMDL
MODEL 3
REMARK VINA RESULT:    -8.055      1.821      2.187
REMARK INTER + INTRA:         -11.714
REMARK INTER:                 -11.159
REMARK INTRA:                  -0.555
REMARK UNBOUND:                -0.834
REMARK  Name = 
REMARK  6 active torsions:
REMARK  status: ('A' for Active; 'I' for Inactive)
REMARK    1  A    between atoms: N_4  and  C_5
REMARK    2  A    between atoms: C_9  and  C_10
REMARK    3  A    between atoms: C_10  and  C_11
REMARK    4  A    between atoms: C_14  and  C_15
REMARK    5  A    between atoms: C_15  and  N_16
REMARK    6  A    between atoms: C_17  and  C_19
REMARK                            x       y       z     vdW  Elec       q    Type
REMARK                         _______ _______ _______ _____ _____    ______ ____
ROOT
ATOM      1  C   UNL     1      45.354   5.891  11.593  0.00  0.00    +0.000 A 
ATOM      2  C   UNL     1      45.956   7.139  11.454  0.00  0.00    +0.000 A 
ATOM      3  C   UNL     1      47.056   7.454  12.254  0.00  0.00    +0.000 A 
ATOM      4  C   UNL     1      47.515   6.537  13.202  0.00  0.00    +0.000 A 
ATOM      5  C   UNL     1      46.827   5.333  13.296  0.00  0.00    +0.000 A 
ATOM      6  N   UNL     1      45.765   4.991  12.523  0.00  0.00    +0.000 NA
ENDROOT
BRANCH   1   7
ATOM      7  C   UNL     1      44.266   5.464  10.631  0.00  0.00    +0.000 C 
BRANCH   7  12
ATOM      8  C   UNL     1      45.798   3.144   7.982  0.00  0.00    +0.000 A 
ATOM      9  C   UNL     1      45.354   1.904   8.441  0.00  0.00    +0.000 A 
ATOM     10  C   UNL     1      44.497   1.820   9.533  0.00  0.00    +0.000 A 
ATOM     11  C   UNL     1      44.102   2.973  10.208  0.00  0.00    +0.000 A 
ATOM     12  C   UNL     1      44.605   4.223   9.824  0.00  0.00    +0.000 A 
ATOM     13  C   UNL     1      45.456   4.296   8.701  0.00  0.00    +0.000 A 
BRANCH   8  17
ATOM     14  N   UNL     1      48.203   2.855   5.279  0.00  0.00    +0.000 N 
ATOM     15  C   UNL     1      47.641   2.494   6.464  0.00  0.00    +0.000 C 
ATOM     16  O   UNL     1      48.100   1.528   7.063  0.00  0.00    +0.000 OA
ATOM     17  N   UNL     1      46.573   3.281   6.810  0.00  0.00    +0.000 N 
ATOM     18  H   UNL     1      49.049   2.331   5.096  0.00  0.00    +0.000 HD
ATOM     19  H   UNL     1      48.272   3.841   5.079  0.00  0.00    +0.000 HD
ATOM     20  H   UNL     1      46.176   3.830   6.060  0.00  0.00    +0.000 HD
ENDBRANCH   8  17
ENDBRANCH   7  12
ENDBRANCH   1   7
BRANCH   4  21
ATOM     21  C   UNL     1      48.714   6.814  14.064  0.00  0.00    +0.000 C 
BRANCH  21  22
ATOM     22  N   UNL     1      48.355   6.979  15.449  0.00  0.00    +0.000 N 
ATOM     23  C   UNL     1      49.188   6.565  16.469  0.00  0.00    +0.000 C 
ATOM     24  O   UNL     1      50.288   6.072  16.252  0.00  0.00    +0.000 OA
ATOM     25  H   UNL     1      47.375   7.137  15.658  0.00  0.00    +0.000 HD
BRANCH  23  26
ATOM     26  C   UNL     1      48.709   6.831  17.833  0.00  0.00    +0.000 A 
ATOM     27  C   UNL     1      48.209   8.086  18.161  0.00  0.00    +0.000 A 
ATOM     28  S   UNL     1      47.628   8.192  19.762  0.00  0.00    +0.000 S 
ATOM     29  C   UNL     1      48.090   6.589  20.098  0.00  0.00    +0.000 A 
ATOM     30  N   UNL     1      47.903   6.046  21.331  0.00  0.00    +0.000 NA
ATOM     31  C   UNL     1      48.329   4.831  21.451  0.00  0.00    +0.000 A 
ATOM     32  N   UNL     1      48.923   4.112  20.445  0.00  0.00    +0.000 N 
ATOM     33  C   UNL     1      49.096   4.604  19.176  0.00  0.00    +0.000 A 
ATOM     34  O   UNL     1      49.567   3.912  18.282  0.00  0.00    +0.000 OA
ATOM     35  C   UNL     1      48.653   5.976  18.993  0.00  0.00    +0.000 A 
ATOM     36  H   UNL     1      49.220   3.158  20.599  0.00  0.00    +0.000 HD
ENDBRANCH  23  26
ENDBRANCH  21  22
ENDBRANCH   4  21
TORSDOF 6
ENDMDL
MODEL 4
REMARK VINA RESULT:    -8.053      2.117      2.592
REMARK INTER + INTRA:         -11.712
REMARK INTER:                 -10.688
REMARK INTRA:                  -1.024
REMARK UNBOUND:                -0.834
REMARK  Name = 
REMARK  6 active torsions:
REMARK  status: ('A' for Active; 'I' for Inactive)
REMARK    1  A    between atoms: N_4  and  C_5
REMARK    2  A    between atoms: C_9  and  C_10
REMARK    3  A    between atoms: C_10  and  C_11
REMARK    4  A    between atoms: C_14  and  C_15
REMARK    5  A    between atoms: C_15  and  N_16
REMARK    6  A    between atoms: C_17  and  C_19
REMARK                            x       y       z     vdW  Elec       q    Type
REMARK                         _______ _______ _______ _____ _____    ______ ____
ROOT
ATOM      1  C   UNL     1      45.831   5.802  11.657  0.00  0.00    +0.000 A 
ATOM      2  C   UNL     1      45.885   5.165  12.895  0.00  0.00    +0.000 A 
ATOM      3  C   UNL     1      46.864   5.548  13.811  0.00  0.00    +0.000 A 
ATOM      4  C   UNL     1      47.796   6.531  13.469  0.00  0.00    +0.000 A 
ATOM      5  C   UNL     1      47.688   7.082  12.197  0.00  0.00    +0.000 A 
ATOM      6  N   UNL     1      46.738   6.742  11.290  0.00  0.00    +0.000 NA
ENDROOT
BRANCH   1   7
ATOM      7  C   UNL     1      44.683   5.521  10.710  0.00  0.00    +0.000 C 
BRANCH   7  12
ATOM      8  C   UNL     1      45.906   3.167   7.934  0.00  0.00    +0.000 A 
ATOM      9  C   UNL     1      45.362   1.958   8.366  0.00  0.00    +0.000 A 
ATOM     10  C   UNL     1      44.535   1.914   9.484  0.00  0.00    +0.000 A 
ATOM     11  C   UNL     1      44.272   3.073  10.210  0.00  0.00    +0.000 A 
ATOM     12  C   UNL     1      44.878   4.284   9.852  0.00  0.00    +0.000 A 
ATOM     13  C   UNL     1      45.696   4.319   8.703  0.00  0.00    +0.000 A 
BRANCH   8  17
ATOM     14  N   UNL     1      48.258   2.821   5.191  0.00  0.00    +0.000 N 
ATOM     15  C   UNL     1      47.728   2.494   6.401  0.00  0.00    +0.000 C 
ATOM     16  O   UNL     1      48.218   1.560   7.025  0.00  0.00    +0.000 OA
ATOM     17  N   UNL     1      46.652   3.275   6.740  0.00  0.00    +0.000 N 
ATOM     18  H   UNL     1      49.110   2.306   5.009  0.00  0.00    +0.000 HD
ATOM     19  H   UNL     1      48.304   3.800   4.954  0.00  0.00    +0.000 HD
ATOM     20  H   UNL     1      46.230   3.788   5.980  0.00  0.00    +0.000 HD
ENDBRANCH   8  17
ENDBRANCH   7  12
ENDBRANCH   1   7
BRANCH   4  21
ATOM     21  C   UNL     1      48.849   7.002  14.432  0.00  0.00    +0.000 C 
BRANCH  21  22
ATOM     22  N   UNL     1      48.539   6.635  15.791  0.00  0.00    +0.000 N 
ATOM     23  C   UNL     1      49.498   6.123  16.641  0.00  0.00    +0.000 C 
ATOM     24  O   UNL     1      50.666   5.987  16.299  0.00  0.00    +0.000 OA
ATOM     25  H   UNL     1      47.561   6.491  16.020  0.00  0.00    +0.000 HD
BRANCH  23  26
ATOM     26  C   UNL     1      49.047   5.829  18.008  0.00  0.00    +0.000 A 
ATOM     27  C   UNL     1      49.150   4.537  18.512  0.00  0.00    +0.000 A 
ATOM     28  S   UNL     1      48.651   4.396  20.138  0.00  0.00    +0.000 S 
ATOM     29  C   UNL     1      48.211   6.038  20.206  0.00  0.00    +0.000 A 
ATOM     30  N   UNL     1      47.671   6.576  21.333  0.00  0.00    +0.000 NA
ATOM     31  C   UNL     1      47.357   7.826  21.231  0.00  0.00    +0.000 A 
ATOM     32  N   UNL     1      47.539   8.586  20.105  0.00  0.00    +0.000 N 
ATOM     33  C   UNL     1      48.118   8.098  18.960  0.00  0.00    +0.000 A 
ATOM     34  O   UNL     1      48.329   8.820  17.994  0.00  0.00    +0.000 OA
ATOM     35  C   UNL     1      48.469   6.688  19.013  0.00  0.00    +0.000 A 
ATOM     36  H   UNL     1      47.288   9.564  20.095  0.00  0.00    +0.000 HD
ENDBRANCH  23  26
ENDBRANCH  21  22
ENDBRANCH   4  21
TORSDOF 6
ENDMDL
MODEL 5
REMARK VINA RESULT:    -7.728      2.756      8.503
REMARK INTER + INTRA:         -11.272
REMARK INTER:                  -9.877
REMARK INTRA:                  -1.395
REMARK UNBOUND:                -0.834
REMARK  Name = 
REMARK  6 active torsions:
REMARK  status: ('A' for Active; 'I' for Inactive)
REMARK    1  A    between atoms: N_4  and  C_5
REMARK    2  A    between atoms: C_9  and  C_10
REMARK    3  A    between atoms: C_10  and  C_11
REMARK    4  A    between atoms: C_14  and  C_15
REMARK    5  A    between atoms: C_15  and  N_16
REMARK    6  A    between atoms: C_17  and  C_19
REMARK                            x       y       z     vdW  Elec       q    Type
REMARK                         _______ _______ _______ _____ _____    ______ ____
ROOT
ATOM      1  C   UNL     1      50.058   8.121  15.348  0.00  0.00    +0.000 A 
ATOM      2  C   UNL     1      48.780   8.668  15.430  0.00  0.00    +0.000 A 
ATOM      3  C   UNL     1      47.966   8.660  14.297  0.00  0.00    +0.000 A 
ATOM      4  C   UNL     1      48.448   8.143  13.093  0.00  0.00    +0.000 A 
ATOM      5  C   UNL     1      49.750   7.655  13.097  0.00  0.00    +0.000 A 
ATOM      6  N   UNL     1      50.561   7.634  14.185  0.00  0.00    +0.000 NA
ENDROOT
BRANCH   1   7
ATOM      7  C   UNL     1      50.899   7.970  16.598  0.00  0.00    +0.000 C 
BRANCH   7  12
ATOM      8  C   UNL     1      49.967   4.429  17.751  0.00  0.00    +0.000 A 
ATOM      9  C   UNL     1      51.234   3.857  17.870  0.00  0.00    +0.000 A 
ATOM     10  C   UNL     1      52.378   4.625  17.673  0.00  0.00    +0.000 A 
ATOM     11  C   UNL     1      52.271   5.967  17.315  0.00  0.00    +0.000 A 
ATOM     12  C   UNL     1      51.012   6.542  17.100  0.00  0.00    +0.000 A 
ATOM     13  C   UNL     1      49.861   5.758  17.325  0.00  0.00    +0.000 A 
BRANCH   8  17
ATOM     14  N   UNL     1      46.867   2.542  17.716  0.00  0.00    +0.000 N 
ATOM     15  C   UNL     1      47.927   3.170  17.139  0.00  0.00    +0.000 C 
ATOM     16  O   UNL     1      48.023   3.160  15.917  0.00  0.00    +0.000 OA
ATOM     17  N   UNL     1      48.787   3.717  18.057  0.00  0.00    +0.000 N 
ATOM     18  H   UNL     1      46.194   2.239  17.024  0.00  0.00    +0.000 HD
ATOM     19  H   UNL     1      46.460   2.973  18.532  0.00  0.00    +0.000 HD
ATOM     20  H   UNL     1      48.690   3.375  19.002  0.00  0.00    +0.000 HD
ENDBRANCH   8  17
ENDBRANCH   7  12
ENDBRANCH   1   7
BRANCH   4  21
ATOM     21  C   UNL     1      47.600   8.082  11.854  0.00  0.00    +0.000 C 
BRANCH  21  22
ATOM     22  N   UNL     1      46.883   6.836  11.753  0.00  0.00    +0.000 N 
ATOM     23  C   UNL     1      45.504   6.789  11.775  0.00  0.00    +0.000 C 
ATOM     24  O   UNL     1      44.819   7.802  11.844  0.00  0.00    +0.000 OA
ATOM     25  H   UNL     1      47.400   5.987  11.954  0.00  0.00    +0.000 HD
BRANCH  23  26
ATOM     26  C   UNL     1      44.908   5.454  11.626  0.00  0.00    +0.000 A 
ATOM     27  C   UNL     1      44.206   4.884  12.682  0.00  0.00    +0.000 A 
ATOM     28  S   UNL     1      43.520   3.367  12.306  0.00  0.00    +0.000 S 
ATOM     29  C   UNL     1      44.197   3.382  10.745  0.00  0.00    +0.000 A 
ATOM     30  N   UNL     1      44.019   2.339   9.890  0.00  0.00    +0.000 NA
ATOM     31  C   UNL     1      44.615   2.474   8.750  0.00  0.00    +0.000 A 
ATOM     32  N   UNL     1      45.370   3.560   8.390  0.00  0.00    +0.000 N 
ATOM     33  C   UNL     1      45.544   4.653   9.203  0.00  0.00    +0.000 A 
ATOM     34  O   UNL     1      46.167   5.637   8.825  0.00  0.00    +0.000 OA
ATOM     35  C   UNL     1      44.912   4.543  10.507  0.00  0.00    +0.000 A 
ATOM     36  H   UNL     1      45.798   3.612   7.476  0.00  0.00    +0.000 HD
ENDBRANCH  23  26
ENDBRANCH  21  22
ENDBRANCH   4  21
TORSDOF 6
ENDMDL
MODEL 6
REMARK VINA RESULT:    -7.427      4.666      9.966
REMARK INTER + INTRA:         -10.866
REMARK INTER:                 -10.093
REMARK INTRA:                  -0.773
REMARK UNBOUND:                -0.834
REMARK  Name = 
REMARK  6 active torsions:
REMARK  status: ('A' for Active; 'I' for Inactive)
REMARK    1  A    between atoms: N_4  and  C_5
REMARK    2  A    between atoms: C_9  and  C_10
REMARK    3  A    between atoms: C_10  and  C_11
REMARK    4  A    between atoms: C_14  and  C_15
REMARK    5  A    between atoms: C_15  and  N_16
REMARK    6  A    between atoms: C_17  and  C_19
REMARK                            x       y       z     vdW  Elec       q    Type
REMARK                         _______ _______ _______ _____ _____    ______ ____
ROOT
ATOM      1  C   UNL     1      51.393   3.805  17.619  0.00  0.00    +0.000 A 
ATOM      2  C   UNL     1      50.908   2.527  17.347  0.00  0.00    +0.000 A 
ATOM      3  C   UNL     1      49.550   2.363  17.072  0.00  0.00    +0.000 A 
ATOM      4  C   UNL     1      48.691   3.464  17.107  0.00  0.00    +0.000 A 
ATOM      5  C   UNL     1      49.259   4.692  17.427  0.00  0.00    +0.000 A 
ATOM      6  N   UNL     1      50.577   4.887  17.684  0.00  0.00    +0.000 NA
ENDROOT
BRANCH   1   7
ATOM      7  C   UNL     1      52.883   4.034  17.761  0.00  0.00    +0.000 C 
BRANCH   7  12
ATOM      8  C   UNL     1      54.607   0.791  18.879  0.00  0.00    +0.000 A 
ATOM      9  C   UNL     1      55.038   1.157  20.154  0.00  0.00    +0.000 A 
ATOM     10  C   UNL     1      54.699   2.397  20.686  0.00  0.00    +0.000 A 
ATOM     11  C   UNL     1      53.957   3.306  19.935  0.00  0.00    +0.000 A 
ATOM     12  C   UNL     1      53.590   2.999  18.618  0.00  0.00    +0.000 A 
ATOM     13  C   UNL     1      53.920   1.730  18.099  0.00  0.00    +0.000 A 
BRANCH   8  17
ATOM     14  N   UNL     1      54.539  -2.729  17.998  0.00  0.00    +0.000 N 
ATOM     15  C   UNL     1      54.102  -1.621  18.655  0.00  0.00    +0.000 C 
ATOM     16  O   UNL     1      53.129  -1.721  19.394  0.00  0.00    +0.000 OA
ATOM     17  N   UNL     1      54.828  -0.499  18.349  0.00  0.00    +0.000 N 
ATOM     18  H   UNL     1      54.059  -3.562  18.316  0.00  0.00    +0.000 HD
ATOM     19  H   UNL     1      55.535  -2.840  17.886  0.00  0.00    +0.000 HD
ATOM     20  H   UNL     1      55.394  -0.561  17.514  0.00  0.00    +0.000 HD
ENDBRANCH   8  17
ENDBRANCH   7  12
ENDBRANCH   1   7
BRANCH   4  21
ATOM     21  C   UNL     1      47.228   3.345  16.786  0.00  0.00    +0.000 C 
BRANCH  21  22
ATOM     22  N   UNL     1      46.804   4.338  15.832  0.00  0.00    +0.000 N 
ATOM     23  C   UNL     1      46.858   4.107  14.473  0.00  0.00    +0.000 C 
ATOM     24  O   UNL     1      47.233   3.038  14.008  0.00  0.00    +0.000 OA
ATOM     25  H   UNL     1      46.739   5.296  16.159  0.00  0.00    +0.000 HD
BRANCH  23  26
ATOM     26  C   UNL     1      46.357   5.195  13.620  0.00  0.00    +0.000 A 
ATOM     27  C   UNL     1      47.150   6.313  13.384  0.00  0.00    +0.000 A 
ATOM     28  S   UNL     1      46.441   7.438  12.313  0.00  0.00    +0.000 S 
ATOM     29  C   UNL     1      45.022   6.508  12.183  0.00  0.00    +0.000 A 
ATOM     30  N   UNL     1      43.972   6.928  11.427  0.00  0.00    +0.000 NA
ATOM     31  C   UNL     1      42.949   6.137  11.445  0.00  0.00    +0.000 A 
ATOM     32  N   UNL     1      42.885   4.963  12.151  0.00  0.00    +0.000 N 
ATOM     33  C   UNL     1      43.933   4.480  12.894  0.00  0.00    +0.000 A 
ATOM     34  O   UNL     1      43.869   3.394  13.457  0.00  0.00    +0.000 OA
ATOM     35  C   UNL     1      45.102   5.343  12.926  0.00  0.00    +0.000 A 
ATOM     36  H   UNL     1      42.061   4.380  12.110  0.00  0.00    +0.000 HD
ENDBRANCH  23  26
ENDBRANCH  21  22
ENDBRANCH   4  21
TORSDOF 6
ENDMDL
MODEL 7
REMARK VINA RESULT:    -7.207      4.157      9.022
REMARK INTER + INTRA:         -10.569
REMARK INTER:                  -8.487
REMARK INTRA:                  -2.082
REMARK UNBOUND:                -0.834
REMARK  Name = 
REMARK  6 active torsions:
REMARK  status: ('A' for Active; 'I' for Inactive)
REMARK    1  A    between atoms: N_4  and  C_5
REMARK    2  A    between atoms: C_9  and  C_10
REMARK    3  A    between atoms: C_10  and  C_11
REMARK    4  A    between atoms: C_14  and  C_15
REMARK    5  A    between atoms: C_15  and  N_16
REMARK    6  A    between atoms: C_17  and  C_19
REMARK                            x       y       z     vdW  Elec       q    Type
REMARK                         _______ _______ _______ _____ _____    ______ ____
ROOT
ATOM      1  C   UNL     1      51.364   3.838  18.287  0.00  0.00    +0.000 A 
ATOM      2  C   UNL     1      51.030   2.739  17.499  0.00  0.00    +0.000 A 
ATOM      3  C   UNL     1      49.705   2.574  17.092  0.00  0.00    +0.000 A 
ATOM      4  C   UNL     1      48.729   3.484  17.505  0.00  0.00    +0.000 A 
ATOM      5  C   UNL     1      49.149   4.527  18.322  0.00  0.00    +0.000 A 
ATOM      6  N   UNL     1      50.432   4.723  18.722  0.00  0.00    +0.000 NA
ENDROOT
BRANCH   1   7
ATOM      7  C   UNL     1      52.815   4.127  18.607  0.00  0.00    +0.000 C 
BRANCH   7  12
ATOM      8  C   UNL     1      53.497   7.018  16.173  0.00  0.00    +0.000 A 
ATOM      9  C   UNL     1      54.137   7.920  17.023  0.00  0.00    +0.000 A 
ATOM     10  C   UNL     1      54.431   7.569  18.336  0.00  0.00    +0.000 A 
ATOM     11  C   UNL     1      54.052   6.324  18.833  0.00  0.00    +0.000 A 
ATOM     12  C   UNL     1      53.327   5.434  18.030  0.00  0.00    +0.000 A 
ATOM     13  C   UNL     1      53.056   5.794  16.693  0.00  0.00    +0.000 A 
BRANCH   8  17
ATOM     14  N   UNL     1      52.360   8.211  12.940  0.00  0.00    +0.000 N 
ATOM     15  C   UNL     1      52.341   8.145  14.299  0.00  0.00    +0.000 C 
ATOM     16  O   UNL     1      51.542   8.845  14.910  0.00  0.00    +0.000 OA
ATOM     17  N   UNL     1      53.286   7.290  14.804  0.00  0.00    +0.000 N 
ATOM     18  H   UNL     1      51.590   8.764  12.585  0.00  0.00    +0.000 HD
ATOM     19  H   UNL     1      52.524   7.353  12.435  0.00  0.00    +0.000 HD
ATOM     20  H   UNL     1      54.026   7.032  14.167  0.00  0.00    +0.000 HD
ENDBRANCH   8  17
ENDBRANCH   7  12
ENDBRANCH   1   7
BRANCH   4  21
ATOM     21  C   UNL     1      47.297   3.370  17.067  0.00  0.00    +0.000 C 
BRANCH  21  22
ATOM     22  N   UNL     1      46.954   4.363  16.080  0.00  0.00    +0.000 N 
ATOM     23  C   UNL     1      47.034   4.098  14.728  0.00  0.00    +0.000 C 
ATOM     24  O   UNL     1      47.363   3.000  14.297  0.00  0.00    +0.000 OA
ATOM     25  H   UNL     1      46.933   5.330  16.384  0.00  0.00    +0.000 HD
BRANCH  23  26
ATOM     26  C   UNL     1      46.619   5.192  13.838  0.00  0.00    +0.000 A 
ATOM     27  C   UNL     1      45.432   5.091  13.120  0.00  0.00    +0.000 A 
ATOM     28  S   UNL     1      45.070   6.483  12.200  0.00  0.00    +0.000 S 
ATOM     29  C   UNL     1      46.520   7.240  12.668  0.00  0.00    +0.000 A 
ATOM     30  N   UNL     1      46.854   8.472  12.198  0.00  0.00    +0.000 NA
ATOM     31  C   UNL     1      47.998   8.911  12.613  0.00  0.00    +0.000 A 
ATOM     32  N   UNL     1      48.834   8.228  13.458  0.00  0.00    +0.000 N 
ATOM     33  C   UNL     1      48.521   7.002  13.989  0.00  0.00    +0.000 A 
ATOM     34  O   UNL     1      49.258   6.449  14.795  0.00  0.00    +0.000 OA
ATOM     35  C   UNL     1      47.254   6.452  13.536  0.00  0.00    +0.000 A 
ATOM     36  H   UNL     1      49.709   8.635  13.759  0.00  0.00    +0.000 HD
ENDBRANCH  23  26
ENDBRANCH  21  22
ENDBRANCH   4  21
TORSDOF 6
ENDMDL
MODEL 8
REMARK VINA RESULT:    -7.135      3.795      8.019
REMARK INTER + INTRA:         -10.472
REMARK INTER:                  -8.426
REMARK INTRA:                  -2.046
REMARK UNBOUND:                -0.834
REMARK  Name = 
REMARK  6 active torsions:
REMARK  status: ('A' for Active; 'I' for Inactive)
REMARK    1  A    between atoms: N_4  and  C_5
REMARK    2  A    between atoms: C_9  and  C_10
REMARK    3  A    between atoms: C_10  and  C_11
REMARK    4  A    between atoms: C_14  and  C_15
REMARK    5  A    between atoms: C_15  and  N_16
REMARK    6  A    between atoms: C_17  and  C_19
REMARK                            x       y       z     vdW  Elec       q    Type
REMARK                         _______ _______ _______ _____ _____    ______ ____
ROOT
ATOM      1  C   UNL     1      50.821   8.302  15.545  0.00  0.00    +0.000 A 
ATOM      2  C   UNL     1      49.752   9.153  15.818  0.00  0.00    +0.000 A 
ATOM      3  C   UNL     1      48.846   9.451  14.800  0.00  0.00    +0.000 A 
ATOM      4  C   UNL     1      49.038   8.930  13.519  0.00  0.00    +0.000 A 
ATOM      5  C   UNL     1      50.154   8.123  13.330  0.00  0.00    +0.000 A 
ATOM      6  N   UNL     1      51.044   7.801  14.303  0.00  0.00    +0.000 NA
ENDROOT
BRANCH   1   7
ATOM      7  C   UNL     1      51.723   7.835  16.667  0.00  0.00    +0.000 C 
BRANCH   7  12
ATOM      8  C   UNL     1      49.990   4.526  17.557  0.00  0.00    +0.000 A 
ATOM      9  C   UNL     1      51.096   3.686  17.687  0.00  0.00    +0.000 A 
ATOM     10  C   UNL     1      52.387   4.194  17.582  0.00  0.00    +0.000 A 
ATOM     11  C   UNL     1      52.591   5.544  17.306  0.00  0.00    +0.000 A 
ATOM     12  C   UNL     1      51.498   6.391  17.081  0.00  0.00    +0.000 A 
ATOM     13  C   UNL     1      50.195   5.868  17.213  0.00  0.00    +0.000 A 
BRANCH   8  17
ATOM     14  N   UNL     1      46.671   3.074  17.342  0.00  0.00    +0.000 N 
ATOM     15  C   UNL     1      47.909   3.379  16.867  0.00  0.00    +0.000 C 
ATOM     16  O   UNL     1      48.221   2.994  15.746  0.00  0.00    +0.000 OA
ATOM     17  N   UNL     1      48.670   4.074  17.772  0.00  0.00    +0.000 N 
ATOM     18  H   UNL     1      46.092   2.656  16.624  0.00  0.00    +0.000 HD
ATOM     19  H   UNL     1      46.203   3.771  17.900  0.00  0.00    +0.000 HD
ATOM     20  H   UNL     1      48.346   4.043  18.729  0.00  0.00    +0.000 HD
ENDBRANCH   8  17
ENDBRANCH   7  12
ENDBRANCH   1   7
BRANCH   4  21
ATOM     21  C   UNL     1      48.074   9.195  12.397  0.00  0.00    +0.000 C 
BRANCH  21  22
ATOM     22  N   UNL     1      47.208   8.069  12.154  0.00  0.00    +0.000 N 
ATOM     23  C   UNL     1      45.870   8.096  12.492  0.00  0.00    +0.000 C 
ATOM     24  O   UNL     1      45.342   9.087  12.980  0.00  0.00    +0.000 OA
ATOM     25  H   UNL     1      47.651   7.169  12.000  0.00  0.00    +0.000 HD
BRANCH  23  26
ATOM     26  C   UNL     1      45.101   6.890  12.151  0.00  0.00    +0.000 A 
ATOM     27  C   UNL     1      43.915   7.003  11.433  0.00  0.00    +0.000 A 
ATOM     28  S   UNL     1      43.198   5.499  11.061  0.00  0.00    +0.000 S 
ATOM     29  C   UNL     1      44.405   4.648  11.907  0.00  0.00    +0.000 A 
ATOM     30  N   UNL     1      44.369   3.292  12.010  0.00  0.00    +0.000 NA
ATOM     31  C   UNL     1      45.332   2.783  12.707  0.00  0.00    +0.000 A 
ATOM     32  N   UNL     1      46.329   3.510  13.306  0.00  0.00    +0.000 N 
ATOM     33  C   UNL     1      46.428   4.874  13.196  0.00  0.00    +0.000 A 
ATOM     34  O   UNL     1      47.368   5.487  13.685  0.00  0.00    +0.000 OA
ATOM     35  C   UNL     1      45.355   5.500  12.440  0.00  0.00    +0.000 A 
ATOM     36  H   UNL     1      47.064   3.049  13.824  0.00  0.00    +0.000 HD
ENDBRANCH  23  26
ENDBRANCH  21  22
ENDBRANCH   4  21
TORSDOF 6
ENDMDL
MODEL 9
REMARK VINA RESULT:    -7.018      5.149      7.385
REMARK INTER + INTRA:         -10.313
REMARK INTER:                  -9.337
REMARK INTRA:                  -0.977
REMARK UNBOUND:                -0.834
REMARK  Name = 
REMARK  6 active torsions:
REMARK  status: ('A' for Active; 'I' for Inactive)
REMARK    1  A    between atoms: N_4  and  C_5
REMARK    2  A    between atoms: C_9  and  C_10
REMARK    3  A    between atoms: C_10  and  C_11
REMARK    4  A    between atoms: C_14  and  C_15
REMARK    5  A    between atoms: C_15  and  N_16
REMARK    6  A    between atoms: C_17  and  C_19
REMARK                            x       y       z     vdW  Elec       q    Type
REMARK                         _______ _______ _______ _____ _____    ______ ____
ROOT
ATOM      1  C   UNL     1      47.911   6.364  13.495  0.00  0.00    +0.000 A 
ATOM      2  C   UNL     1      47.919   6.716  12.147  0.00  0.00    +0.000 A 
ATOM      3  C   UNL     1      48.988   7.461  11.648  0.00  0.00    +0.000 A 
ATOM      4  C   UNL     1      50.012   7.874  12.503  0.00  0.00    +0.000 A 
ATOM      5  C   UNL     1      49.898   7.509  13.839  0.00  0.00    +0.000 A 
ATOM      6  N   UNL     1      48.880   6.772  14.352  0.00  0.00    +0.000 NA
ENDROOT
BRANCH   1   7
ATOM      7  C   UNL     1      46.850   5.424  14.026  0.00  0.00    +0.000 C 
BRANCH   7  12
ATOM      8  C   UNL     1      44.547   3.735  11.459  0.00  0.00    +0.000 A 
ATOM      9  C   UNL     1      43.503   4.658  11.407  0.00  0.00    +0.000 A 
ATOM     10  C   UNL     1      43.579   5.853  12.115  0.00  0.00    +0.000 A 
ATOM     11  C   UNL     1      44.683   6.125  12.919  0.00  0.00    +0.000 A 
ATOM     12  C   UNL     1      45.704   5.176  13.061  0.00  0.00    +0.000 A 
ATOM     13  C   UNL     1      45.625   3.978  12.319  0.00  0.00    +0.000 A 
BRANCH   8  17
ATOM     14  N   UNL     1      44.893   1.239   8.846  0.00  0.00    +0.000 N 
ATOM     15  C   UNL     1      44.996   2.492   9.366  0.00  0.00    +0.000 C 
ATOM     16  O   UNL     1      45.470   3.382   8.669  0.00  0.00    +0.000 OA
ATOM     17  N   UNL     1      44.562   2.567  10.665  0.00  0.00    +0.000 N 
ATOM     18  H   UNL     1      45.118   1.228   7.859  0.00  0.00    +0.000 HD
ATOM     19  H   UNL     1      44.079   0.698   9.094  0.00  0.00    +0.000 HD
ATOM     20  H   UNL     1      44.481   1.684  11.149  0.00  0.00    +0.000 HD
ENDBRANCH   8  17
ENDBRANCH   7  12
ENDBRANCH   1   7
BRANCH   4  21
ATOM     21  C   UNL     1      51.200   8.649  12.008  0.00  0.00    +0.000 C 
BRANCH  21  22
ATOM     22  N   UNL     1      51.539   8.306  10.650  0.00  0.00    +0.000 N 
ATOM     23  C   UNL     1      52.730   8.703  10.078  0.00  0.00    +0.000 C 
ATOM     24  O   UNL     1      53.575   9.332  10.702  0.00  0.00    +0.000 OA
ATOM     25  H   UNL     1      50.779   8.023  10.040  0.00  0.00    +0.000 HD
BRANCH  23  26
ATOM     26  C   UNL     1      52.958   8.250   8.698  0.00  0.00    +0.000 A 
ATOM     27  C   UNL     1      52.833   9.147   7.642  0.00  0.00    +0.000 A 
ATOM     28  S   UNL     1      53.206   8.468   6.122  0.00  0.00    +0.000 S 
ATOM     29  C   UNL     1      53.477   6.934   6.808  0.00  0.00    +0.000 A 
ATOM     30  N   UNL     1      53.808   5.865   6.034  0.00  0.00    +0.000 NA
ATOM     31  C   UNL     1      53.953   4.758   6.686  0.00  0.00    +0.000 A 
ATOM     32  N   UNL     1      53.801   4.627   8.042  0.00  0.00    +0.000 N 
ATOM     33  C   UNL     1      53.509   5.684   8.867  0.00  0.00    +0.000 A 
ATOM     34  O   UNL     1      53.447   5.547  10.083  0.00  0.00    +0.000 OA
ATOM     35  C   UNL     1      53.312   6.950   8.181  0.00  0.00    +0.000 A 
ATOM     36  H   UNL     1      53.945   3.735   8.494  0.00  0.00    +0.000 HD
ENDBRANCH  23  26
ENDBRANCH  21  22
ENDBRANCH   4  21
TORSDOF 6
ENDMDL
