MODEL 1
REMARK VINA RESULT:    -8.497      0.000      0.000
REMARK INTER + INTRA:         -12.591
REMARK INTER:                 -11.478
REMARK INTRA:                  -1.113
REMARK UNBOUND:                -1.113
REMARK  Name = 
REMARK  9 active torsions:
REMARK  status: ('A' for Active; 'I' for Inactive)
REMARK    1  A    between atoms: C_1  and  C_2
REMARK    2  A    between atoms: C_4  and  C_5
REMARK    3  A    between atoms: C_5  and  C_6
REMARK    4  A    between atoms: C_5  and  C_7
REMARK    5  A    between atoms: C_7  and  N_8
REMARK    6  A    between atoms: N_8  and  C_9
REMARK    7  A    between atoms: C_13  and  C_14
REMARK    8  A    between atoms: C_19  and  C_20
REMARK    9  A    between atoms: C_27  and  C_28
REMARK                            x       y       z     vdW  Elec       q    Type
REMARK                         _______ _______ _______ _____ _____    ______ ____
ROOT
ATOM      1  C   UNL     1      43.148   4.632  12.393  0.00  0.00    +0.000 C 
ATOM      2  C   UNL     1      42.354   5.776  11.748  0.00  0.00    +0.000 C 
ENDROOT
BRANCH   1   6
ATOM      3  C   UNL     1      47.227   3.745  14.907  0.00  0.00    +0.000 C 
ATOM      4  C   UNL     1      46.464   4.739  14.072  0.00  0.00    +0.000 A 
ATOM      5  N   UNL     1      45.252   4.309  13.646  0.00  0.00    +0.000 NA
ATOM      6  C   UNL     1      44.519   5.115  12.855  0.00  0.00    +0.000 A 
ATOM      7  C   UNL     1      44.986   6.368  12.474  0.00  0.00    +0.000 A 
ATOM      8  C   UNL     1      46.242   6.848  12.899  0.00  0.00    +0.000 A 
ATOM      9  C   UNL     1      46.992   6.008  13.758  0.00  0.00    +0.000 A 
ATOM     10  C   UNL     1      48.327   6.382  14.349  0.00  0.00    +0.000 C 
BRANCH   8  11
ATOM     11  C   UNL     1      46.675   8.191  12.413  0.00  0.00    +0.000 A 
ATOM     12  C   UNL     1      47.990   8.453  11.989  0.00  0.00    +0.000 A 
ATOM     13  C   UNL     1      48.392   9.728  11.572  0.00  0.00    +0.000 A 
ATOM     14  C   UNL     1      47.463  10.758  11.486  0.00  0.00    +0.000 A 
ATOM     15  C   UNL     1      46.140  10.511  11.828  0.00  0.00    +0.000 A 
ATOM     16 CL   UNL     1      44.963  11.753  11.645  0.00  0.00    +0.000 Cl
ATOM     17  C   UNL     1      45.754   9.257  12.307  0.00  0.00    +0.000 A 
ENDBRANCH   8  11
ENDBRANCH   1   6
BRANCH   1  18
ATOM     18  C   UNL     1      43.221   3.446  11.400  0.00  0.00    +0.000 C 
BRANCH  18  19
ATOM     19  N   UNL     1      44.608   3.050  11.112  0.00  0.00    +0.000 N 
ATOM     20  H   UNL     1      44.818   2.174  11.597  0.00  0.00    +0.000 HD
BRANCH  19  21
ATOM     21  C   UNL     1      45.121   3.141   9.819  0.00  0.00    +0.000 A 
ATOM     22  C   UNL     1      45.208   4.331   9.093  0.00  0.00    +0.000 A 
ATOM     23  N   UNL     1      45.764   4.462   7.865  0.00  0.00    +0.000 NA
ATOM     24  C   UNL     1      46.306   3.344   7.332  0.00  0.00    +0.000 A 
ATOM     25  C   UNL     1      46.321   2.108   7.968  0.00  0.00    +0.000 A 
ATOM     26  C   UNL     1      45.729   2.019   9.234  0.00  0.00    +0.000 A 
BRANCH  25  27
ATOM     27  C   UNL     1      46.968   0.980   7.256  0.00  0.00    +0.000 C 
ATOM     28  N   UNL     1      47.729   1.234   6.151  0.00  0.00    +0.000 N 
ATOM     29  O   UNL     1      46.840  -0.177   7.644  0.00  0.00    +0.000 OA
ATOM     30  H   UNL     1      47.899   2.148   5.760  0.00  0.00    +0.000 HD
ATOM     31  H   UNL     1      48.157   0.438   5.699  0.00  0.00    +0.000 HD
ENDBRANCH  25  27
ENDBRANCH  19  21
ENDBRANCH  18  19
ENDBRANCH   1  18
TORSDOF 6
ENDMDL
MODEL 2
REMARK VINA RESULT:    -8.049      1.952      2.406
REMARK INTER + INTRA:         -11.985
REMARK INTER:                 -11.784
REMARK INTRA:                  -0.202
REMARK UNBOUND:                -1.113
REMARK  Name = 
REMARK  9 active torsions:
REMARK  status: ('A' for Active; 'I' for Inactive)
REMARK    1  A    between atoms: C_1  and  C_2
REMARK    2  A    between atoms: C_4  and  C_5
REMARK    3  A    between atoms: C_5  and  C_6
REMARK    4  A    between atoms: C_5  and  C_7
REMARK    5  A    between atoms: C_7  and  N_8
REMARK    6  A    between atoms: N_8  and  C_9
REMARK    7  A    between atoms: C_13  and  C_14
REMARK    8  A    between atoms: C_19  and  C_20
REMARK    9  A    between atoms: C_27  and  C_28
REMARK                            x       y       z     vdW  Elec       q    Type
REMARK                         _______ _______ _______ _____ _____    ______ ____
ROOT
ATOM      1  C   UNL     1      44.662   3.888  11.529  0.00  0.00    +0.000 C 
ATOM      2  C   UNL     1      43.649   3.112  12.382  0.00  0.00    +0.000 C 
ENDROOT
BRANCH   1   6
ATOM      3  C   UNL     1      47.304   3.883  15.623  0.00  0.00    +0.000 C 
ATOM      4  C   UNL     1      46.945   4.632  14.367  0.00  0.00    +0.000 A 
ATOM      5  N   UNL     1      46.040   4.009  13.575  0.00  0.00    +0.000 NA
ATOM      6  C   UNL     1      45.694   4.585  12.408  0.00  0.00    +0.000 A 
ATOM      7  C   UNL     1      46.250   5.797  12.012  0.00  0.00    +0.000 A 
ATOM      8  C   UNL     1      47.193   6.473  12.812  0.00  0.00    +0.000 A 
ATOM      9  C   UNL     1      47.527   5.877  14.053  0.00  0.00    +0.000 A 
ATOM     10  C   UNL     1      48.475   6.486  15.054  0.00  0.00    +0.000 C 
BRANCH   8  11
ATOM     11  C   UNL     1      47.760   7.751  12.290  0.00  0.00    +0.000 A 
ATOM     12  C   UNL     1      47.012   8.941  12.231  0.00  0.00    +0.000 A 
ATOM     13  C   UNL     1      47.545  10.123  11.703  0.00  0.00    +0.000 A 
ATOM     14  C   UNL     1      48.874  10.170  11.299  0.00  0.00    +0.000 A 
ATOM     15  C   UNL     1      49.659   9.031  11.414  0.00  0.00    +0.000 A 
ATOM     16 CL   UNL     1      51.327   9.097  10.998  0.00  0.00    +0.000 Cl
ATOM     17  C   UNL     1      49.108   7.834  11.878  0.00  0.00    +0.000 A 
ENDBRANCH   8  11
ENDBRANCH   1   6
BRANCH   1  18
ATOM     18  C   UNL     1      43.898   4.860  10.597  0.00  0.00    +0.000 C 
BRANCH  18  19
ATOM     19  N   UNL     1      44.242   4.656   9.182  0.00  0.00    +0.000 N 
ATOM     20  H   UNL     1      44.548   5.544   8.776  0.00  0.00    +0.000 HD
BRANCH  19  21
ATOM     21  C   UNL     1      44.979   3.544   8.780  0.00  0.00    +0.000 A 
ATOM     22  C   UNL     1      44.772   2.251   9.266  0.00  0.00    +0.000 A 
ATOM     23  N   UNL     1      45.425   1.141   8.844  0.00  0.00    +0.000 NA
ATOM     24  C   UNL     1      46.319   1.316   7.847  0.00  0.00    +0.000 A 
ATOM     25  C   UNL     1      46.589   2.544   7.251  0.00  0.00    +0.000 A 
ATOM     26  C   UNL     1      45.894   3.663   7.723  0.00  0.00    +0.000 A 
BRANCH  25  27
ATOM     27  C   UNL     1      47.590   2.567   6.157  0.00  0.00    +0.000 C 
ATOM     28  N   UNL     1      48.917   2.653   6.464  0.00  0.00    +0.000 N 
ATOM     29  O   UNL     1      47.248   2.503   4.980  0.00  0.00    +0.000 OA
ATOM     30  H   UNL     1      49.296   2.702   7.398  0.00  0.00    +0.000 HD
ATOM     31  H   UNL     1      49.565   2.660   5.689  0.00  0.00    +0.000 HD
ENDBRANCH  25  27
ENDBRANCH  19  21
ENDBRANCH  18  19
ENDBRANCH   1  18
TORSDOF 6
ENDMDL
MODEL 3
REMARK VINA RESULT:    -7.746      2.698      4.643
REMARK INTER + INTRA:         -11.577
REMARK INTER:                 -10.935
REMARK INTRA:                  -0.641
REMARK UNBOUND:                -1.113
REMARK  Name = 
REMARK  9 active torsions:
REMARK  status: ('A' for Active; 'I' for Inactive)
REMARK    1  A    between atoms: C_1  and  C_2
REMARK    2  A    between atoms: C_4  and  C_5
REMARK    3  A    between atoms: C_5  and  C_6
REMARK    4  A    between atoms: C_5  and  C_7
REMARK    5  A    between atoms: C_7  and  N_8
REMARK    6  A    between atoms: N_8  and  C_9
REMARK    7  A    between atoms: C_13  and  C_14
REMARK    8  A    between atoms: C_19  and  C_20
REMARK    9  A    between atoms: C_27  and  C_28
REMARK                            x       y       z     vdW  Elec       q    Type
REMARK                         _______ _______ _______ _____ _____    ______ ____
ROOT
ATOM      1  C   UNL     1      44.391   4.540  12.086  0.00  0.00    +0.000 C 
ATOM      2  C   UNL     1      43.269   4.252  13.092  0.00  0.00    +0.000 C 
ENDROOT
BRANCH   1   6
ATOM      3  C   UNL     1      47.861   7.960  12.127  0.00  0.00    +0.000 C 
ATOM      4  C   UNL     1      47.291   6.748  12.815  0.00  0.00    +0.000 A 
ATOM      5  N   UNL     1      46.205   6.211  12.210  0.00  0.00    +0.000 NA
ATOM      6  C   UNL     1      45.602   5.151  12.781  0.00  0.00    +0.000 A 
ATOM      7  C   UNL     1      46.075   4.609  13.971  0.00  0.00    +0.000 A 
ATOM      8  C   UNL     1      47.203   5.143  14.628  0.00  0.00    +0.000 A 
ATOM      9  C   UNL     1      47.851   6.236  14.003  0.00  0.00    +0.000 A 
ATOM     10  C   UNL     1      49.098   6.895  14.537  0.00  0.00    +0.000 C 
BRANCH   8  11
ATOM     11  C   UNL     1      47.618   4.517  15.918  0.00  0.00    +0.000 A 
ATOM     12  C   UNL     1      48.084   3.192  15.999  0.00  0.00    +0.000 A 
ATOM     13  C   UNL     1      48.433   2.605  17.222  0.00  0.00    +0.000 A 
ATOM     14  C   UNL     1      48.410   3.359  18.389  0.00  0.00    +0.000 A 
ATOM     15  C   UNL     1      48.025   4.692  18.329  0.00  0.00    +0.000 A 
ATOM     16 CL   UNL     1      48.073   5.660  19.751  0.00  0.00    +0.000 Cl
ATOM     17  C   UNL     1      47.613   5.258  17.120  0.00  0.00    +0.000 A 
ENDBRANCH   8  11
ENDBRANCH   1   6
BRANCH   1  18
ATOM     18  C   UNL     1      43.831   5.424  10.945  0.00  0.00    +0.000 C 
BRANCH  18  19
ATOM     19  N   UNL     1      44.627   5.310   9.713  0.00  0.00    +0.000 N 
ATOM     20  H   UNL     1      45.356   6.028   9.713  0.00  0.00    +0.000 HD
BRANCH  19  21
ATOM     21  C   UNL     1      45.032   4.063   9.240  0.00  0.00    +0.000 A 
ATOM     22  C   UNL     1      44.439   2.854   9.611  0.00  0.00    +0.000 A 
ATOM     23  N   UNL     1      44.765   1.635   9.116  0.00  0.00    +0.000 NA
ATOM     24  C   UNL     1      45.719   1.615   8.160  0.00  0.00    +0.000 A 
ATOM     25  C   UNL     1      46.359   2.751   7.675  0.00  0.00    +0.000 A 
ATOM     26  C   UNL     1      45.993   3.987   8.220  0.00  0.00    +0.000 A 
BRANCH  25  27
ATOM     27  C   UNL     1      47.375   2.562   6.612  0.00  0.00    +0.000 C 
ATOM     28  N   UNL     1      47.176   3.128   5.385  0.00  0.00    +0.000 N 
ATOM     29  O   UNL     1      48.396   1.913   6.814  0.00  0.00    +0.000 OA
ATOM     30  H   UNL     1      46.375   3.683   5.125  0.00  0.00    +0.000 HD
ATOM     31  H   UNL     1      47.895   2.980   4.692  0.00  0.00    +0.000 HD
ENDBRANCH  25  27
ENDBRANCH  19  21
ENDBRANCH  18  19
ENDBRANCH   1  18
TORSDOF 6
ENDMDL
MODEL 4
REMARK VINA RESULT:    -7.660      2.628      3.813
REMARK INTER + INTRA:         -11.461
REMARK INTER:                 -10.479
REMARK INTRA:                  -0.982
REMARK UNBOUND:                -1.113
REMARK  Name = 
REMARK  9 active torsions:
REMARK  status: ('A' for Active; 'I' for Inactive)
REMARK    1  A    between atoms: C_1  and  C_2
REMARK    2  A    between atoms: C_4  and  C_5
REMARK    3  A    between atoms: C_5  and  C_6
REMARK    4  A    between atoms: C_5  and  C_7
REMARK    5  A    between atoms: C_7  and  N_8
REMARK    6  A    between atoms: N_8  and  C_9
REMARK    7  A    between atoms: C_13  and  C_14
REMARK    8  A    between atoms: C_19  and  C_20
REMARK    9  A    between atoms: C_27  and  C_28
REMARK                            x       y       z     vdW  Elec       q    Type
REMARK                         _______ _______ _______ _____ _____    ______ ____
ROOT
ATOM      1  C   UNL     1      45.347   5.231  11.762  0.00  0.00    +0.000 C 
ATOM      2  C   UNL     1      45.066   4.619  13.142  0.00  0.00    +0.000 C 
ENDROOT
BRANCH   1   6
ATOM      3  C   UNL     1      44.486  10.024  11.916  0.00  0.00    +0.000 C 
ATOM      4  C   UNL     1      45.530   8.940  11.940  0.00  0.00    +0.000 A 
ATOM      5  N   UNL     1      45.042   7.680  11.837  0.00  0.00    +0.000 NA
ATOM      6  C   UNL     1      45.900   6.645  11.896  0.00  0.00    +0.000 A 
ATOM      7  C   UNL     1      47.266   6.851  12.060  0.00  0.00    +0.000 A 
ATOM      8  C   UNL     1      47.809   8.148  12.169  0.00  0.00    +0.000 A 
ATOM      9  C   UNL     1      46.903   9.232  12.073  0.00  0.00    +0.000 A 
ATOM     10  C   UNL     1      47.315  10.682  12.116  0.00  0.00    +0.000 C 
BRANCH   8  11
ATOM     11  C   UNL     1      49.282   8.271  12.376  0.00  0.00    +0.000 A 
ATOM     12  C   UNL     1      49.856   8.420  13.651  0.00  0.00    +0.000 A 
ATOM     13  C   UNL     1      51.237   8.573  13.827  0.00  0.00    +0.000 A 
ATOM     14  C   UNL     1      52.091   8.493  12.734  0.00  0.00    +0.000 A 
ATOM     15  C   UNL     1      51.560   8.272  11.471  0.00  0.00    +0.000 A 
ATOM     16 CL   UNL     1      52.612   8.085  10.121  0.00  0.00    +0.000 Cl
ATOM     17  C   UNL     1      50.177   8.186  11.288  0.00  0.00    +0.000 A 
ENDBRANCH   8  11
ENDBRANCH   1   6
BRANCH   1  18
ATOM     18  C   UNL     1      44.059   5.158  10.906  0.00  0.00    +0.000 C 
BRANCH  18  19
ATOM     19  N   UNL     1      44.353   4.975   9.477  0.00  0.00    +0.000 N 
ATOM     20  H   UNL     1      44.729   5.846   9.094  0.00  0.00    +0.000 HD
BRANCH  19  21
ATOM     21  C   UNL     1      44.980   3.817   9.020  0.00  0.00    +0.000 A 
ATOM     22  C   UNL     1      44.719   2.538   9.518  0.00  0.00    +0.000 A 
ATOM     23  N   UNL     1      45.260   1.388   9.048  0.00  0.00    +0.000 NA
ATOM     24  C   UNL     1      46.089   1.507   7.987  0.00  0.00    +0.000 A 
ATOM     25  C   UNL     1      46.399   2.717   7.375  0.00  0.00    +0.000 A 
ATOM     26  C   UNL     1      45.821   3.879   7.899  0.00  0.00    +0.000 A 
BRANCH  25  27
ATOM     27  C   UNL     1      47.315   2.678   6.210  0.00  0.00    +0.000 C 
ATOM     28  N   UNL     1      48.662   2.587   6.419  0.00  0.00    +0.000 N 
ATOM     29  O   UNL     1      46.887   2.718   5.061  0.00  0.00    +0.000 OA
ATOM     30  H   UNL     1      49.108   2.542   7.323  0.00  0.00    +0.000 HD
ATOM     31  H   UNL     1      49.250   2.558   5.598  0.00  0.00    +0.000 HD
ENDBRANCH  25  27
ENDBRANCH  19  21
ENDBRANCH  18  19
ENDBRANCH   1  18
TORSDOF 6
ENDMDL
MODEL 5
REMARK VINA RESULT:    -7.413      4.091      7.591
REMARK INTER + INTRA:         -11.126
REMARK INTER:                  -9.874
REMARK INTRA:                  -1.252
REMARK UNBOUND:                -1.113
REMARK  Name = 
REMARK  9 active torsions:
REMARK  status: ('A' for Active; 'I' for Inactive)
REMARK    1  A    between atoms: C_1  and  C_2
REMARK    2  A    between atoms: C_4  and  C_5
REMARK    3  A    between atoms: C_5  and  C_6
REMARK    4  A    between atoms: C_5  and  C_7
REMARK    5  A    between atoms: C_7  and  N_8
REMARK    6  A    between atoms: N_8  and  C_9
REMARK    7  A    between atoms: C_13  and  C_14
REMARK    8  A    between atoms: C_19  and  C_20
REMARK    9  A    between atoms: C_27  and  C_28
REMARK                            x       y       z     vdW  Elec       q    Type
REMARK                         _______ _______ _______ _____ _____    ______ ____
ROOT
ATOM      1  C   UNL     1      48.998   7.628  12.631  0.00  0.00    +0.000 C 
ATOM      2  C   UNL     1      49.667   8.922  12.147  0.00  0.00    +0.000 C 
ENDROOT
BRANCH   1   6
ATOM      3  C   UNL     1      44.674   9.832  12.190  0.00  0.00    +0.000 C 
ATOM      4  C   UNL     1      45.462   8.567  11.971  0.00  0.00    +0.000 A 
ATOM      5  N   UNL     1      46.756   8.629  12.367  0.00  0.00    +0.000 NA
ATOM      6  C   UNL     1      47.547   7.559  12.167  0.00  0.00    +0.000 A 
ATOM      7  C   UNL     1      47.058   6.405  11.565  0.00  0.00    +0.000 A 
ATOM      8  C   UNL     1      45.717   6.305  11.141  0.00  0.00    +0.000 A 
ATOM      9  C   UNL     1      44.882   7.424  11.386  0.00  0.00    +0.000 A 
ATOM     10  C   UNL     1      43.414   7.471  11.047  0.00  0.00    +0.000 C 
BRANCH   8  11
ATOM     11  C   UNL     1      45.289   5.040  10.475  0.00  0.00    +0.000 A 
ATOM     12  C   UNL     1      44.434   4.111  11.094  0.00  0.00    +0.000 A 
ATOM     13  C   UNL     1      44.072   2.910  10.473  0.00  0.00    +0.000 A 
ATOM     14  C   UNL     1      44.488   2.645   9.174  0.00  0.00    +0.000 A 
ATOM     15  C   UNL     1      45.273   3.577   8.508  0.00  0.00    +0.000 A 
ATOM     16 CL   UNL     1      45.724   3.301   6.871  0.00  0.00    +0.000 Cl
ATOM     17  C   UNL     1      45.689   4.744   9.153  0.00  0.00    +0.000 A 
ENDBRANCH   8  11
ENDBRANCH   1   6
BRANCH   1  18
ATOM     18  C   UNL     1      49.153   7.525  14.168  0.00  0.00    +0.000 C 
BRANCH  18  19
ATOM     19  N   UNL     1      47.924   7.044  14.818  0.00  0.00    +0.000 N 
ATOM     20  H   UNL     1      47.115   7.302  14.246  0.00  0.00    +0.000 HD
BRANCH  19  21
ATOM     21  C   UNL     1      47.864   5.767  15.374  0.00  0.00    +0.000 A 
ATOM     22  C   UNL     1      47.332   4.653  14.721  0.00  0.00    +0.000 A 
ATOM     23  N   UNL     1      47.323   3.388  15.207  0.00  0.00    +0.000 NA
ATOM     24  C   UNL     1      47.915   3.206  16.408  0.00  0.00    +0.000 A 
ATOM     25  C   UNL     1      48.515   4.224  17.142  0.00  0.00    +0.000 A 
ATOM     26  C   UNL     1      48.495   5.515  16.601  0.00  0.00    +0.000 A 
BRANCH  25  27
ATOM     27  C   UNL     1      49.135   3.858  18.438  0.00  0.00    +0.000 C 
ATOM     28  N   UNL     1      48.418   3.128  19.342  0.00  0.00    +0.000 N 
ATOM     29  O   UNL     1      50.284   4.191  18.711  0.00  0.00    +0.000 OA
ATOM     30  H   UNL     1      47.473   2.802  19.206  0.00  0.00    +0.000 HD
ATOM     31  H   UNL     1      48.880   2.896  20.209  0.00  0.00    +0.000 HD
ENDBRANCH  25  27
ENDBRANCH  19  21
ENDBRANCH  18  19
ENDBRANCH   1  18
TORSDOF 6
ENDMDL
MODEL 6
REMARK VINA RESULT:    -7.043      4.035      7.651
REMARK INTER + INTRA:         -10.627
REMARK INTER:                  -9.059
REMARK INTRA:                  -1.568
REMARK UNBOUND:                -1.113
REMARK  Name = 
REMARK  9 active torsions:
REMARK  status: ('A' for Active; 'I' for Inactive)
REMARK    1  A    between atoms: C_1  and  C_2
REMARK    2  A    between atoms: C_4  and  C_5
REMARK    3  A    between atoms: C_5  and  C_6
REMARK    4  A    between atoms: C_5  and  C_7
REMARK    5  A    between atoms: C_7  and  N_8
REMARK    6  A    between atoms: N_8  and  C_9
REMARK    7  A    between atoms: C_13  and  C_14
REMARK    8  A    between atoms: C_19  and  C_20
REMARK    9  A    between atoms: C_27  and  C_28
REMARK                            x       y       z     vdW  Elec       q    Type
REMARK                         _______ _______ _______ _____ _____    ______ ____
ROOT
ATOM      1  C   UNL     1      49.610   7.479  12.837  0.00  0.00    +0.000 C 
ATOM      2  C   UNL     1      50.538   8.050  11.757  0.00  0.00    +0.000 C 
ENDROOT
BRANCH   1   6
ATOM      3  C   UNL     1      45.946  10.478  11.688  0.00  0.00    +0.000 C 
ATOM      4  C   UNL     1      46.367   9.052  11.923  0.00  0.00    +0.000 A 
ATOM      5  N   UNL     1      47.670   8.895  12.259  0.00  0.00    +0.000 NA
ATOM      6  C   UNL     1      48.147   7.649  12.443  0.00  0.00    +0.000 A 
ATOM      7  C   UNL     1      47.326   6.536  12.295  0.00  0.00    +0.000 A 
ATOM      8  C   UNL     1      45.966   6.663  11.948  0.00  0.00    +0.000 A 
ATOM      9  C   UNL     1      45.465   7.978  11.788  0.00  0.00    +0.000 A 
ATOM     10  C   UNL     1      44.027   8.300  11.470  0.00  0.00    +0.000 C 
BRANCH   8  11
ATOM     11  C   UNL     1      45.171   5.411  11.778  0.00  0.00    +0.000 A 
ATOM     12  C   UNL     1      44.326   4.910  12.785  0.00  0.00    +0.000 A 
ATOM     13  C   UNL     1      43.616   3.714  12.627  0.00  0.00    +0.000 A 
ATOM     14  C   UNL     1      43.664   3.029  11.419  0.00  0.00    +0.000 A 
ATOM     15  C   UNL     1      44.432   3.538  10.380  0.00  0.00    +0.000 A 
ATOM     16 CL   UNL     1      44.433   2.748   8.851  0.00  0.00    +0.000 Cl
ATOM     17  C   UNL     1      45.192   4.696  10.561  0.00  0.00    +0.000 A 
ENDBRANCH   8  11
ENDBRANCH   1   6
BRANCH   1  18
ATOM     18  C   UNL     1      49.955   8.133  14.197  0.00  0.00    +0.000 C 
BRANCH  18  19
ATOM     19  N   UNL     1      48.847   8.031  15.159  0.00  0.00    +0.000 N 
ATOM     20  H   UNL     1      47.959   8.151  14.665  0.00  0.00    +0.000 HD
BRANCH  19  21
ATOM     21  C   UNL     1      48.843   7.042  16.140  0.00  0.00    +0.000 A 
ATOM     22  C   UNL     1      49.150   7.270  17.484  0.00  0.00    +0.000 A 
ATOM     23  N   UNL     1      49.088   6.345  18.471  0.00  0.00    +0.000 NA
ATOM     24  C   UNL     1      48.655   5.116  18.112  0.00  0.00    +0.000 A 
ATOM     25  C   UNL     1      48.282   4.771  16.817  0.00  0.00    +0.000 A 
ATOM     26  C   UNL     1      48.368   5.758  15.830  0.00  0.00    +0.000 A 
BRANCH  25  27
ATOM     27  C   UNL     1      47.815   3.382  16.589  0.00  0.00    +0.000 C 
ATOM     28  N   UNL     1      47.021   2.780  17.521  0.00  0.00    +0.000 N 
ATOM     29  O   UNL     1      48.122   2.766  15.573  0.00  0.00    +0.000 OA
ATOM     30  H   UNL     1      46.710   3.205  18.382  0.00  0.00    +0.000 HD
ATOM     31  H   UNL     1      46.721   1.836  17.324  0.00  0.00    +0.000 HD
ENDBRANCH  25  27
ENDBRANCH  19  21
ENDBRANCH  18  19
ENDBRANCH   1  18
TORSDOF 6
ENDMDL
MODEL 7
REMARK VINA RESULT:    -6.846      4.887      7.731
REMARK INTER + INTRA:         -10.361
REMARK INTER:                  -8.801
REMARK INTRA:                  -1.559
REMARK UNBOUND:                -1.113
REMARK  Name = 
REMARK  9 active torsions:
REMARK  status: ('A' for Active; 'I' for Inactive)
REMARK    1  A    between atoms: C_1  and  C_2
REMARK    2  A    between atoms: C_4  and  C_5
REMARK    3  A    between atoms: C_5  and  C_6
REMARK    4  A    between atoms: C_5  and  C_7
REMARK    5  A    between atoms: C_7  and  N_8
REMARK    6  A    between atoms: N_8  and  C_9
REMARK    7  A    between atoms: C_13  and  C_14
REMARK    8  A    between atoms: C_19  and  C_20
REMARK    9  A    between atoms: C_27  and  C_28
REMARK                            x       y       z     vdW  Elec       q    Type
REMARK                         _______ _______ _______ _____ _____    ______ ____
ROOT
ATOM      1  C   UNL     1      49.667   8.532  17.590  0.00  0.00    +0.000 C 
ATOM      2  C   UNL     1      48.312   9.113  18.020  0.00  0.00    +0.000 C 
ENDROOT
BRANCH   1   6
ATOM      3  C   UNL     1      52.149   8.611  13.398  0.00  0.00    +0.000 C 
ATOM      4  C   UNL     1      50.833   8.313  14.067  0.00  0.00    +0.000 A 
ATOM      5  N   UNL     1      50.812   8.540  15.403  0.00  0.00    +0.000 NA
ATOM      6  C   UNL     1      49.690   8.258  16.091  0.00  0.00    +0.000 A 
ATOM      7  C   UNL     1      48.567   7.741  15.455  0.00  0.00    +0.000 A 
ATOM      8  C   UNL     1      48.553   7.493  14.067  0.00  0.00    +0.000 A 
ATOM      9  C   UNL     1      49.726   7.824  13.345  0.00  0.00    +0.000 A 
ATOM     10  C   UNL     1      49.868   7.674  11.852  0.00  0.00    +0.000 C 
BRANCH   8  11
ATOM     11  C   UNL     1      47.314   6.907  13.476  0.00  0.00    +0.000 A 
ATOM     12  C   UNL     1      46.307   7.697  12.895  0.00  0.00    +0.000 A 
ATOM     13  C   UNL     1      45.132   7.137  12.380  0.00  0.00    +0.000 A 
ATOM     14  C   UNL     1      44.972   5.756  12.353  0.00  0.00    +0.000 A 
ATOM     15  C   UNL     1      45.982   4.946  12.852  0.00  0.00    +0.000 A 
ATOM     16 CL   UNL     1      45.835   3.234  12.748  0.00  0.00    +0.000 Cl
ATOM     17  C   UNL     1      47.124   5.508  13.427  0.00  0.00    +0.000 A 
ENDBRANCH   8  11
ENDBRANCH   1   6
BRANCH   1  18
ATOM     18  C   UNL     1      49.972   7.278  18.445  0.00  0.00    +0.000 C 
BRANCH  18  19
ATOM     19  N   UNL     1      48.745   6.580  18.862  0.00  0.00    +0.000 N 
ATOM     20  H   UNL     1      47.974   7.251  18.912  0.00  0.00    +0.000 HD
BRANCH  19  21
ATOM     21  C   UNL     1      48.410   5.342  18.317  0.00  0.00    +0.000 A 
ATOM     22  C   UNL     1      47.117   4.981  17.930  0.00  0.00    +0.000 A 
ATOM     23  N   UNL     1      46.772   3.814  17.336  0.00  0.00    +0.000 NA
ATOM     24  C   UNL     1      47.783   2.958  17.071  0.00  0.00    +0.000 A 
ATOM     25  C   UNL     1      49.118   3.213  17.369  0.00  0.00    +0.000 A 
ATOM     26  C   UNL     1      49.425   4.430  17.988  0.00  0.00    +0.000 A 
BRANCH  25  27
ATOM     27  C   UNL     1      50.111   2.176  17.001  0.00  0.00    +0.000 C 
ATOM     28  N   UNL     1      51.134   1.893  17.859  0.00  0.00    +0.000 N 
ATOM     29  O   UNL     1      50.028   1.561  15.942  0.00  0.00    +0.000 OA
ATOM     30  H   UNL     1      51.283   2.337  18.753  0.00  0.00    +0.000 HD
ATOM     31  H   UNL     1      51.785   1.176  17.573  0.00  0.00    +0.000 HD
ENDBRANCH  25  27
ENDBRANCH  19  21
ENDBRANCH  18  19
ENDBRANCH   1  18
TORSDOF 6
ENDMDL
MODEL 8
REMARK VINA RESULT:    -6.839      4.048      7.582
REMARK INTER + INTRA:         -10.352
REMARK INTER:                  -9.622
REMARK INTRA:                  -0.730
REMARK UNBOUND:                -1.113
REMARK  Name = 
REMARK  9 active torsions:
REMARK  status: ('A' for Active; 'I' for Inactive)
REMARK    1  A    between atoms: C_1  and  C_2
REMARK    2  A    between atoms: C_4  and  C_5
REMARK    3  A    between atoms: C_5  and  C_6
REMARK    4  A    between atoms: C_5  and  C_7
REMARK    5  A    between atoms: C_7  and  N_8
REMARK    6  A    between atoms: N_8  and  C_9
REMARK    7  A    between atoms: C_13  and  C_14
REMARK    8  A    between atoms: C_19  and  C_20
REMARK    9  A    between atoms: C_27  and  C_28
REMARK                            x       y       z     vdW  Elec       q    Type
REMARK                         _______ _______ _______ _____ _____    ______ ____
ROOT
ATOM      1  C   UNL     1      46.229   7.889  11.921  0.00  0.00    +0.000 C 
ATOM      2  C   UNL     1      45.218   9.044  11.906  0.00  0.00    +0.000 C 
ENDROOT
BRANCH   1   6
ATOM      3  C   UNL     1      42.881   4.576  13.170  0.00  0.00    +0.000 C 
ATOM      4  C   UNL     1      43.978   4.943  12.207  0.00  0.00    +0.000 A 
ATOM      5  N   UNL     1      44.580   6.131  12.460  0.00  0.00    +0.000 NA
ATOM      6  C   UNL     1      45.543   6.561  11.622  0.00  0.00    +0.000 A 
ATOM      7  C   UNL     1      45.921   5.811  10.514  0.00  0.00    +0.000 A 
ATOM      8  C   UNL     1      45.316   4.571  10.221  0.00  0.00    +0.000 A 
ATOM      9  C   UNL     1      44.328   4.110  11.125  0.00  0.00    +0.000 A 
ATOM     10  C   UNL     1      43.618   2.786  10.996  0.00  0.00    +0.000 C 
BRANCH   8  11
ATOM     11  C   UNL     1      45.763   3.852   8.992  0.00  0.00    +0.000 A 
ATOM     12  C   UNL     1      46.158   4.527   7.823  0.00  0.00    +0.000 A 
ATOM     13  C   UNL     1      46.537   3.838   6.664  0.00  0.00    +0.000 A 
ATOM     14  C   UNL     1      46.616   2.451   6.672  0.00  0.00    +0.000 A 
ATOM     15  C   UNL     1      46.304   1.760   7.835  0.00  0.00    +0.000 A 
ATOM     16 CL   UNL     1      46.480   0.048   7.885  0.00  0.00    +0.000 Cl
ATOM     17  C   UNL     1      45.861   2.443   8.970  0.00  0.00    +0.000 A 
ENDBRANCH   8  11
ENDBRANCH   1   6
BRANCH   1  18
ATOM     18  C   UNL     1      46.982   7.896  13.274  0.00  0.00    +0.000 C 
BRANCH  18  19
ATOM     19  N   UNL     1      47.867   6.730  13.421  0.00  0.00    +0.000 N 
ATOM     20  H   UNL     1      48.827   7.002  13.196  0.00  0.00    +0.000 HD
BRANCH  19  21
ATOM     21  C   UNL     1      47.741   5.873  14.513  0.00  0.00    +0.000 A 
ATOM     22  C   UNL     1      47.028   4.672  14.487  0.00  0.00    +0.000 A 
ATOM     23  N   UNL     1      46.946   3.786  15.509  0.00  0.00    +0.000 NA
ATOM     24  C   UNL     1      47.649   4.091  16.622  0.00  0.00    +0.000 A 
ATOM     25  C   UNL     1      48.429   5.235  16.760  0.00  0.00    +0.000 A 
ATOM     26  C   UNL     1      48.479   6.123  15.680  0.00  0.00    +0.000 A 
BRANCH  25  27
ATOM     27  C   UNL     1      49.151   5.419  18.042  0.00  0.00    +0.000 C 
ATOM     28  N   UNL     1      49.197   6.657  18.614  0.00  0.00    +0.000 N 
ATOM     29  O   UNL     1      49.704   4.478  18.602  0.00  0.00    +0.000 OA
ATOM     30  H   UNL     1      48.769   7.488  18.236  0.00  0.00    +0.000 HD
ATOM     31  H   UNL     1      49.694   6.737  19.490  0.00  0.00    +0.000 HD
ENDBRANCH  25  27
ENDBRANCH  19  21
ENDBRANCH  18  19
ENDBRANCH   1  18
TORSDOF 6
ENDMDL
MODEL 9
REMARK VINA RESULT:    -6.716      4.191      7.083
REMARK INTER + INTRA:         -10.185
REMARK INTER:                  -8.525
REMARK INTRA:                  -1.660
REMARK UNBOUND:                -1.113
REMARK  Name = 
REMARK  9 active torsions:
REMARK  status: ('A' for Active; 'I' for Inactive)
REMARK    1  A    between atoms: C_1  and  C_2
REMARK    2  A    between atoms: C_4  and  C_5
REMARK    3  A    between atoms: C_5  and  C_6
REMARK    4  A    between atoms: C_5  and  C_7
REMARK    5  A    between atoms: C_7  and  N_8
REMARK    6  A    between atoms: N_8  and  C_9
REMARK    7  A    between atoms: C_13  and  C_14
REMARK    8  A    between atoms: C_19  and  C_20
REMARK    9  A    between atoms: C_27  and  C_28
REMARK                            x       y       z     vdW  Elec       q    Type
REMARK                         _______ _______ _______ _____ _____    ______ ____
ROOT
ATOM      1  C   UNL     1      49.448   9.279  13.944  0.00  0.00    +0.000 C 
ATOM      2  C   UNL     1      50.605   8.470  13.342  0.00  0.00    +0.000 C 
ENDROOT
BRANCH   1   6
ATOM      3  C   UNL     1      47.679  10.126  18.404  0.00  0.00    +0.000 C 
ATOM      4  C   UNL     1      48.241   9.101  17.456  0.00  0.00    +0.000 A 
ATOM      5  N   UNL     1      48.582   9.583  16.236  0.00  0.00    +0.000 NA
ATOM      6  C   UNL     1      49.050   8.728  15.309  0.00  0.00    +0.000 A 
ATOM      7  C   UNL     1      49.187   7.371  15.584  0.00  0.00    +0.000 A 
ATOM      8  C   UNL     1      48.843   6.835  16.842  0.00  0.00    +0.000 A 
ATOM      9  C   UNL     1      48.383   7.747  17.823  0.00  0.00    +0.000 A 
ATOM     10  C   UNL     1      48.022   7.357  19.234  0.00  0.00    +0.000 C 
BRANCH   8  11
ATOM     11  C   UNL     1      48.992   5.363  17.036  0.00  0.00    +0.000 A 
ATOM     12  C   UNL     1      47.926   4.465  16.850  0.00  0.00    +0.000 A 
ATOM     13  C   UNL     1      48.070   3.090  17.073  0.00  0.00    +0.000 A 
ATOM     14  C   UNL     1      49.313   2.564  17.405  0.00  0.00    +0.000 A 
ATOM     15  C   UNL     1      50.402   3.418  17.523  0.00  0.00    +0.000 A 
ATOM     16 CL   UNL     1      51.963   2.771  17.849  0.00  0.00    +0.000 Cl
ATOM     17  C   UNL     1      50.243   4.796  17.366  0.00  0.00    +0.000 A 
ENDBRANCH   8  11
ENDBRANCH   1   6
BRANCH   1  18
ATOM     18  C   UNL     1      48.275   9.311  12.933  0.00  0.00    +0.000 C 
BRANCH  18  19
ATOM     19  N   UNL     1      48.152   8.049  12.188  0.00  0.00    +0.000 N 
ATOM     20  H   UNL     1      49.039   7.541  12.232  0.00  0.00    +0.000 HD
BRANCH  19  21
ATOM     21  C   UNL     1      47.015   7.253  12.315  0.00  0.00    +0.000 A 
ATOM     22  C   UNL     1      45.722   7.680  12.004  0.00  0.00    +0.000 A 
ATOM     23  N   UNL     1      44.608   6.910  12.052  0.00  0.00    +0.000 NA
ATOM     24  C   UNL     1      44.791   5.616  12.396  0.00  0.00    +0.000 A 
ATOM     25  C   UNL     1      46.030   5.058  12.691  0.00  0.00    +0.000 A 
ATOM     26  C   UNL     1      47.151   5.893  12.634  0.00  0.00    +0.000 A 
BRANCH  25  27
ATOM     27  C   UNL     1      46.065   3.617  13.038  0.00  0.00    +0.000 C 
ATOM     28  N   UNL     1      45.090   2.788  12.561  0.00  0.00    +0.000 N 
ATOM     29  O   UNL     1      46.958   3.151  13.740  0.00  0.00    +0.000 OA
ATOM     30  H   UNL     1      44.322   3.074  11.973  0.00  0.00    +0.000 HD
ATOM     31  H   UNL     1      45.155   1.813  12.816  0.00  0.00    +0.000 HD
ENDBRANCH  25  27
ENDBRANCH  19  21
ENDBRANCH  18  19
ENDBRANCH   1  18
TORSDOF 6
ENDMDL
