MODEL 1
REMARK VINA RESULT:    -8.873      0.000      0.000
REMARK INTER + INTRA:         -13.198
REMARK INTER:                 -12.504
REMARK INTRA:                  -0.693
REMARK UNBOUND:                -0.693
REMARK  Name = 
REMARK  8 active torsions:
REMARK  status: ('A' for Active; 'I' for Inactive)
REMARK    1  A    between atoms: C_1  and  C_2
REMARK    2  A    between atoms: C_2  and  N_3
REMARK    3  A    between atoms: C_2  and  C_25
REMARK    4  A    between atoms: N_3  and  C_4
REMARK    5  A    between atoms: C_4  and  C_5
REMARK    6  A    between atoms: C_9  and  C_10
REMARK    7  A    between atoms: C_10  and  N_11
REMARK    8  A    between atoms: C_12  and  C_14
REMARK                            x       y       z     vdW  Elec       q    Type
REMARK                         _______ _______ _______ _____ _____    ______ ____
ROOT
ATOM      1  C   UNL     1      44.935   6.098  11.843  0.00  0.00    +0.000 A 
ATOM      2  C   UNL     1      45.994   6.906  11.444  0.00  0.00    +0.000 A 
ATOM      3  C   UNL     1      47.176   6.865  12.173  0.00  0.00    +0.000 A 
ATOM      4  C   UNL     1      47.272   6.021  13.274  0.00  0.00    +0.000 A 
ATOM      5  C   UNL     1      46.182   5.223  13.612  0.00  0.00    +0.000 A 
ATOM      6  N   UNL     1      45.022   5.261  12.913  0.00  0.00    +0.000 NA
ENDROOT
BRANCH   1   7
ATOM      7  C   UNL     1      43.642   6.093  11.051  0.00  0.00    +0.000 C 
BRANCH   7   8
ATOM      8  N   UNL     1      43.596   5.003  10.076  0.00  0.00    +0.000 NA
ATOM      9  H   UNL     1      43.883   5.353   9.165  0.00  0.00    +0.000 HD
BRANCH   8  11
ATOM     10  C   UNL     1      43.521   2.660  10.926  0.00  0.00    +0.000 C 
ATOM     11  C   UNL     1      44.387   3.827  10.438  0.00  0.00    +0.000 C 
BRANCH  11  12
ATOM     12  C   UNL     1      45.237   3.376   9.251  0.00  0.00    +0.000 A 
ATOM     13  C   UNL     1      45.737   4.321   8.342  0.00  0.00    +0.000 A 
ATOM     14  C   UNL     1      46.510   3.922   7.247  0.00  0.00    +0.000 A 
ATOM     15  C   UNL     1      46.791   2.570   7.043  0.00  0.00    +0.000 A 
ATOM     16  C   UNL     1      46.310   1.624   7.944  0.00  0.00    +0.000 A 
ATOM     17 CL   UNL     1      46.633  -0.050   7.689  0.00  0.00    +0.000 Cl
ATOM     18  C   UNL     1      45.551   2.018   9.047  0.00  0.00    +0.000 A 
ENDBRANCH  11  12
ENDBRANCH   8  11
ENDBRANCH   7   8
ENDBRANCH   1   7
BRANCH   5  19
ATOM     19  C   UNL     1      46.252   4.281  14.792  0.00  0.00    +0.000 C 
BRANCH  19  20
ATOM     20  N   UNL     1      47.356   4.591  15.677  0.00  0.00    +0.000 N 
ATOM     21  C   UNL     1      47.453   4.020  16.920  0.00  0.00    +0.000 C 
ATOM     22  O   UNL     1      46.662   3.161  17.305  0.00  0.00    +0.000 OA
ATOM     23  H   UNL     1      47.839   5.466  15.491  0.00  0.00    +0.000 HD
BRANCH  21  24
ATOM     24  C   UNL     1      48.591   4.423  17.752  0.00  0.00    +0.000 A 
ATOM     25  C   UNL     1      48.500   5.578  18.520  0.00  0.00    +0.000 A 
ATOM     26  S   UNL     1      49.902   5.908  19.432  0.00  0.00    +0.000 S 
ATOM     27  C   UNL     1      50.698   4.544  18.801  0.00  0.00    +0.000 A 
ATOM     28  N   UNL     1      51.983   4.262  19.148  0.00  0.00    +0.000 NA
ATOM     29  C   UNL     1      52.472   3.214  18.570  0.00  0.00    +0.000 A 
ATOM     30  N   UNL     1      51.790   2.412  17.693  0.00  0.00    +0.000 N 
ATOM     31  C   UNL     1      50.474   2.635  17.346  0.00  0.00    +0.000 A 
ATOM     32  O   UNL     1      49.865   1.867  16.615  0.00  0.00    +0.000 OA
ATOM     33  C   UNL     1      49.892   3.824  17.936  0.00  0.00    +0.000 A 
ATOM     34  H   UNL     1      52.224   1.594  17.290  0.00  0.00    +0.000 HD
ENDBRANCH  21  24
ENDBRANCH  19  20
ENDBRANCH   5  19
TORSDOF 7
ENDMDL
MODEL 2
REMARK VINA RESULT:    -7.965      4.124      9.810
REMARK INTER + INTRA:         -11.917
REMARK INTER:                 -10.322
REMARK INTRA:                  -1.595
REMARK UNBOUND:                -0.693
REMARK  Name = 
REMARK  8 active torsions:
REMARK  status: ('A' for Active; 'I' for Inactive)
REMARK    1  A    between atoms: C_1  and  C_2
REMARK    2  A    between atoms: C_2  and  N_3
REMARK    3  A    between atoms: C_2  and  C_25
REMARK    4  A    between atoms: N_3  and  C_4
REMARK    5  A    between atoms: C_4  and  C_5
REMARK    6  A    between atoms: C_9  and  C_10
REMARK    7  A    between atoms: C_10  and  N_11
REMARK    8  A    between atoms: C_12  and  C_14
REMARK                            x       y       z     vdW  Elec       q    Type
REMARK                         _______ _______ _______ _____ _____    ______ ____
ROOT
ATOM      1  C   UNL     1      50.039   4.005  17.644  0.00  0.00    +0.000 A 
ATOM      2  C   UNL     1      49.093   3.073  18.057  0.00  0.00    +0.000 A 
ATOM      3  C   UNL     1      47.800   3.168  17.557  0.00  0.00    +0.000 A 
ATOM      4  C   UNL     1      47.485   4.184  16.661  0.00  0.00    +0.000 A 
ATOM      5  C   UNL     1      48.482   5.075  16.272  0.00  0.00    +0.000 A 
ATOM      6  N   UNL     1      49.744   4.997  16.760  0.00  0.00    +0.000 NA
ENDROOT
BRANCH   1   7
ATOM      7  C   UNL     1      51.467   3.911  18.145  0.00  0.00    +0.000 C 
BRANCH   7   8
ATOM      8  N   UNL     1      51.545   3.976  19.604  0.00  0.00    +0.000 NA
ATOM      9  H   UNL     1      52.395   3.512  19.917  0.00  0.00    +0.000 HD
BRANCH   8  11
ATOM     10  C   UNL     1      52.110   6.379  19.241  0.00  0.00    +0.000 C 
ATOM     11  C   UNL     1      51.475   5.328  20.160  0.00  0.00    +0.000 C 
BRANCH  11  12
ATOM     12  C   UNL     1      50.023   5.707  20.447  0.00  0.00    +0.000 A 
ATOM     13  C   UNL     1      49.261   4.946  21.349  0.00  0.00    +0.000 A 
ATOM     14  C   UNL     1      47.928   5.276  21.616  0.00  0.00    +0.000 A 
ATOM     15  C   UNL     1      47.338   6.370  20.983  0.00  0.00    +0.000 A 
ATOM     16  C   UNL     1      48.086   7.139  20.096  0.00  0.00    +0.000 A 
ATOM     17 CL   UNL     1      47.358   8.480  19.293  0.00  0.00    +0.000 Cl
ATOM     18  C   UNL     1      49.420   6.824  19.838  0.00  0.00    +0.000 A 
ENDBRANCH  11  12
ENDBRANCH   8  11
ENDBRANCH   7   8
ENDBRANCH   1   7
BRANCH   5  19
ATOM     19  C   UNL     1      48.185   6.184  15.288  0.00  0.00    +0.000 C 
BRANCH  19  20
ATOM     20  N   UNL     1      47.014   5.903  14.483  0.00  0.00    +0.000 N 
ATOM     21  C   UNL     1      46.920   6.343  13.188  0.00  0.00    +0.000 C 
ATOM     22  O   UNL     1      47.850   6.915  12.626  0.00  0.00    +0.000 OA
ATOM     23  H   UNL     1      46.166   5.684  14.999  0.00  0.00    +0.000 HD
BRANCH  21  24
ATOM     24  C   UNL     1      45.679   6.034  12.468  0.00  0.00    +0.000 A 
ATOM     25  C   UNL     1      44.955   7.066  11.883  0.00  0.00    +0.000 A 
ATOM     26  S   UNL     1      43.543   6.544  11.082  0.00  0.00    +0.000 S 
ATOM     27  C   UNL     1      43.824   4.927  11.526  0.00  0.00    +0.000 A 
ATOM     28  N   UNL     1      42.945   3.947  11.186  0.00  0.00    +0.000 NA
ATOM     29  C   UNL     1      43.269   2.770  11.614  0.00  0.00    +0.000 A 
ATOM     30  N   UNL     1      44.399   2.482  12.333  0.00  0.00    +0.000 N 
ATOM     31  C   UNL     1      45.338   3.436  12.663  0.00  0.00    +0.000 A 
ATOM     32  O   UNL     1      46.372   3.143  13.246  0.00  0.00    +0.000 OA
ATOM     33  C   UNL     1      45.000   4.781  12.241  0.00  0.00    +0.000 A 
ATOM     34  H   UNL     1      44.605   1.536  12.622  0.00  0.00    +0.000 HD
ENDBRANCH  21  24
ENDBRANCH  19  20
ENDBRANCH   5  19
TORSDOF 7
ENDMDL
MODEL 3
REMARK VINA RESULT:    -7.951      3.710      6.772
REMARK INTER + INTRA:         -11.897
REMARK INTER:                 -10.010
REMARK INTRA:                  -1.887
REMARK UNBOUND:                -0.693
REMARK  Name = 
REMARK  8 active torsions:
REMARK  status: ('A' for Active; 'I' for Inactive)
REMARK    1  A    between atoms: C_1  and  C_2
REMARK    2  A    between atoms: C_2  and  N_3
REMARK    3  A    between atoms: C_2  and  C_25
REMARK    4  A    between atoms: N_3  and  C_4
REMARK    5  A    between atoms: C_4  and  C_5
REMARK    6  A    between atoms: C_9  and  C_10
REMARK    7  A    between atoms: C_10  and  N_11
REMARK    8  A    between atoms: C_12  and  C_14
REMARK                            x       y       z     vdW  Elec       q    Type
REMARK                         _______ _______ _______ _____ _____    ______ ____
ROOT
ATOM      1  C   UNL     1      47.350   4.810  14.992  0.00  0.00    +0.000 A 
ATOM      2  C   UNL     1      47.445   4.314  16.288  0.00  0.00    +0.000 A 
ATOM      3  C   UNL     1      48.316   4.932  17.177  0.00  0.00    +0.000 A 
ATOM      4  C   UNL     1      49.064   6.026  16.754  0.00  0.00    +0.000 A 
ATOM      5  C   UNL     1      48.909   6.486  15.449  0.00  0.00    +0.000 A 
ATOM      6  N   UNL     1      48.069   5.885  14.571  0.00  0.00    +0.000 NA
ENDROOT
BRANCH   1   7
ATOM      7  C   UNL     1      46.386   4.179  14.006  0.00  0.00    +0.000 C 
BRANCH   7   8
ATOM      8  N   UNL     1      45.301   5.089  13.637  0.00  0.00    +0.000 NA
ATOM      9  H   UNL     1      45.689   5.900  13.162  0.00  0.00    +0.000 HD
BRANCH   8  11
ATOM     10  C   UNL     1      42.944   5.292  12.847  0.00  0.00    +0.000 C 
ATOM     11  C   UNL     1      44.246   4.483  12.824  0.00  0.00    +0.000 C 
BRANCH  11  12
ATOM     12  C   UNL     1      44.721   4.314  11.382  0.00  0.00    +0.000 A 
ATOM     13  C   UNL     1      45.170   5.427  10.652  0.00  0.00    +0.000 A 
ATOM     14  C   UNL     1      45.601   5.288   9.328  0.00  0.00    +0.000 A 
ATOM     15  C   UNL     1      45.585   4.035   8.715  0.00  0.00    +0.000 A 
ATOM     16  C   UNL     1      45.153   2.923   9.432  0.00  0.00    +0.000 A 
ATOM     17 CL   UNL     1      45.110   1.374   8.674  0.00  0.00    +0.000 Cl
ATOM     18  C   UNL     1      44.737   3.053  10.757  0.00  0.00    +0.000 A 
ENDBRANCH  11  12
ENDBRANCH   8  11
ENDBRANCH   7   8
ENDBRANCH   1   7
BRANCH   5  19
ATOM     19  C   UNL     1      49.692   7.681  14.954  0.00  0.00    +0.000 C 
BRANCH  19  20
ATOM     20  N   UNL     1      48.871   8.594  14.185  0.00  0.00    +0.000 N 
ATOM     21  C   UNL     1      49.076   8.774  12.841  0.00  0.00    +0.000 C 
ATOM     22  O   UNL     1      49.902   8.114  12.215  0.00  0.00    +0.000 OA
ATOM     23  H   UNL     1      48.394   9.316  14.719  0.00  0.00    +0.000 HD
BRANCH  21  24
ATOM     24  C   UNL     1      48.213   9.744  12.159  0.00  0.00    +0.000 A 
ATOM     25  C   UNL     1      48.789  10.801  11.465  0.00  0.00    +0.000 A 
ATOM     26  S   UNL     1      47.653  11.836  10.726  0.00  0.00    +0.000 S 
ATOM     27  C   UNL     1      46.350  10.934  11.343  0.00  0.00    +0.000 A 
ATOM     28  N   UNL     1      45.065  11.316  11.112  0.00  0.00    +0.000 NA
ATOM     29  C   UNL     1      44.177  10.556  11.665  0.00  0.00    +0.000 A 
ATOM     30  N   UNL     1      44.455   9.442  12.412  0.00  0.00    +0.000 N 
ATOM     31  C   UNL     1      45.739   8.994  12.636  0.00  0.00    +0.000 A 
ATOM     32  O   UNL     1      45.960   7.959  13.248  0.00  0.00    +0.000 OA
ATOM     33  C   UNL     1      46.775   9.836  12.070  0.00  0.00    +0.000 A 
ATOM     34  H   UNL     1      43.713   8.878  12.802  0.00  0.00    +0.000 HD
ENDBRANCH  21  24
ENDBRANCH  19  20
ENDBRANCH   5  19
TORSDOF 7
ENDMDL
MODEL 4
REMARK VINA RESULT:    -7.820      3.985      8.108
REMARK INTER + INTRA:         -11.713
REMARK INTER:                 -10.177
REMARK INTRA:                  -1.536
REMARK UNBOUND:                -0.693
REMARK  Name = 
REMARK  8 active torsions:
REMARK  status: ('A' for Active; 'I' for Inactive)
REMARK    1  A    between atoms: C_1  and  C_2
REMARK    2  A    between atoms: C_2  and  N_3
REMARK    3  A    between atoms: C_2  and  C_25
REMARK    4  A    between atoms: N_3  and  C_4
REMARK    5  A    between atoms: C_4  and  C_5
REMARK    6  A    between atoms: C_9  and  C_10
REMARK    7  A    between atoms: C_10  and  N_11
REMARK    8  A    between atoms: C_12  and  C_14
REMARK                            x       y       z     vdW  Elec       q    Type
REMARK                         _______ _______ _______ _____ _____    ______ ____
ROOT
ATOM      1  C   UNL     1      50.535   5.243  16.961  0.00  0.00    +0.000 A 
ATOM      2  C   UNL     1      51.402   4.286  17.480  0.00  0.00    +0.000 A 
ATOM      3  C   UNL     1      50.900   3.027  17.784  0.00  0.00    +0.000 A 
ATOM      4  C   UNL     1      49.554   2.754  17.561  0.00  0.00    +0.000 A 
ATOM      5  C   UNL     1      48.743   3.749  17.022  0.00  0.00    +0.000 A 
ATOM      6  N   UNL     1      49.220   4.984  16.730  0.00  0.00    +0.000 NA
ENDROOT
BRANCH   1   7
ATOM      7  C   UNL     1      51.057   6.618  16.588  0.00  0.00    +0.000 C 
BRANCH   7   8
ATOM      8  N   UNL     1      50.593   7.044  15.267  0.00  0.00    +0.000 NA
ATOM      9  H   UNL     1      50.120   6.268  14.810  0.00  0.00    +0.000 HD
BRANCH   8  11
ATOM     10  C   UNL     1      50.280   9.350  16.164  0.00  0.00    +0.000 C 
ATOM     11  C   UNL     1      49.733   8.227  15.274  0.00  0.00    +0.000 C 
BRANCH  11  12
ATOM     12  C   UNL     1      49.537   8.747  13.851  0.00  0.00    +0.000 A 
ATOM     13  C   UNL     1      50.138   8.084  12.769  0.00  0.00    +0.000 A 
ATOM     14  C   UNL     1      49.974   8.553  11.461  0.00  0.00    +0.000 A 
ATOM     15  C   UNL     1      49.209   9.695  11.218  0.00  0.00    +0.000 A 
ATOM     16  C   UNL     1      48.598  10.354  12.282  0.00  0.00    +0.000 A 
ATOM     17 CL   UNL     1      47.669  11.778  11.993  0.00  0.00    +0.000 Cl
ATOM     18  C   UNL     1      48.746   9.881  13.586  0.00  0.00    +0.000 A 
ENDBRANCH  11  12
ENDBRANCH   8  11
ENDBRANCH   7   8
ENDBRANCH   1   7
BRANCH   5  19
ATOM     19  C   UNL     1      47.279   3.488  16.749  0.00  0.00    +0.000 C 
BRANCH  19  20
ATOM     20  N   UNL     1      46.727   4.414  15.781  0.00  0.00    +0.000 N 
ATOM     21  C   UNL     1      46.756   4.138  14.438  0.00  0.00    +0.000 C 
ATOM     22  O   UNL     1      47.170   3.066  14.003  0.00  0.00    +0.000 OA
ATOM     23  H   UNL     1      46.641   5.378  16.091  0.00  0.00    +0.000 HD
BRANCH  21  24
ATOM     24  C   UNL     1      46.202   5.153  13.537  0.00  0.00    +0.000 A 
ATOM     25  C   UNL     1      46.921   6.317  13.295  0.00  0.00    +0.000 A 
ATOM     26  S   UNL     1      46.143   7.394  12.225  0.00  0.00    +0.000 S 
ATOM     27  C   UNL     1      44.798   6.363  12.081  0.00  0.00    +0.000 A 
ATOM     28  N   UNL     1      43.724   6.719  11.326  0.00  0.00    +0.000 NA
ATOM     29  C   UNL     1      42.762   5.855  11.330  0.00  0.00    +0.000 A 
ATOM     30  N   UNL     1      42.782   4.663  12.005  0.00  0.00    +0.000 N 
ATOM     31  C   UNL     1      43.866   4.243  12.748  0.00  0.00    +0.000 A 
ATOM     32  O   UNL     1      43.888   3.145  13.285  0.00  0.00    +0.000 OA
ATOM     33  C   UNL     1      44.956   5.196  12.807  0.00  0.00    +0.000 A 
ATOM     34  H   UNL     1      42.004   4.021  11.953  0.00  0.00    +0.000 HD
ENDBRANCH  21  24
ENDBRANCH  19  20
ENDBRANCH   5  19
TORSDOF 7
ENDMDL
MODEL 5
REMARK VINA RESULT:    -7.802      4.355      7.131
REMARK INTER + INTRA:         -11.688
REMARK INTER:                 -10.959
REMARK INTRA:                  -0.729
REMARK UNBOUND:                -0.693
REMARK  Name = 
REMARK  8 active torsions:
REMARK  status: ('A' for Active; 'I' for Inactive)
REMARK    1  A    between atoms: C_1  and  C_2
REMARK    2  A    between atoms: C_2  and  N_3
REMARK    3  A    between atoms: C_2  and  C_25
REMARK    4  A    between atoms: N_3  and  C_4
REMARK    5  A    between atoms: C_4  and  C_5
REMARK    6  A    between atoms: C_9  and  C_10
REMARK    7  A    between atoms: C_10  and  N_11
REMARK    8  A    between atoms: C_12  and  C_14
REMARK                            x       y       z     vdW  Elec       q    Type
REMARK                         _______ _______ _______ _____ _____    ______ ____
ROOT
ATOM      1  C   UNL     1      46.863   2.083   6.052  0.00  0.00    +0.000 A 
ATOM      2  C   UNL     1      47.003   0.890   6.755  0.00  0.00    +0.000 A 
ATOM      3  C   UNL     1      46.466   0.802   8.033  0.00  0.00    +0.000 A 
ATOM      4  C   UNL     1      45.801   1.899   8.574  0.00  0.00    +0.000 A 
ATOM      5  C   UNL     1      45.679   3.058   7.812  0.00  0.00    +0.000 A 
ATOM      6  N   UNL     1      46.207   3.157   6.567  0.00  0.00    +0.000 NA
ENDROOT
BRANCH   1   7
ATOM      7  C   UNL     1      47.410   2.202   4.643  0.00  0.00    +0.000 C 
BRANCH   7   8
ATOM      8  N   UNL     1      47.721   0.897   4.059  0.00  0.00    +0.000 NA
ATOM      9  H   UNL     1      48.342   0.388   4.684  0.00  0.00    +0.000 HD
BRANCH   8  11
ATOM     10  C   UNL     1      45.754   0.637   2.548  0.00  0.00    +0.000 C 
ATOM     11  C   UNL     1      46.552   0.080   3.733  0.00  0.00    +0.000 C 
BRANCH  11  12
ATOM     12  C   UNL     1      46.978  -1.357   3.436  0.00  0.00    +0.000 A 
ATOM     13  C   UNL     1      47.786  -1.639   2.323  0.00  0.00    +0.000 A 
ATOM     14  C   UNL     1      48.177  -2.950   2.035  0.00  0.00    +0.000 A 
ATOM     15  C   UNL     1      47.761  -4.000   2.855  0.00  0.00    +0.000 A 
ATOM     16  C   UNL     1      46.969  -3.733   3.968  0.00  0.00    +0.000 A 
ATOM     17 CL   UNL     1      46.433  -5.027   4.974  0.00  0.00    +0.000 Cl
ATOM     18  C   UNL     1      46.589  -2.425   4.269  0.00  0.00    +0.000 A 
ENDBRANCH  11  12
ENDBRANCH   8  11
ENDBRANCH   7   8
ENDBRANCH   1   7
BRANCH   5  19
ATOM     19  C   UNL     1      44.951   4.266   8.356  0.00  0.00    +0.000 C 
BRANCH  19  20
ATOM     20  N   UNL     1      45.631   4.849   9.495  0.00  0.00    +0.000 N 
ATOM     21  C   UNL     1      44.945   5.204  10.627  0.00  0.00    +0.000 C 
ATOM     22  O   UNL     1      43.746   4.969  10.762  0.00  0.00    +0.000 OA
ATOM     23  H   UNL     1      46.529   5.284   9.297  0.00  0.00    +0.000 HD
BRANCH  21  24
ATOM     24  C   UNL     1      45.720   5.816  11.712  0.00  0.00    +0.000 A 
ATOM     25  C   UNL     1      46.032   7.169  11.649  0.00  0.00    +0.000 A 
ATOM     26  S   UNL     1      46.932   7.727  12.985  0.00  0.00    +0.000 S 
ATOM     27  C   UNL     1      46.975   6.174  13.674  0.00  0.00    +0.000 A 
ATOM     28  N   UNL     1      47.644   5.943  14.835  0.00  0.00    +0.000 NA
ATOM     29  C   UNL     1      47.619   4.711  15.228  0.00  0.00    +0.000 A 
ATOM     30  N   UNL     1      46.973   3.694  14.576  0.00  0.00    +0.000 N 
ATOM     31  C   UNL     1      46.248   3.890  13.420  0.00  0.00    +0.000 A 
ATOM     32  O   UNL     1      45.622   2.980  12.893  0.00  0.00    +0.000 OA
ATOM     33  C   UNL     1      46.279   5.249  12.916  0.00  0.00    +0.000 A 
ATOM     34  H   UNL     1      46.975   2.754  14.946  0.00  0.00    +0.000 HD
ENDBRANCH  21  24
ENDBRANCH  19  20
ENDBRANCH   5  19
TORSDOF 7
ENDMDL
MODEL 6
REMARK VINA RESULT:    -7.790      1.699      2.166
REMARK INTER + INTRA:         -11.671
REMARK INTER:                 -10.686
REMARK INTRA:                  -0.985
REMARK UNBOUND:                -0.693
REMARK  Name = 
REMARK  8 active torsions:
REMARK  status: ('A' for Active; 'I' for Inactive)
REMARK    1  A    between atoms: C_1  and  C_2
REMARK    2  A    between atoms: C_2  and  N_3
REMARK    3  A    between atoms: C_2  and  C_25
REMARK    4  A    between atoms: N_3  and  C_4
REMARK    5  A    between atoms: C_4  and  C_5
REMARK    6  A    between atoms: C_9  and  C_10
REMARK    7  A    between atoms: C_10  and  N_11
REMARK    8  A    between atoms: C_12  and  C_14
REMARK                            x       y       z     vdW  Elec       q    Type
REMARK                         _______ _______ _______ _____ _____    ______ ____
ROOT
ATOM      1  C   UNL     1      45.499   4.457  12.536  0.00  0.00    +0.000 A 
ATOM      2  C   UNL     1      46.266   5.491  12.009  0.00  0.00    +0.000 A 
ATOM      3  C   UNL     1      47.240   6.075  12.809  0.00  0.00    +0.000 A 
ATOM      4  C   UNL     1      47.426   5.613  14.109  0.00  0.00    +0.000 A 
ATOM      5  C   UNL     1      46.638   4.562  14.571  0.00  0.00    +0.000 A 
ATOM      6  N   UNL     1      45.680   3.991  13.801  0.00  0.00    +0.000 NA
ENDROOT
BRANCH   1   7
ATOM      7  C   UNL     1      44.450   3.776  11.679  0.00  0.00    +0.000 C 
BRANCH   7   8
ATOM      8  N   UNL     1      45.044   2.862  10.703  0.00  0.00    +0.000 NA
ATOM      9  H   UNL     1      44.909   1.902  11.014  0.00  0.00    +0.000 HD
BRANCH   8  11
ATOM     10  C   UNL     1      44.363   4.494   8.945  0.00  0.00    +0.000 C 
ATOM     11  C   UNL     1      44.551   3.024   9.335  0.00  0.00    +0.000 C 
BRANCH  11  12
ATOM     12  C   UNL     1      45.499   2.347   8.347  0.00  0.00    +0.000 A 
ATOM     13  C   UNL     1      45.888   1.012   8.544  0.00  0.00    +0.000 A 
ATOM     14  C   UNL     1      46.762   0.382   7.652  0.00  0.00    +0.000 A 
ATOM     15  C   UNL     1      47.263   1.080   6.552  0.00  0.00    +0.000 A 
ATOM     16  C   UNL     1      46.875   2.400   6.339  0.00  0.00    +0.000 A 
ATOM     17 CL   UNL     1      47.506   3.277   4.995  0.00  0.00    +0.000 Cl
ATOM     18  C   UNL     1      45.992   3.028   7.217  0.00  0.00    +0.000 A 
ENDBRANCH  11  12
ENDBRANCH   8  11
ENDBRANCH   7   8
ENDBRANCH   1   7
BRANCH   5  19
ATOM     19  C   UNL     1      46.820   4.020  15.971  0.00  0.00    +0.000 C 
BRANCH  19  20
ATOM     20  N   UNL     1      48.217   3.864  16.321  0.00  0.00    +0.000 N 
ATOM     21  C   UNL     1      48.787   4.611  17.320  0.00  0.00    +0.000 C 
ATOM     22  O   UNL     1      48.126   5.380  18.014  0.00  0.00    +0.000 OA
ATOM     23  H   UNL     1      48.809   3.454  15.603  0.00  0.00    +0.000 HD
BRANCH  21  24
ATOM     24  C   UNL     1      50.216   4.402  17.577  0.00  0.00    +0.000 A 
ATOM     25  C   UNL     1      51.017   5.488  17.906  0.00  0.00    +0.000 A 
ATOM     26  S   UNL     1      52.650   5.079  18.176  0.00  0.00    +0.000 S 
ATOM     27  C   UNL     1      52.354   3.443  17.821  0.00  0.00    +0.000 A 
ATOM     28  N   UNL     1      53.365   2.533  17.828  0.00  0.00    +0.000 NA
ATOM     29  C   UNL     1      53.003   1.333  17.511  0.00  0.00    +0.000 A 
ATOM     30  N   UNL     1      51.722   0.956  17.205  0.00  0.00    +0.000 N 
ATOM     31  C   UNL     1      50.659   1.835  17.228  0.00  0.00    +0.000 A 
ATOM     32  O   UNL     1      49.514   1.461  17.019  0.00  0.00    +0.000 OA
ATOM     33  C   UNL     1      51.021   3.204  17.538  0.00  0.00    +0.000 A 
ATOM     34  H   UNL     1      51.500  -0.004  16.983  0.00  0.00    +0.000 HD
ENDBRANCH  21  24
ENDBRANCH  19  20
ENDBRANCH   5  19
TORSDOF 7
ENDMDL
MODEL 7
REMARK VINA RESULT:    -7.562      3.946      9.135
REMARK INTER + INTRA:         -11.349
REMARK INTER:                 -10.083
REMARK INTRA:                  -1.266
REMARK UNBOUND:                -0.693
REMARK  Name = 
REMARK  8 active torsions:
REMARK  status: ('A' for Active; 'I' for Inactive)
REMARK    1  A    between atoms: C_1  and  C_2
REMARK    2  A    between atoms: C_2  and  N_3
REMARK    3  A    between atoms: C_2  and  C_25
REMARK    4  A    between atoms: N_3  and  C_4
REMARK    5  A    between atoms: C_4  and  C_5
REMARK    6  A    between atoms: C_9  and  C_10
REMARK    7  A    between atoms: C_10  and  N_11
REMARK    8  A    between atoms: C_12  and  C_14
REMARK                            x       y       z     vdW  Elec       q    Type
REMARK                         _______ _______ _______ _____ _____    ______ ____
ROOT
ATOM      1  C   UNL     1      48.983   3.571  17.520  0.00  0.00    +0.000 A 
ATOM      2  C   UNL     1      48.677   3.961  18.820  0.00  0.00    +0.000 A 
ATOM      3  C   UNL     1      48.368   5.293  19.062  0.00  0.00    +0.000 A 
ATOM      4  C   UNL     1      48.369   6.199  18.005  0.00  0.00    +0.000 A 
ATOM      5  C   UNL     1      48.666   5.742  16.724  0.00  0.00    +0.000 A 
ATOM      6  N   UNL     1      48.977   4.446  16.479  0.00  0.00    +0.000 NA
ENDROOT
BRANCH   1   7
ATOM      7  C   UNL     1      49.293   2.118  17.216  0.00  0.00    +0.000 C 
BRANCH   7   8
ATOM      8  N   UNL     1      50.666   1.933  16.746  0.00  0.00    +0.000 NA
ATOM      9  H   UNL     1      50.914   2.697  16.120  0.00  0.00    +0.000 HD
BRANCH   8  11
ATOM     10  C   UNL     1      52.439   0.487  17.738  0.00  0.00    +0.000 C 
ATOM     11  C   UNL     1      51.664   1.808  17.809  0.00  0.00    +0.000 C 
BRANCH  11  12
ATOM     12  C   UNL     1      52.641   2.981  17.758  0.00  0.00    +0.000 A 
ATOM     13  C   UNL     1      54.025   2.749  17.809  0.00  0.00    +0.000 A 
ATOM     14  C   UNL     1      54.931   3.814  17.771  0.00  0.00    +0.000 A 
ATOM     15  C   UNL     1      54.466   5.127  17.686  0.00  0.00    +0.000 A 
ATOM     16  C   UNL     1      53.096   5.369  17.623  0.00  0.00    +0.000 A 
ATOM     17 CL   UNL     1      52.511   6.989  17.540  0.00  0.00    +0.000 Cl
ATOM     18  C   UNL     1      52.188   4.310  17.645  0.00  0.00    +0.000 A 
ENDBRANCH  11  12
ENDBRANCH   8  11
ENDBRANCH   7   8
ENDBRANCH   1   7
BRANCH   5  19
ATOM     19  C   UNL     1      48.661   6.690  15.546  0.00  0.00    +0.000 C 
BRANCH  19  20
ATOM     20  N   UNL     1      47.508   6.497  14.691  0.00  0.00    +0.000 N 
ATOM     21  C   UNL     1      47.652   6.168  13.367  0.00  0.00    +0.000 C 
ATOM     22  O   UNL     1      48.752   5.941  12.870  0.00  0.00    +0.000 OA
ATOM     23  H   UNL     1      46.646   6.935  15.006  0.00  0.00    +0.000 HD
BRANCH  21  24
ATOM     24  C   UNL     1      46.424   6.026  12.578  0.00  0.00    +0.000 A 
ATOM     25  C   UNL     1      45.898   7.136  11.928  0.00  0.00    +0.000 A 
ATOM     26  S   UNL     1      44.472   6.806  11.053  0.00  0.00    +0.000 S 
ATOM     27  C   UNL     1      44.483   5.179  11.546  0.00  0.00    +0.000 A 
ATOM     28  N   UNL     1      43.488   4.329  11.172  0.00  0.00    +0.000 NA
ATOM     29  C   UNL     1      43.607   3.131  11.643  0.00  0.00    +0.000 A 
ATOM     30  N   UNL     1      44.636   2.700  12.437  0.00  0.00    +0.000 N 
ATOM     31  C   UNL     1      45.687   3.514  12.805  0.00  0.00    +0.000 A 
ATOM     32  O   UNL     1      46.630   3.088  13.458  0.00  0.00    +0.000 OA
ATOM     33  C   UNL     1      45.579   4.881  12.336  0.00  0.00    +0.000 A 
ATOM     34  H   UNL     1      44.681   1.743  12.758  0.00  0.00    +0.000 HD
ENDBRANCH  21  24
ENDBRANCH  19  20
ENDBRANCH   5  19
TORSDOF 7
ENDMDL
MODEL 8
REMARK VINA RESULT:    -7.512      4.419      9.866
REMARK INTER + INTRA:         -11.280
REMARK INTER:                 -10.039
REMARK INTRA:                  -1.241
REMARK UNBOUND:                -0.693
REMARK  Name = 
REMARK  8 active torsions:
REMARK  status: ('A' for Active; 'I' for Inactive)
REMARK    1  A    between atoms: C_1  and  C_2
REMARK    2  A    between atoms: C_2  and  N_3
REMARK    3  A    between atoms: C_2  and  C_25
REMARK    4  A    between atoms: N_3  and  C_4
REMARK    5  A    between atoms: C_4  and  C_5
REMARK    6  A    between atoms: C_9  and  C_10
REMARK    7  A    between atoms: C_10  and  N_11
REMARK    8  A    between atoms: C_12  and  C_14
REMARK                            x       y       z     vdW  Elec       q    Type
REMARK                         _______ _______ _______ _____ _____    ______ ____
ROOT
ATOM      1  C   UNL     1      50.785   4.611  17.433  0.00  0.00    +0.000 A 
ATOM      2  C   UNL     1      51.549   3.449  17.464  0.00  0.00    +0.000 A 
ATOM      3  C   UNL     1      50.909   2.225  17.315  0.00  0.00    +0.000 A 
ATOM      4  C   UNL     1      49.530   2.191  17.136  0.00  0.00    +0.000 A 
ATOM      5  C   UNL     1      48.824   3.391  17.096  0.00  0.00    +0.000 A 
ATOM      6  N   UNL     1      49.437   4.590  17.248  0.00  0.00    +0.000 NA
ENDROOT
BRANCH   1   7
ATOM      7  C   UNL     1      51.456   5.966  17.560  0.00  0.00    +0.000 C 
BRANCH   7   8
ATOM      8  N   UNL     1      51.418   6.473  18.931  0.00  0.00    +0.000 NA
ATOM      9  H   UNL     1      52.363   6.698  19.233  0.00  0.00    +0.000 HD
BRANCH   8  11
ATOM     10  C   UNL     1      49.913   8.127  17.826  0.00  0.00    +0.000 C 
ATOM     11  C   UNL     1      50.536   7.623  19.133  0.00  0.00    +0.000 C 
BRANCH  11  12
ATOM     12  C   UNL     1      49.430   7.273  20.128  0.00  0.00    +0.000 A 
ATOM     13  C   UNL     1      49.249   5.944  20.542  0.00  0.00    +0.000 A 
ATOM     14  C   UNL     1      48.236   5.608  21.446  0.00  0.00    +0.000 A 
ATOM     15  C   UNL     1      47.387   6.597  21.946  0.00  0.00    +0.000 A 
ATOM     16  C   UNL     1      47.565   7.920  21.552  0.00  0.00    +0.000 A 
ATOM     17 CL   UNL     1      46.508   9.146  22.149  0.00  0.00    +0.000 Cl
ATOM     18  C   UNL     1      48.583   8.263  20.663  0.00  0.00    +0.000 A 
ENDBRANCH  11  12
ENDBRANCH   8  11
ENDBRANCH   7   8
ENDBRANCH   1   7
BRANCH   5  19
ATOM     19  C   UNL     1      47.326   3.398  16.887  0.00  0.00    +0.000 C 
BRANCH  19  20
ATOM     20  N   UNL     1      46.915   4.375  15.899  0.00  0.00    +0.000 N 
ATOM     21  C   UNL     1      46.975   4.097  14.558  0.00  0.00    +0.000 C 
ATOM     22  O   UNL     1      47.297   2.989  14.137  0.00  0.00    +0.000 OA
ATOM     23  H   UNL     1      46.913   5.343  16.210  0.00  0.00    +0.000 HD
BRANCH  21  24
ATOM     24  C   UNL     1      46.566   5.164  13.637  0.00  0.00    +0.000 A 
ATOM     25  C   UNL     1      47.428   6.227  13.399  0.00  0.00    +0.000 A 
ATOM     26  S   UNL     1      46.809   7.380  12.305  0.00  0.00    +0.000 S 
ATOM     27  C   UNL     1      45.350   6.521  12.144  0.00  0.00    +0.000 A 
ATOM     28  N   UNL     1      44.341   6.998  11.365  0.00  0.00    +0.000 NA
ATOM     29  C   UNL     1      43.280   6.260  11.359  0.00  0.00    +0.000 A 
ATOM     30  N   UNL     1      43.141   5.082  12.044  0.00  0.00    +0.000 N 
ATOM     31  C   UNL     1      44.151   4.540  12.811  0.00  0.00    +0.000 A 
ATOM     32  O   UNL     1      44.028   3.453  13.358  0.00  0.00    +0.000 OA
ATOM     33  C   UNL     1      45.349   5.352  12.884  0.00  0.00    +0.000 A 
ATOM     34  H   UNL     1      42.290   4.540  11.982  0.00  0.00    +0.000 HD
ENDBRANCH  21  24
ENDBRANCH  19  20
ENDBRANCH   5  19
TORSDOF 7
ENDMDL
MODEL 9
REMARK VINA RESULT:    -7.457      3.764      8.898
REMARK INTER + INTRA:         -11.202
REMARK INTER:                  -9.963
REMARK INTRA:                  -1.239
REMARK UNBOUND:                -0.693
REMARK  Name = 
REMARK  8 active torsions:
REMARK  status: ('A' for Active; 'I' for Inactive)
REMARK    1  A    between atoms: C_1  and  C_2
REMARK    2  A    between atoms: C_2  and  N_3
REMARK    3  A    between atoms: C_2  and  C_25
REMARK    4  A    between atoms: N_3  and  C_4
REMARK    5  A    between atoms: C_4  and  C_5
REMARK    6  A    between atoms: C_9  and  C_10
REMARK    7  A    between atoms: C_10  and  N_11
REMARK    8  A    between atoms: C_12  and  C_14
REMARK                            x       y       z     vdW  Elec       q    Type
REMARK                         _______ _______ _______ _____ _____    ______ ____
ROOT
ATOM      1  C   UNL     1      48.725   8.295  19.000  0.00  0.00    +0.000 A 
ATOM      2  C   UNL     1      48.283   9.602  18.819  0.00  0.00    +0.000 A 
ATOM      3  C   UNL     1      48.050  10.054  17.526  0.00  0.00    +0.000 A 
ATOM      4  C   UNL     1      48.258   9.194  16.452  0.00  0.00    +0.000 A 
ATOM      5  C   UNL     1      48.683   7.891  16.701  0.00  0.00    +0.000 A 
ATOM      6  N   UNL     1      48.922   7.443  17.958  0.00  0.00    +0.000 NA
ENDROOT
BRANCH   1   7
ATOM      7  C   UNL     1      48.958   7.760  20.400  0.00  0.00    +0.000 C 
BRANCH   7   8
ATOM      8  N   UNL     1      50.194   6.983  20.494  0.00  0.00    +0.000 NA
ATOM      9  H   UNL     1      50.834   7.445  21.136  0.00  0.00    +0.000 HD
BRANCH   8  11
ATOM     10  C   UNL     1      48.751   5.370  21.734  0.00  0.00    +0.000 C 
ATOM     11  C   UNL     1      50.009   5.585  20.884  0.00  0.00    +0.000 C 
BRANCH  11  12
ATOM     12  C   UNL     1      49.951   4.694  19.645  0.00  0.00    +0.000 A 
ATOM     13  C   UNL     1      51.125   4.391  18.937  0.00  0.00    +0.000 A 
ATOM     14  C   UNL     1      51.086   3.583  17.796  0.00  0.00    +0.000 A 
ATOM     15  C   UNL     1      49.870   3.068  17.345  0.00  0.00    +0.000 A 
ATOM     16  C   UNL     1      48.700   3.351  18.045  0.00  0.00    +0.000 A 
ATOM     17 CL   UNL     1      47.190   2.737  17.482  0.00  0.00    +0.000 Cl
ATOM     18  C   UNL     1      48.736   4.144  19.192  0.00  0.00    +0.000 A 
ENDBRANCH  11  12
ENDBRANCH   8  11
ENDBRANCH   7   8
ENDBRANCH   1   7
BRANCH   5  19
ATOM     19  C   UNL     1      48.905   6.921  15.564  0.00  0.00    +0.000 C 
BRANCH  19  20
ATOM     20  N   UNL     1      47.698   6.690  14.796  0.00  0.00    +0.000 N 
ATOM     21  C   UNL     1      47.755   6.282  13.488  0.00  0.00    +0.000 C 
ATOM     22  O   UNL     1      48.819   6.014  12.936  0.00  0.00    +0.000 OA
ATOM     23  H   UNL     1      46.861   7.154  15.139  0.00  0.00    +0.000 HD
BRANCH  21  24
ATOM     24  C   UNL     1      46.478   6.107  12.789  0.00  0.00    +0.000 A 
ATOM     25  C   UNL     1      45.845   7.213  12.235  0.00  0.00    +0.000 A 
ATOM     26  S   UNL     1      44.374   6.843  11.455  0.00  0.00    +0.000 S 
ATOM     27  C   UNL     1      44.508   5.198  11.867  0.00  0.00    +0.000 A 
ATOM     28  N   UNL     1      43.533   4.312  11.529  0.00  0.00    +0.000 NA
ATOM     29  C   UNL     1      43.751   3.103  11.931  0.00  0.00    +0.000 A 
ATOM     30  N   UNL     1      44.861   2.695  12.623  0.00  0.00    +0.000 N 
ATOM     31  C   UNL     1      45.894   3.549  12.949  0.00  0.00    +0.000 A 
ATOM     32  O   UNL     1      46.905   3.148  13.506  0.00  0.00    +0.000 OA
ATOM     33  C   UNL     1      45.678   4.927  12.556  0.00  0.00    +0.000 A 
ATOM     34  H   UNL     1      44.981   1.729  12.892  0.00  0.00    +0.000 HD
ENDBRANCH  21  24
ENDBRANCH  19  20
ENDBRANCH   5  19
TORSDOF 7
ENDMDL
