MODEL 1
REMARK VINA RESULT:    -8.412      0.000      0.000
REMARK INTER + INTRA:         -12.511
REMARK INTER:                 -11.609
REMARK INTRA:                  -0.903
REMARK UNBOUND:                -0.903
REMARK  Name = 
REMARK  9 active torsions:
REMARK  status: ('A' for Active; 'I' for Inactive)
REMARK    1  A    between atoms: C_1  and  C_2
REMARK    2  A    between atoms: C_5  and  C_6
REMARK    3  A    between atoms: C_6  and  C_7
REMARK    4  A    between atoms: C_6  and  C_8
REMARK    5  A    between atoms: C_8  and  O_9
REMARK    6  A    between atoms: O_9  and  C_10
REMARK    7  A    between atoms: C_13  and  C_14
REMARK    8  A    between atoms: C_20  and  C_21
REMARK    9  A    between atoms: C_21  and  N_22
REMARK                            x       y       z     vdW  Elec       q    Type
REMARK                         _______ _______ _______ _____ _____    ______ ____
ROOT
ATOM      1  C   UNL     1      43.447   4.347  12.329  0.00  0.00    +0.000 C 
ATOM      2  C   UNL     1      42.471   5.409  11.813  0.00  0.00    +0.000 C 
ENDROOT
BRANCH   1   7
ATOM      3  C   UNL     1      48.642   6.612  13.546  0.00  0.00    +0.000 C 
ATOM      4  C   UNL     1      47.304   6.018  13.223  0.00  0.00    +0.000 A 
ATOM      5  C   UNL     1      46.590   6.478  12.111  0.00  0.00    +0.000 A 
ATOM      6  C   UNL     1      45.337   5.949  11.810  0.00  0.00    +0.000 A 
ATOM      7  C   UNL     1      44.821   4.941  12.613  0.00  0.00    +0.000 A 
ATOM      8  N   UNL     1      45.508   4.469  13.685  0.00  0.00    +0.000 NA
ATOM      9  C   UNL     1      46.721   5.007  13.994  0.00  0.00    +0.000 A 
BRANCH   9  10
ATOM     10  C   UNL     1      47.360   4.477  15.265  0.00  0.00    +0.000 C 
BRANCH  10  11
ATOM     11  N   UNL     1      47.760   3.068  15.197  0.00  0.00    +0.000 NA
ATOM     12  H   UNL     1      48.722   2.999  15.530  0.00  0.00    +0.000 HD
ATOM     13  H   UNL     1      47.781   2.787  14.218  0.00  0.00    +0.000 HD
ENDBRANCH  10  11
ENDBRANCH   9  10
ENDBRANCH   1   7
BRANCH   1  14
ATOM     14  C   UNL     1      43.559   3.172  11.338  0.00  0.00    +0.000 C 
BRANCH  14  15
ATOM     15  O   UNL     1      43.517   3.620   9.976  0.00  0.00    +0.000 OA
BRANCH  15  16
ATOM     16  C   UNL     1      44.523   3.143   9.172  0.00  0.00    +0.000 A 
ATOM     17  C   UNL     1      44.944   1.813   9.105  0.00  0.00    +0.000 A 
ATOM     18  C   UNL     1      45.975   1.436   8.239  0.00  0.00    +0.000 A 
ATOM     19  C   UNL     1      46.593   2.384   7.421  0.00  0.00    +0.000 A 
ATOM     20  C   UNL     1      46.189   3.723   7.494  0.00  0.00    +0.000 A 
ATOM     21  C   UNL     1      45.158   4.095   8.369  0.00  0.00    +0.000 A 
BRANCH  19  22
ATOM     22  C   UNL     1      47.672   1.917   6.512  0.00  0.00    +0.000 C 
ATOM     23  N   UNL     1      48.759   2.731   6.352  0.00  0.00    +0.000 N 
ATOM     24  O   UNL     1      47.578   0.867   5.888  0.00  0.00    +0.000 OA
ATOM     25  H   UNL     1      48.761   3.696   6.637  0.00  0.00    +0.000 HD
ATOM     26  H   UNL     1      49.415   2.452   5.630  0.00  0.00    +0.000 HD
ENDBRANCH  19  22
ENDBRANCH  15  16
ENDBRANCH  14  15
ENDBRANCH   1  14
TORSDOF 7
ENDMDL
MODEL 2
REMARK VINA RESULT:    -7.886      1.361      2.361
REMARK INTER + INTRA:         -11.786
REMARK INTER:                 -11.023
REMARK INTRA:                  -0.763
REMARK UNBOUND:                -0.903
REMARK  Name = 
REMARK  9 active torsions:
REMARK  status: ('A' for Active; 'I' for Inactive)
REMARK    1  A    between atoms: C_1  and  C_2
REMARK    2  A    between atoms: C_5  and  C_6
REMARK    3  A    between atoms: C_6  and  C_7
REMARK    4  A    between atoms: C_6  and  C_8
REMARK    5  A    between atoms: C_8  and  O_9
REMARK    6  A    between atoms: O_9  and  C_10
REMARK    7  A    between atoms: C_13  and  C_14
REMARK    8  A    between atoms: C_20  and  C_21
REMARK    9  A    between atoms: C_21  and  N_22
REMARK                            x       y       z     vdW  Elec       q    Type
REMARK                         _______ _______ _______ _____ _____    ______ ____
ROOT
ATOM      1  C   UNL     1      43.437   4.621  12.428  0.00  0.00    +0.000 C 
ATOM      2  C   UNL     1      42.493   5.678  11.847  0.00  0.00    +0.000 C 
ENDROOT
BRANCH   1   7
ATOM      3  C   UNL     1      48.543   7.003  13.794  0.00  0.00    +0.000 C 
ATOM      4  C   UNL     1      47.218   6.387  13.453  0.00  0.00    +0.000 A 
ATOM      5  C   UNL     1      47.057   5.000  13.534  0.00  0.00    +0.000 A 
ATOM      6  C   UNL     1      45.839   4.411  13.201  0.00  0.00    +0.000 A 
ATOM      7  C   UNL     1      44.782   5.224  12.816  0.00  0.00    +0.000 A 
ATOM      8  N   UNL     1      44.915   6.574  12.750  0.00  0.00    +0.000 NA
ATOM      9  C   UNL     1      46.115   7.145  13.049  0.00  0.00    +0.000 A 
BRANCH   9  10
ATOM     10  C   UNL     1      46.184   8.648  12.850  0.00  0.00    +0.000 C 
BRANCH  10  11
ATOM     11  N   UNL     1      44.878   9.311  12.797  0.00  0.00    +0.000 NA
ATOM     12  H   UNL     1      44.879  10.060  13.490  0.00  0.00    +0.000 HD
ATOM     13  H   UNL     1      44.168   8.648  13.104  0.00  0.00    +0.000 HD
ENDBRANCH  10  11
ENDBRANCH   9  10
ENDBRANCH   1   7
BRANCH   1  14
ATOM     14  C   UNL     1      43.632   3.453  11.441  0.00  0.00    +0.000 C 
BRANCH  14  15
ATOM     15  O   UNL     1      43.494   3.879  10.079  0.00  0.00    +0.000 OA
BRANCH  15  16
ATOM     16  C   UNL     1      44.477   3.439   9.226  0.00  0.00    +0.000 A 
ATOM     17  C   UNL     1      45.219   4.247   8.361  0.00  0.00    +0.000 A 
ATOM     18  C   UNL     1      46.208   3.692   7.544  0.00  0.00    +0.000 A 
ATOM     19  C   UNL     1      46.475   2.322   7.587  0.00  0.00    +0.000 A 
ATOM     20  C   UNL     1      45.724   1.502   8.440  0.00  0.00    +0.000 A 
ATOM     21  C   UNL     1      44.730   2.064   9.253  0.00  0.00    +0.000 A 
BRANCH  19  22
ATOM     22  C   UNL     1      47.548   1.796   6.704  0.00  0.00    +0.000 C 
ATOM     23  N   UNL     1      48.628   2.602   6.472  0.00  0.00    +0.000 N 
ATOM     24  O   UNL     1      47.456   0.701   6.161  0.00  0.00    +0.000 OA
ATOM     25  H   UNL     1      48.625   3.586   6.685  0.00  0.00    +0.000 HD
ATOM     26  H   UNL     1      49.278   2.275   5.766  0.00  0.00    +0.000 HD
ENDBRANCH  19  22
ENDBRANCH  15  16
ENDBRANCH  14  15
ENDBRANCH   1  14
TORSDOF 7
ENDMDL
MODEL 3
REMARK VINA RESULT:    -7.175      2.079      3.132
REMARK INTER + INTRA:         -10.804
REMARK INTER:                 -10.166
REMARK INTRA:                  -0.639
REMARK UNBOUND:                -0.903
REMARK  Name = 
REMARK  9 active torsions:
REMARK  status: ('A' for Active; 'I' for Inactive)
REMARK    1  A    between atoms: C_1  and  C_2
REMARK    2  A    between atoms: C_5  and  C_6
REMARK    3  A    between atoms: C_6  and  C_7
REMARK    4  A    between atoms: C_6  and  C_8
REMARK    5  A    between atoms: C_8  and  O_9
REMARK    6  A    between atoms: O_9  and  C_10
REMARK    7  A    between atoms: C_13  and  C_14
REMARK    8  A    between atoms: C_20  and  C_21
REMARK    9  A    between atoms: C_21  and  N_22
REMARK                            x       y       z     vdW  Elec       q    Type
REMARK                         _______ _______ _______ _____ _____    ______ ____
ROOT
ATOM      1  C   UNL     1      45.295   4.661  11.698  0.00  0.00    +0.000 C 
ATOM      2  C   UNL     1      45.593   3.875  12.980  0.00  0.00    +0.000 C 
ENDROOT
BRANCH   1   7
ATOM      3  C   UNL     1      46.939  10.210  12.029  0.00  0.00    +0.000 C 
ATOM      4  C   UNL     1      46.512   8.774  11.956  0.00  0.00    +0.000 A 
ATOM      5  C   UNL     1      47.461   7.760  12.119  0.00  0.00    +0.000 A 
ATOM      6  C   UNL     1      47.083   6.421  12.035  0.00  0.00    +0.000 A 
ATOM      7  C   UNL     1      45.749   6.112  11.814  0.00  0.00    +0.000 A 
ATOM      8  N   UNL     1      44.811   7.083  11.672  0.00  0.00    +0.000 NA
ATOM      9  C   UNL     1      45.187   8.392  11.727  0.00  0.00    +0.000 A 
BRANCH   9  10
ATOM     10  C   UNL     1      44.080   9.395  11.459  0.00  0.00    +0.000 C 
BRANCH  10  11
ATOM     11  N   UNL     1      42.932   8.848  10.730  0.00  0.00    +0.000 NA
ATOM     12  H   UNL     1      42.086   9.255  11.127  0.00  0.00    +0.000 HD
ATOM     13  H   UNL     1      42.877   7.849  10.921  0.00  0.00    +0.000 HD
ENDBRANCH  10  11
ENDBRANCH   9  10
ENDBRANCH   1   7
BRANCH   1  14
ATOM     14  C   UNL     1      43.798   4.588  11.341  0.00  0.00    +0.000 C 
BRANCH  14  15
ATOM     15  O   UNL     1      43.592   4.507   9.924  0.00  0.00    +0.000 OA
BRANCH  15  16
ATOM     16  C   UNL     1      44.531   3.776   9.238  0.00  0.00    +0.000 A 
ATOM     17  C   UNL     1      44.715   2.396   9.340  0.00  0.00    +0.000 A 
ATOM     18  C   UNL     1      45.697   1.752   8.582  0.00  0.00    +0.000 A 
ATOM     19  C   UNL     1      46.504   2.479   7.704  0.00  0.00    +0.000 A 
ATOM     20  C   UNL     1      46.338   3.866   7.608  0.00  0.00    +0.000 A 
ATOM     21  C   UNL     1      45.355   4.507   8.375  0.00  0.00    +0.000 A 
BRANCH  19  22
ATOM     22  C   UNL     1      47.520   1.734   6.917  0.00  0.00    +0.000 C 
ATOM     23  N   UNL     1      48.577   2.442   6.417  0.00  0.00    +0.000 N 
ATOM     24  O   UNL     1      47.399   0.538   6.678  0.00  0.00    +0.000 OA
ATOM     25  H   UNL     1      48.582   3.448   6.372  0.00  0.00    +0.000 HD
ATOM     26  H   UNL     1      49.182   1.939   5.777  0.00  0.00    +0.000 HD
ENDBRANCH  19  22
ENDBRANCH  15  16
ENDBRANCH  14  15
ENDBRANCH   1  14
TORSDOF 7
ENDMDL
MODEL 4
REMARK VINA RESULT:    -7.062      1.649      2.485
REMARK INTER + INTRA:         -10.648
REMARK INTER:                 -10.126
REMARK INTRA:                  -0.522
REMARK UNBOUND:                -0.903
REMARK  Name = 
REMARK  9 active torsions:
REMARK  status: ('A' for Active; 'I' for Inactive)
REMARK    1  A    between atoms: C_1  and  C_2
REMARK    2  A    between atoms: C_5  and  C_6
REMARK    3  A    between atoms: C_6  and  C_7
REMARK    4  A    between atoms: C_6  and  C_8
REMARK    5  A    between atoms: C_8  and  O_9
REMARK    6  A    between atoms: O_9  and  C_10
REMARK    7  A    between atoms: C_13  and  C_14
REMARK    8  A    between atoms: C_20  and  C_21
REMARK    9  A    between atoms: C_21  and  N_22
REMARK                            x       y       z     vdW  Elec       q    Type
REMARK                         _______ _______ _______ _____ _____    ______ ____
ROOT
ATOM      1  C   UNL     1      45.358   4.269  11.552  0.00  0.00    +0.000 C 
ATOM      2  C   UNL     1      45.968   3.466  12.705  0.00  0.00    +0.000 C 
ENDROOT
BRANCH   1   7
ATOM      3  C   UNL     1      46.428   9.921  12.272  0.00  0.00    +0.000 C 
ATOM      4  C   UNL     1      46.154   8.459  12.073  0.00  0.00    +0.000 A 
ATOM      5  C   UNL     1      44.896   8.044  11.626  0.00  0.00    +0.000 A 
ATOM      6  C   UNL     1      44.621   6.689  11.456  0.00  0.00    +0.000 A 
ATOM      7  C   UNL     1      45.622   5.762  11.710  0.00  0.00    +0.000 A 
ATOM      8  N   UNL     1      46.855   6.148  12.126  0.00  0.00    +0.000 NA
ATOM      9  C   UNL     1      47.114   7.472  12.319  0.00  0.00    +0.000 A 
BRANCH   9  10
ATOM     10  C   UNL     1      48.489   7.789  12.877  0.00  0.00    +0.000 C 
BRANCH  10  11
ATOM     11  N   UNL     1      49.431   6.666  12.835  0.00  0.00    +0.000 NA
ATOM     12  H   UNL     1      49.848   6.641  11.905  0.00  0.00    +0.000 HD
ATOM     13  H   UNL     1      48.903   5.800  12.928  0.00  0.00    +0.000 HD
ENDBRANCH  10  11
ENDBRANCH   9  10
ENDBRANCH   1   7
BRANCH   1  14
ATOM     14  C   UNL     1      43.846   3.996  11.429  0.00  0.00    +0.000 C 
BRANCH  14  15
ATOM     15  O   UNL     1      43.460   3.747  10.070  0.00  0.00    +0.000 OA
BRANCH  15  16
ATOM     16  C   UNL     1      44.482   3.380   9.229  0.00  0.00    +0.000 A 
ATOM     17  C   UNL     1      45.190   4.243   8.390  0.00  0.00    +0.000 A 
ATOM     18  C   UNL     1      46.224   3.761   7.583  0.00  0.00    +0.000 A 
ATOM     19  C   UNL     1      46.570   2.408   7.610  0.00  0.00    +0.000 A 
ATOM     20  C   UNL     1      45.855   1.533   8.437  0.00  0.00    +0.000 A 
ATOM     21  C   UNL     1      44.815   2.022   9.240  0.00  0.00    +0.000 A 
BRANCH  19  22
ATOM     22  C   UNL     1      47.688   1.961   6.739  0.00  0.00    +0.000 C 
ATOM     23  N   UNL     1      48.666   2.871   6.447  0.00  0.00    +0.000 N 
ATOM     24  O   UNL     1      47.717   0.835   6.257  0.00  0.00    +0.000 OA
ATOM     25  H   UNL     1      48.552   3.859   6.608  0.00  0.00    +0.000 HD
ATOM     26  H   UNL     1      49.342   2.582   5.749  0.00  0.00    +0.000 HD
ENDBRANCH  19  22
ENDBRANCH  15  16
ENDBRANCH  14  15
ENDBRANCH   1  14
TORSDOF 7
ENDMDL
MODEL 5
REMARK VINA RESULT:    -6.247      1.453      2.094
REMARK INTER + INTRA:          -9.523
REMARK INTER:                  -8.853
REMARK INTRA:                  -0.671
REMARK UNBOUND:                -0.903
REMARK  Name = 
REMARK  9 active torsions:
REMARK  status: ('A' for Active; 'I' for Inactive)
REMARK    1  A    between atoms: C_1  and  C_2
REMARK    2  A    between atoms: C_5  and  C_6
REMARK    3  A    between atoms: C_6  and  C_7
REMARK    4  A    between atoms: C_6  and  C_8
REMARK    5  A    between atoms: C_8  and  O_9
REMARK    6  A    between atoms: O_9  and  C_10
REMARK    7  A    between atoms: C_13  and  C_14
REMARK    8  A    between atoms: C_20  and  C_21
REMARK    9  A    between atoms: C_21  and  N_22
REMARK                            x       y       z     vdW  Elec       q    Type
REMARK                         _______ _______ _______ _____ _____    ______ ____
ROOT
ATOM      1  C   UNL     1      46.039   4.379  12.497  0.00  0.00    +0.000 C 
ATOM      2  C   UNL     1      45.023   3.430  13.141  0.00  0.00    +0.000 C 
ENDROOT
BRANCH   1   7
ATOM      3  C   UNL     1      49.345   6.841  16.572  0.00  0.00    +0.000 C 
ATOM      4  C   UNL     1      48.500   6.198  15.513  0.00  0.00    +0.000 A 
ATOM      5  C   UNL     1      48.374   6.809  14.261  0.00  0.00    +0.000 A 
ATOM      6  C   UNL     1      47.577   6.234  13.274  0.00  0.00    +0.000 A 
ATOM      7  C   UNL     1      46.934   5.034  13.543  0.00  0.00    +0.000 A 
ATOM      8  N   UNL     1      47.060   4.417  14.746  0.00  0.00    +0.000 NA
ATOM      9  C   UNL     1      47.818   4.995  15.720  0.00  0.00    +0.000 A 
BRANCH   9  10
ATOM     10  C   UNL     1      47.814   4.276  17.056  0.00  0.00    +0.000 C 
BRANCH  10  11
ATOM     11  N   UNL     1      46.668   3.384  17.258  0.00  0.00    +0.000 NA
ATOM     12  H   UNL     1      46.677   3.080  18.232  0.00  0.00    +0.000 HD
ATOM     13  H   UNL     1      46.812   2.544  16.701  0.00  0.00    +0.000 HD
ENDBRANCH  10  11
ENDBRANCH   9  10
ENDBRANCH   1   7
BRANCH   1  14
ATOM     14  C   UNL     1      45.331   5.449  11.643  0.00  0.00    +0.000 C 
BRANCH  14  15
ATOM     15  O   UNL     1      44.446   4.861  10.679  0.00  0.00    +0.000 OA
BRANCH  15  16
ATOM     16  C   UNL     1      45.064   4.177   9.660  0.00  0.00    +0.000 A 
ATOM     17  C   UNL     1      44.992   2.799   9.450  0.00  0.00    +0.000 A 
ATOM     18  C   UNL     1      45.653   2.209   8.369  0.00  0.00    +0.000 A 
ATOM     19  C   UNL     1      46.390   2.992   7.478  0.00  0.00    +0.000 A 
ATOM     20  C   UNL     1      46.481   4.374   7.691  0.00  0.00    +0.000 A 
ATOM     21  C   UNL     1      45.820   4.958   8.780  0.00  0.00    +0.000 A 
BRANCH  19  22
ATOM     22  C   UNL     1      47.058   2.307   6.341  0.00  0.00    +0.000 C 
ATOM     23  N   UNL     1      48.056   1.420   6.636  0.00  0.00    +0.000 N 
ATOM     24  O   UNL     1      46.765   2.557   5.178  0.00  0.00    +0.000 OA
ATOM     25  H   UNL     1      48.493   1.378   7.541  0.00  0.00    +0.000 HD
ATOM     26  H   UNL     1      48.580   1.068   5.842  0.00  0.00    +0.000 HD
ENDBRANCH  19  22
ENDBRANCH  15  16
ENDBRANCH  14  15
ENDBRANCH   1  14
TORSDOF 7
ENDMDL
MODEL 6
REMARK VINA RESULT:    -6.075      3.204      5.506
REMARK INTER + INTRA:          -9.286
REMARK INTER:                  -8.659
REMARK INTRA:                  -0.628
REMARK UNBOUND:                -0.903
REMARK  Name = 
REMARK  9 active torsions:
REMARK  status: ('A' for Active; 'I' for Inactive)
REMARK    1  A    between atoms: C_1  and  C_2
REMARK    2  A    between atoms: C_5  and  C_6
REMARK    3  A    between atoms: C_6  and  C_7
REMARK    4  A    between atoms: C_6  and  C_8
REMARK    5  A    between atoms: C_8  and  O_9
REMARK    6  A    between atoms: O_9  and  C_10
REMARK    7  A    between atoms: C_13  and  C_14
REMARK    8  A    between atoms: C_20  and  C_21
REMARK    9  A    between atoms: C_21  and  N_22
REMARK                            x       y       z     vdW  Elec       q    Type
REMARK                         _______ _______ _______ _____ _____    ______ ____
ROOT
ATOM      1  C   UNL     1      48.998   7.482  14.589  0.00  0.00    +0.000 C 
ATOM      2  C   UNL     1      50.388   8.050  14.286  0.00  0.00    +0.000 C 
ENDROOT
BRANCH   1   7
ATOM      3  C   UNL     1      48.811   4.523  19.571  0.00  0.00    +0.000 C 
ATOM      4  C   UNL     1      48.871   5.286  18.281  0.00  0.00    +0.000 A 
ATOM      5  C   UNL     1      49.297   6.618  18.282  0.00  0.00    +0.000 A 
ATOM      6  C   UNL     1      49.340   7.345  17.094  0.00  0.00    +0.000 A 
ATOM      7  C   UNL     1      48.981   6.718  15.909  0.00  0.00    +0.000 A 
ATOM      8  N   UNL     1      48.584   5.420  15.886  0.00  0.00    +0.000 NA
ATOM      9  C   UNL     1      48.516   4.719  17.053  0.00  0.00    +0.000 A 
BRANCH   9  10
ATOM     10  C   UNL     1      47.968   3.309  16.930  0.00  0.00    +0.000 C 
BRANCH  10  11
ATOM     11  N   UNL     1      46.588   3.155  17.398  0.00  0.00    +0.000 NA
ATOM     12  H   UNL     1      46.588   3.252  18.413  0.00  0.00    +0.000 HD
ATOM     13  H   UNL     1      46.289   2.199  17.208  0.00  0.00    +0.000 HD
ENDBRANCH  10  11
ENDBRANCH   9  10
ENDBRANCH   1   7
BRANCH   1  14
ATOM     14  C   UNL     1      48.505   6.584  13.438  0.00  0.00    +0.000 C 
BRANCH  14  15
ATOM     15  O   UNL     1      47.163   6.906  13.049  0.00  0.00    +0.000 OA
BRANCH  15  16
ATOM     16  C   UNL     1      46.421   5.849  12.579  0.00  0.00    +0.000 A 
ATOM     17  C   UNL     1      46.241   4.631  13.236  0.00  0.00    +0.000 A 
ATOM     18  C   UNL     1      45.452   3.626  12.668  0.00  0.00    +0.000 A 
ATOM     19  C   UNL     1      44.825   3.830  11.437  0.00  0.00    +0.000 A 
ATOM     20  C   UNL     1      45.014   5.043  10.763  0.00  0.00    +0.000 A 
ATOM     21  C   UNL     1      45.811   6.045  11.336  0.00  0.00    +0.000 A 
BRANCH  19  22
ATOM     22  C   UNL     1      43.988   2.729  10.894  0.00  0.00    +0.000 C 
ATOM     23  N   UNL     1      44.411   2.124   9.743  0.00  0.00    +0.000 N 
ATOM     24  O   UNL     1      42.934   2.401  11.424  0.00  0.00    +0.000 OA
ATOM     25  H   UNL     1      45.117   2.524   9.148  0.00  0.00    +0.000 HD
ATOM     26  H   UNL     1      43.758   1.470   9.325  0.00  0.00    +0.000 HD
ENDBRANCH  19  22
ENDBRANCH  15  16
ENDBRANCH  14  15
ENDBRANCH   1  14
TORSDOF 7
ENDMDL
MODEL 7
REMARK VINA RESULT:    -6.063      4.010      6.020
REMARK INTER + INTRA:          -9.269
REMARK INTER:                  -8.409
REMARK INTRA:                  -0.860
REMARK UNBOUND:                -0.903
REMARK  Name = 
REMARK  9 active torsions:
REMARK  status: ('A' for Active; 'I' for Inactive)
REMARK    1  A    between atoms: C_1  and  C_2
REMARK    2  A    between atoms: C_5  and  C_6
REMARK    3  A    between atoms: C_6  and  C_7
REMARK    4  A    between atoms: C_6  and  C_8
REMARK    5  A    between atoms: C_8  and  O_9
REMARK    6  A    between atoms: O_9  and  C_10
REMARK    7  A    between atoms: C_13  and  C_14
REMARK    8  A    between atoms: C_20  and  C_21
REMARK    9  A    between atoms: C_21  and  N_22
REMARK                            x       y       z     vdW  Elec       q    Type
REMARK                         _______ _______ _______ _____ _____    ______ ____
ROOT
ATOM      1  C   UNL     1      48.270   7.509  15.148  0.00  0.00    +0.000 C 
ATOM      2  C   UNL     1      48.462   8.934  15.679  0.00  0.00    +0.000 C 
ENDROOT
BRANCH   1   7
ATOM      3  C   UNL     1      51.161   3.651  18.367  0.00  0.00    +0.000 C 
ATOM      4  C   UNL     1      50.416   4.643  17.523  0.00  0.00    +0.000 A 
ATOM      5  C   UNL     1      51.101   5.718  16.949  0.00  0.00    +0.000 A 
ATOM      6  C   UNL     1      50.419   6.658  16.179  0.00  0.00    +0.000 A 
ATOM      7  C   UNL     1      49.057   6.495  15.970  0.00  0.00    +0.000 A 
ATOM      8  N   UNL     1      48.379   5.447  16.504  0.00  0.00    +0.000 NA
ATOM      9  C   UNL     1      49.042   4.544  17.279  0.00  0.00    +0.000 A 
BRANCH   9  10
ATOM     10  C   UNL     1      48.175   3.468  17.906  0.00  0.00    +0.000 C 
BRANCH  10  11
ATOM     11  N   UNL     1      46.783   3.472  17.448  0.00  0.00    +0.000 NA
ATOM     12  H   UNL     1      46.661   4.268  16.822  0.00  0.00    +0.000 HD
ATOM     13  H   UNL     1      46.181   3.653  18.250  0.00  0.00    +0.000 HD
ENDBRANCH  10  11
ENDBRANCH   9  10
ENDBRANCH   1   7
BRANCH   1  14
ATOM     14  C   UNL     1      48.657   7.418  13.659  0.00  0.00    +0.000 C 
BRANCH  14  15
ATOM     15  O   UNL     1      48.474   6.093  13.142  0.00  0.00    +0.000 OA
BRANCH  15  16
ATOM     16  C   UNL     1      47.180   5.767  12.815  0.00  0.00    +0.000 A 
ATOM     17  C   UNL     1      46.384   4.839  13.490  0.00  0.00    +0.000 A 
ATOM     18  C   UNL     1      45.072   4.594  13.076  0.00  0.00    +0.000 A 
ATOM     19  C   UNL     1      44.534   5.281  11.985  0.00  0.00    +0.000 A 
ATOM     20  C   UNL     1      45.331   6.202  11.293  0.00  0.00    +0.000 A 
ATOM     21  C   UNL     1      46.648   6.438  11.710  0.00  0.00    +0.000 A 
BRANCH  19  22
ATOM     22  C   UNL     1      43.128   4.986  11.604  0.00  0.00    +0.000 C 
ATOM     23  N   UNL     1      42.217   5.999  11.718  0.00  0.00    +0.000 N 
ATOM     24  O   UNL     1      42.780   3.868  11.245  0.00  0.00    +0.000 OA
ATOM     25  H   UNL     1      42.403   6.839  12.240  0.00  0.00    +0.000 HD
ATOM     26  H   UNL     1      41.247   5.736  11.579  0.00  0.00    +0.000 HD
ENDBRANCH  19  22
ENDBRANCH  15  16
ENDBRANCH  14  15
ENDBRANCH   1  14
TORSDOF 7
ENDMDL
MODEL 8
REMARK VINA RESULT:    -6.047      3.824      6.563
REMARK INTER + INTRA:          -9.248
REMARK INTER:                  -8.723
REMARK INTRA:                  -0.525
REMARK UNBOUND:                -0.903
REMARK  Name = 
REMARK  9 active torsions:
REMARK  status: ('A' for Active; 'I' for Inactive)
REMARK    1  A    between atoms: C_1  and  C_2
REMARK    2  A    between atoms: C_5  and  C_6
REMARK    3  A    between atoms: C_6  and  C_7
REMARK    4  A    between atoms: C_6  and  C_8
REMARK    5  A    between atoms: C_8  and  O_9
REMARK    6  A    between atoms: O_9  and  C_10
REMARK    7  A    between atoms: C_13  and  C_14
REMARK    8  A    between atoms: C_20  and  C_21
REMARK    9  A    between atoms: C_21  and  N_22
REMARK                            x       y       z     vdW  Elec       q    Type
REMARK                         _______ _______ _______ _____ _____    ______ ____
ROOT
ATOM      1  C   UNL     1      48.047   2.951  16.793  0.00  0.00    +0.000 C 
ATOM      2  C   UNL     1      47.181   2.769  18.044  0.00  0.00    +0.000 C 
ENDROOT
BRANCH   1   7
ATOM      3  C   UNL     1      53.550   4.039  18.258  0.00  0.00    +0.000 C 
ATOM      4  C   UNL     1      52.129   3.759  17.867  0.00  0.00    +0.000 A 
ATOM      5  C   UNL     1      51.224   4.818  17.737  0.00  0.00    +0.000 A 
ATOM      6  C   UNL     1      49.896   4.572  17.394  0.00  0.00    +0.000 A 
ATOM      7  C   UNL     1      49.494   3.265  17.155  0.00  0.00    +0.000 A 
ATOM      8  N   UNL     1      50.363   2.227  17.258  0.00  0.00    +0.000 NA
ATOM      9  C   UNL     1      51.654   2.467  17.621  0.00  0.00    +0.000 A 
BRANCH   9  10
ATOM     10  C   UNL     1      52.516   1.231  17.801  0.00  0.00    +0.000 C 
BRANCH  10  11
ATOM     11  N   UNL     1      51.773   0.028  18.188  0.00  0.00    +0.000 NA
ATOM     12  H   UNL     1      50.872   0.323  18.563  0.00  0.00    +0.000 HD
ATOM     13  H   UNL     1      52.264  -0.418  18.962  0.00  0.00    +0.000 HD
ENDBRANCH  10  11
ENDBRANCH   9  10
ENDBRANCH   1   7
BRANCH   1  14
ATOM     14  C   UNL     1      47.468   4.045  15.876  0.00  0.00    +0.000 C 
BRANCH  14  15
ATOM     15  O   UNL     1      47.710   3.761  14.491  0.00  0.00    +0.000 OA
BRANCH  15  16
ATOM     16  C   UNL     1      46.719   4.168  13.630  0.00  0.00    +0.000 A 
ATOM     17  C   UNL     1      45.949   3.325  12.826  0.00  0.00    +0.000 A 
ATOM     18  C   UNL     1      44.956   3.849  11.993  0.00  0.00    +0.000 A 
ATOM     19  C   UNL     1      44.715   5.224  11.959  0.00  0.00    +0.000 A 
ATOM     20  C   UNL     1      45.494   6.078  12.749  0.00  0.00    +0.000 A 
ATOM     21  C   UNL     1      46.492   5.546  13.578  0.00  0.00    +0.000 A 
BRANCH  19  22
ATOM     22  C   UNL     1      43.636   5.717  11.063  0.00  0.00    +0.000 C 
ATOM     23  N   UNL     1      43.184   6.992  11.262  0.00  0.00    +0.000 N 
ATOM     24  O   UNL     1      43.132   5.000  10.208  0.00  0.00    +0.000 OA
ATOM     25  H   UNL     1      43.385   7.515  12.098  0.00  0.00    +0.000 HD
ATOM     26  H   UNL     1      42.363   7.256  10.728  0.00  0.00    +0.000 HD
ENDBRANCH  19  22
ENDBRANCH  15  16
ENDBRANCH  14  15
ENDBRANCH   1  14
TORSDOF 7
ENDMDL
MODEL 9
REMARK VINA RESULT:    -5.710      3.864      6.216
REMARK INTER + INTRA:          -8.782
REMARK INTER:                  -7.892
REMARK INTRA:                  -0.890
REMARK UNBOUND:                -0.903
REMARK  Name = 
REMARK  9 active torsions:
REMARK  status: ('A' for Active; 'I' for Inactive)
REMARK    1  A    between atoms: C_1  and  C_2
REMARK    2  A    between atoms: C_5  and  C_6
REMARK    3  A    between atoms: C_6  and  C_7
REMARK    4  A    between atoms: C_6  and  C_8
REMARK    5  A    between atoms: C_8  and  O_9
REMARK    6  A    between atoms: O_9  and  C_10
REMARK    7  A    between atoms: C_13  and  C_14
REMARK    8  A    between atoms: C_20  and  C_21
REMARK    9  A    between atoms: C_21  and  N_22
REMARK                            x       y       z     vdW  Elec       q    Type
REMARK                         _______ _______ _______ _____ _____    ______ ____
ROOT
ATOM      1  C   UNL     1      49.069   8.792  13.376  0.00  0.00    +0.000 C 
ATOM      2  C   UNL     1      48.448   8.934  14.770  0.00  0.00    +0.000 C 
ENDROOT
BRANCH   1   7
ATOM      3  C   UNL     1      46.667  12.485   9.608  0.00  0.00    +0.000 C 
ATOM      4  C   UNL     1      47.291  11.539  10.591  0.00  0.00    +0.000 A 
ATOM      5  C   UNL     1      48.672  11.317  10.559  0.00  0.00    +0.000 A 
ATOM      6  C   UNL     1      49.263  10.426  11.452  0.00  0.00    +0.000 A 
ATOM      7  C   UNL     1      48.466   9.786  12.391  0.00  0.00    +0.000 A 
ATOM      8  N   UNL     1      47.127  10.005  12.449  0.00  0.00    +0.000 NA
ATOM      9  C   UNL     1      46.546  10.855  11.556  0.00  0.00    +0.000 A 
BRANCH   9  10
ATOM     10  C   UNL     1      45.035  10.953  11.645  0.00  0.00    +0.000 C 
BRANCH  10  11
ATOM     11  N   UNL     1      44.419   9.988  12.561  0.00  0.00    +0.000 NA
ATOM     12  H   UNL     1      44.081  10.501  13.375  0.00  0.00    +0.000 HD
ATOM     13  H   UNL     1      45.146   9.364  12.906  0.00  0.00    +0.000 HD
ENDBRANCH  10  11
ENDBRANCH   9  10
ENDBRANCH   1   7
BRANCH   1  14
ATOM     14  C   UNL     1      48.922   7.351  12.851  0.00  0.00    +0.000 C 
BRANCH  14  15
ATOM     15  O   UNL     1      47.968   6.601  13.614  0.00  0.00    +0.000 OA
BRANCH  15  16
ATOM     16  C   UNL     1      47.015   5.943  12.875  0.00  0.00    +0.000 A 
ATOM     17  C   UNL     1      46.328   4.796  13.277  0.00  0.00    +0.000 A 
ATOM     18  C   UNL     1      45.366   4.215  12.446  0.00  0.00    +0.000 A 
ATOM     19  C   UNL     1      45.072   4.780  11.203  0.00  0.00    +0.000 A 
ATOM     20  C   UNL     1      45.768   5.921  10.784  0.00  0.00    +0.000 A 
ATOM     21  C   UNL     1      46.736   6.495  11.621  0.00  0.00    +0.000 A 
BRANCH  19  22
ATOM     22  C   UNL     1      44.029   4.123  10.372  0.00  0.00    +0.000 C 
ATOM     23  N   UNL     1      43.994   4.434   9.040  0.00  0.00    +0.000 N 
ATOM     24  O   UNL     1      43.198   3.368  10.861  0.00  0.00    +0.000 OA
ATOM     25  H   UNL     1      44.482   5.225   8.656  0.00  0.00    +0.000 HD
ATOM     26  H   UNL     1      43.196   4.076   8.526  0.00  0.00    +0.000 HD
ENDBRANCH  19  22
ENDBRANCH  15  16
ENDBRANCH  14  15
ENDBRANCH   1  14
TORSDOF 7
ENDMDL
