MODEL 1
REMARK VINA RESULT:    -8.225      0.000      0.000
REMARK INTER + INTRA:         -12.430
REMARK INTER:                 -11.591
REMARK INTRA:                  -0.839
REMARK UNBOUND:                -0.839
REMARK  Name = 
REMARK  7 active torsions:
REMARK  status: ('A' for Active; 'I' for Inactive)
REMARK    1  A    between atoms: C_2  and  C_20
REMARK    2  A    between atoms: N_3  and  C_4
REMARK    3  A    between atoms: C_4  and  C_5
REMARK    4  A    between atoms: C_9  and  C_10
REMARK    5  A    between atoms: C_10  and  N_11
REMARK    6  A    between atoms: N_11  and  C_12
REMARK    7  A    between atoms: C_12  and  C_13
REMARK                            x       y       z     vdW  Elec       q    Type
REMARK                         _______ _______ _______ _____ _____    ______ ____
ROOT
ATOM      1  C   UNL     1      47.191   3.886  14.199  0.00  0.00    +0.000 C 
ENDROOT
BRANCH   1   2
ATOM      2  C   UNL     1      45.991   4.363  13.410  0.00  0.00    +0.000 A 
ATOM      3  C   UNL     1      45.667   5.704  13.372  0.00  0.00    +0.000 A 
ATOM      4  C   UNL     1      44.583   6.047  12.601  0.00  0.00    +0.000 A 
ATOM      5  N   UNL     1      43.859   5.159  11.898  0.00  0.00    +0.000 NA
ATOM      6  C   UNL     1      44.268   3.870  11.945  0.00  0.00    +0.000 A 
ATOM      7  N   UNL     1      45.320   3.435  12.680  0.00  0.00    +0.000 NA
BRANCH   6   8
ATOM      8  C   UNL     1      43.503   2.845  11.128  0.00  0.00    +0.000 C 
BRANCH   8   9
ATOM      9  N   UNL     1      44.260   2.173  10.051  0.00  0.00    +0.000 NA
ATOM     10  H   UNL     1      43.630   1.484   9.633  0.00  0.00    +0.000 HD
BRANCH   9  11
ATOM     11  C   UNL     1      44.645   3.113   8.990  0.00  0.00    +0.000 C 
BRANCH  11  12
ATOM     12  C   UNL     1      45.795   2.567   8.185  0.00  0.00    +0.000 A 
ATOM     13  C   UNL     1      46.087   1.200   8.192  0.00  0.00    +0.000 A 
ATOM     14  C   UNL     1      47.154   0.744   7.431  0.00  0.00    +0.000 A 
ATOM     15  N   UNL     1      47.939   1.544   6.678  0.00  0.00    +0.000 NA
ATOM     16  C   UNL     1      47.643   2.861   6.688  0.00  0.00    +0.000 A 
ATOM     17  C   UNL     1      46.596   3.413   7.412  0.00  0.00    +0.000 A 
ENDBRANCH  11  12
ENDBRANCH   9  11
ENDBRANCH   8   9
ENDBRANCH   6   8
ENDBRANCH   1   2
BRANCH   1  20
ATOM     18  O   UNL     1      48.842   5.827  15.468  0.00  0.00    +0.000 OA
ATOM     19  C   UNL     1      48.024   5.186  16.118  0.00  0.00    +0.000 C 
ATOM     20  N   UNL     1      47.095   4.332  15.567  0.00  0.00    +0.000 N 
ATOM     21  H   UNL     1      46.651   3.665  16.183  0.00  0.00    +0.000 HD
BRANCH  19  22
ATOM     22  C   UNL     1      48.079   5.049  17.567  0.00  0.00    +0.000 A 
ATOM     23  C   UNL     1      47.068   5.509  18.392  0.00  0.00    +0.000 A 
ATOM     24  S   UNL     1      47.658   5.835  19.972  0.00  0.00    +0.000 S 
ATOM     25  C   UNL     1      49.191   5.187  19.593  0.00  0.00    +0.000 A 
ATOM     26  N   UNL     1      50.254   5.275  20.436  0.00  0.00    +0.000 NA
ATOM     27  C   UNL     1      51.315   4.665  20.016  0.00  0.00    +0.000 A 
ATOM     28  N   UNL     1      51.397   3.933  18.857  0.00  0.00    +0.000 N 
ATOM     29  C   UNL     1      50.352   3.825  17.966  0.00  0.00    +0.000 A 
ATOM     30  O   UNL     1      50.416   3.124  16.963  0.00  0.00    +0.000 OA
ATOM     31  C   UNL     1      49.190   4.601  18.348  0.00  0.00    +0.000 A 
ATOM     32  H   UNL     1      52.225   3.403  18.632  0.00  0.00    +0.000 HD
ENDBRANCH  19  22
ENDBRANCH   1  20
TORSDOF 7
ENDMDL
MODEL 2
REMARK VINA RESULT:    -8.202      1.905      2.686
REMARK INTER + INTRA:         -12.398
REMARK INTER:                 -11.376
REMARK INTRA:                  -1.022
REMARK UNBOUND:                -0.839
REMARK  Name = 
REMARK  7 active torsions:
REMARK  status: ('A' for Active; 'I' for Inactive)
REMARK    1  A    between atoms: C_2  and  C_20
REMARK    2  A    between atoms: N_3  and  C_4
REMARK    3  A    between atoms: C_4  and  C_5
REMARK    4  A    between atoms: C_9  and  C_10
REMARK    5  A    between atoms: C_10  and  N_11
REMARK    6  A    between atoms: N_11  and  C_12
REMARK    7  A    between atoms: C_12  and  C_13
REMARK                            x       y       z     vdW  Elec       q    Type
REMARK                         _______ _______ _______ _____ _____    ______ ____
ROOT
ATOM      1  C   UNL     1      47.045   6.689  12.062  0.00  0.00    +0.000 C 
ENDROOT
BRANCH   1   2
ATOM      2  C   UNL     1      45.603   6.309  11.804  0.00  0.00    +0.000 A 
ATOM      3  C   UNL     1      44.643   7.285  11.628  0.00  0.00    +0.000 A 
ATOM      4  C   UNL     1      43.369   6.845  11.364  0.00  0.00    +0.000 A 
ATOM      5  N   UNL     1      43.035   5.547  11.263  0.00  0.00    +0.000 NA
ATOM      6  C   UNL     1      44.040   4.650  11.398  0.00  0.00    +0.000 A 
ATOM      7  N   UNL     1      45.325   4.987  11.665  0.00  0.00    +0.000 NA
BRANCH   6   8
ATOM      8  C   UNL     1      43.711   3.176  11.245  0.00  0.00    +0.000 C 
BRANCH   8   9
ATOM      9  N   UNL     1      44.567   2.411  10.315  0.00  0.00    +0.000 NA
ATOM     10  H   UNL     1      44.146   1.483  10.224  0.00  0.00    +0.000 HD
BRANCH   9  11
ATOM     11  C   UNL     1      44.588   3.013   8.976  0.00  0.00    +0.000 C 
BRANCH  11  12
ATOM     12  C   UNL     1      45.756   2.498   8.177  0.00  0.00    +0.000 A 
ATOM     13  C   UNL     1      46.529   3.366   7.400  0.00  0.00    +0.000 A 
ATOM     14  C   UNL     1      47.597   2.845   6.685  0.00  0.00    +0.000 A 
ATOM     15  N   UNL     1      47.943   1.540   6.691  0.00  0.00    +0.000 NA
ATOM     16  C   UNL     1      47.184   0.718   7.445  0.00  0.00    +0.000 A 
ATOM     17  C   UNL     1      46.097   1.142   8.197  0.00  0.00    +0.000 A 
ENDBRANCH  11  12
ENDBRANCH   9  11
ENDBRANCH   8   9
ENDBRANCH   6   8
ENDBRANCH   1   2
BRANCH   1  20
ATOM     18  O   UNL     1      49.542   6.773  13.425  0.00  0.00    +0.000 OA
ATOM     19  C   UNL     1      48.491   6.839  14.050  0.00  0.00    +0.000 C 
ATOM     20  N   UNL     1      47.248   6.944  13.467  0.00  0.00    +0.000 N 
ATOM     21  H   UNL     1      46.443   6.731  14.040  0.00  0.00    +0.000 HD
BRANCH  19  22
ATOM     22  C   UNL     1      48.387   6.570  15.478  0.00  0.00    +0.000 A 
ATOM     23  C   UNL     1      48.832   7.466  16.434  0.00  0.00    +0.000 A 
ATOM     24  S   UNL     1      49.210   6.666  17.905  0.00  0.00    +0.000 S 
ATOM     25  C   UNL     1      48.603   5.182  17.319  0.00  0.00    +0.000 A 
ATOM     26  N   UNL     1      48.742   4.012  17.996  0.00  0.00    +0.000 NA
ATOM     27  C   UNL     1      48.158   3.003  17.436  0.00  0.00    +0.000 A 
ATOM     28  N   UNL     1      47.404   3.064  16.290  0.00  0.00    +0.000 N 
ATOM     29  C   UNL     1      47.244   4.223  15.563  0.00  0.00    +0.000 A 
ATOM     30  O   UNL     1      46.524   4.280  14.573  0.00  0.00    +0.000 OA
ATOM     31  C   UNL     1      47.991   5.343  16.096  0.00  0.00    +0.000 A 
ATOM     32  H   UNL     1      46.896   2.259  15.956  0.00  0.00    +0.000 HD
ENDBRANCH  19  22
ENDBRANCH   1  20
TORSDOF 7
ENDMDL
MODEL 3
REMARK VINA RESULT:    -8.097      1.894      2.190
REMARK INTER + INTRA:         -12.250
REMARK INTER:                 -11.392
REMARK INTRA:                  -0.858
REMARK UNBOUND:                -0.839
REMARK  Name = 
REMARK  7 active torsions:
REMARK  status: ('A' for Active; 'I' for Inactive)
REMARK    1  A    between atoms: C_2  and  C_20
REMARK    2  A    between atoms: N_3  and  C_4
REMARK    3  A    between atoms: C_4  and  C_5
REMARK    4  A    between atoms: C_9  and  C_10
REMARK    5  A    between atoms: C_10  and  N_11
REMARK    6  A    between atoms: N_11  and  C_12
REMARK    7  A    between atoms: C_12  and  C_13
REMARK                            x       y       z     vdW  Elec       q    Type
REMARK                         _______ _______ _______ _____ _____    ______ ____
ROOT
ATOM      1  C   UNL     1      46.868   3.881  14.610  0.00  0.00    +0.000 C 
ENDROOT
BRANCH   1   2
ATOM      2  C   UNL     1      46.809   4.947  13.538  0.00  0.00    +0.000 A 
ATOM      3  C   UNL     1      47.680   6.017  13.567  0.00  0.00    +0.000 A 
ATOM      4  C   UNL     1      47.576   6.915  12.533  0.00  0.00    +0.000 A 
ATOM      5  N   UNL     1      46.696   6.791  11.524  0.00  0.00    +0.000 NA
ATOM      6  C   UNL     1      45.909   5.689  11.538  0.00  0.00    +0.000 A 
ATOM      7  N   UNL     1      45.936   4.753  12.516  0.00  0.00    +0.000 NA
BRANCH   6   8
ATOM      8  C   UNL     1      44.935   5.490  10.392  0.00  0.00    +0.000 C 
BRANCH   8   9
ATOM      9  N   UNL     1      45.534   5.202   9.071  0.00  0.00    +0.000 NA
ATOM     10  H   UNL     1      46.506   4.934   9.241  0.00  0.00    +0.000 HD
BRANCH   9  11
ATOM     11  C   UNL     1      44.877   4.064   8.415  0.00  0.00    +0.000 C 
BRANCH  11  12
ATOM     12  C   UNL     1      45.899   3.099   7.873  0.00  0.00    +0.000 A 
ATOM     13  C   UNL     1      46.875   3.525   6.968  0.00  0.00    +0.000 A 
ATOM     14  C   UNL     1      47.797   2.599   6.501  0.00  0.00    +0.000 A 
ATOM     15  N   UNL     1      47.812   1.300   6.866  0.00  0.00    +0.000 NA
ATOM     16  C   UNL     1      46.860   0.907   7.739  0.00  0.00    +0.000 A 
ATOM     17  C   UNL     1      45.897   1.756   8.265  0.00  0.00    +0.000 A 
ENDBRANCH  11  12
ENDBRANCH   9  11
ENDBRANCH   8   9
ENDBRANCH   6   8
ENDBRANCH   1   2
BRANCH   1  20
ATOM     18  O   UNL     1      46.501   3.170  17.342  0.00  0.00    +0.000 OA
ATOM     19  C   UNL     1      47.307   4.037  17.029  0.00  0.00    +0.000 C 
ATOM     20  N   UNL     1      47.648   4.346  15.731  0.00  0.00    +0.000 N 
ATOM     21  H   UNL     1      48.110   5.230  15.567  0.00  0.00    +0.000 HD
BRANCH  19  22
ATOM     22  C   UNL     1      47.832   5.022  17.965  0.00  0.00    +0.000 A 
ATOM     23  C   UNL     1      47.027   5.676  18.880  0.00  0.00    +0.000 A 
ATOM     24  S   UNL     1      47.712   7.181  19.345  0.00  0.00    +0.000 S 
ATOM     25  C   UNL     1      49.147   6.858  18.478  0.00  0.00    +0.000 A 
ATOM     26  N   UNL     1      50.126   7.785  18.308  0.00  0.00    +0.000 NA
ATOM     27  C   UNL     1      51.172   7.342  17.687  0.00  0.00    +0.000 A 
ATOM     28  N   UNL     1      51.351   6.048  17.267  0.00  0.00    +0.000 N 
ATOM     29  C   UNL     1      50.383   5.077  17.407  0.00  0.00    +0.000 A 
ATOM     30  O   UNL     1      50.574   3.911  17.080  0.00  0.00    +0.000 OA
ATOM     31  C   UNL     1      49.152   5.573  17.984  0.00  0.00    +0.000 A 
ATOM     32  H   UNL     1      52.228   5.743  16.874  0.00  0.00    +0.000 HD
ENDBRANCH  19  22
ENDBRANCH   1  20
TORSDOF 7
ENDMDL
MODEL 4
REMARK VINA RESULT:    -7.970      1.702      2.199
REMARK INTER + INTRA:         -12.071
REMARK INTER:                 -11.157
REMARK INTRA:                  -0.913
REMARK UNBOUND:                -0.839
REMARK  Name = 
REMARK  7 active torsions:
REMARK  status: ('A' for Active; 'I' for Inactive)
REMARK    1  A    between atoms: C_2  and  C_20
REMARK    2  A    between atoms: N_3  and  C_4
REMARK    3  A    between atoms: C_4  and  C_5
REMARK    4  A    between atoms: C_9  and  C_10
REMARK    5  A    between atoms: C_10  and  N_11
REMARK    6  A    between atoms: N_11  and  C_12
REMARK    7  A    between atoms: C_12  and  C_13
REMARK                            x       y       z     vdW  Elec       q    Type
REMARK                         _______ _______ _______ _____ _____    ______ ____
ROOT
ATOM      1  C   UNL     1      46.993   4.253  15.182  0.00  0.00    +0.000 C 
ENDROOT
BRANCH   1   2
ATOM      2  C   UNL     1      46.436   4.693  13.846  0.00  0.00    +0.000 A 
ATOM      3  C   UNL     1      46.884   5.854  13.250  0.00  0.00    +0.000 A 
ATOM      4  C   UNL     1      46.347   6.154  12.022  0.00  0.00    +0.000 A 
ATOM      5  N   UNL     1      45.443   5.381  11.395  0.00  0.00    +0.000 NA
ATOM      6  C   UNL     1      45.091   4.233  12.019  0.00  0.00    +0.000 A 
ATOM      7  N   UNL     1      45.561   3.855  13.232  0.00  0.00    +0.000 NA
BRANCH   6   8
ATOM      8  C   UNL     1      44.107   3.311  11.322  0.00  0.00    +0.000 C 
BRANCH   8   9
ATOM      9  N   UNL     1      44.673   2.414  10.293  0.00  0.00    +0.000 NA
ATOM     10  H   UNL     1      44.045   1.609  10.226  0.00  0.00    +0.000 HD
BRANCH   9  11
ATOM     11  C   UNL     1      44.702   3.053   8.971  0.00  0.00    +0.000 C 
BRANCH  11  12
ATOM     12  C   UNL     1      45.829   2.504   8.137  0.00  0.00    +0.000 A 
ATOM     13  C   UNL     1      46.132   1.139   8.155  0.00  0.00    +0.000 A 
ATOM     14  C   UNL     1      47.176   0.679   7.366  0.00  0.00    +0.000 A 
ATOM     15  N   UNL     1      47.929   1.473   6.574  0.00  0.00    +0.000 NA
ATOM     16  C   UNL     1      47.623   2.788   6.573  0.00  0.00    +0.000 A 
ATOM     17  C   UNL     1      46.597   3.344   7.324  0.00  0.00    +0.000 A 
ENDBRANCH  11  12
ENDBRANCH   9  11
ENDBRANCH   8   9
ENDBRANCH   6   8
ENDBRANCH   1   2
BRANCH   1  20
ATOM     18  O   UNL     1      49.426   4.044  16.645  0.00  0.00    +0.000 OA
ATOM     19  C   UNL     1      48.824   5.110  16.590  0.00  0.00    +0.000 C 
ATOM     20  N   UNL     1      47.720   5.336  15.798  0.00  0.00    +0.000 N 
ATOM     21  H   UNL     1      47.147   6.141  16.013  0.00  0.00    +0.000 HD
BRANCH  19  22
ATOM     22  C   UNL     1      49.036   6.202  17.530  0.00  0.00    +0.000 A 
ATOM     23  C   UNL     1      50.019   7.158  17.343  0.00  0.00    +0.000 A 
ATOM     24  S   UNL     1      50.486   7.867  18.836  0.00  0.00    +0.000 S 
ATOM     25  C   UNL     1      49.254   7.038  19.678  0.00  0.00    +0.000 A 
ATOM     26  N   UNL     1      49.154   7.052  21.034  0.00  0.00    +0.000 NA
ATOM     27  C   UNL     1      48.117   6.429  21.495  0.00  0.00    +0.000 A 
ATOM     28  N   UNL     1      47.145   5.840  20.726  0.00  0.00    +0.000 N 
ATOM     29  C   UNL     1      47.209   5.789  19.350  0.00  0.00    +0.000 A 
ATOM     30  O   UNL     1      46.309   5.310  18.670  0.00  0.00    +0.000 OA
ATOM     31  C   UNL     1      48.422   6.367  18.811  0.00  0.00    +0.000 A 
ATOM     32  H   UNL     1      46.312   5.452  21.143  0.00  0.00    +0.000 HD
ENDBRANCH  19  22
ENDBRANCH   1  20
TORSDOF 7
ENDMDL
MODEL 5
REMARK VINA RESULT:    -7.691      2.101      2.708
REMARK INTER + INTRA:         -11.678
REMARK INTER:                 -10.862
REMARK INTRA:                  -0.816
REMARK UNBOUND:                -0.839
REMARK  Name = 
REMARK  7 active torsions:
REMARK  status: ('A' for Active; 'I' for Inactive)
REMARK    1  A    between atoms: C_2  and  C_20
REMARK    2  A    between atoms: N_3  and  C_4
REMARK    3  A    between atoms: C_4  and  C_5
REMARK    4  A    between atoms: C_9  and  C_10
REMARK    5  A    between atoms: C_10  and  N_11
REMARK    6  A    between atoms: N_11  and  C_12
REMARK    7  A    between atoms: C_12  and  C_13
REMARK                            x       y       z     vdW  Elec       q    Type
REMARK                         _______ _______ _______ _____ _____    ______ ____
ROOT
ATOM      1  C   UNL     1      46.976   4.127  15.143  0.00  0.00    +0.000 C 
ENDROOT
BRANCH   1   2
ATOM      2  C   UNL     1      46.456   4.632  13.815  0.00  0.00    +0.000 A 
ATOM      3  C   UNL     1      46.985   5.772  13.244  0.00  0.00    +0.000 A 
ATOM      4  C   UNL     1      46.475   6.134  12.021  0.00  0.00    +0.000 A 
ATOM      5  N   UNL     1      45.522   5.438  11.377  0.00  0.00    +0.000 NA
ATOM      6  C   UNL     1      45.089   4.304  11.976  0.00  0.00    +0.000 A 
ATOM      7  N   UNL     1      45.527   3.870  13.182  0.00  0.00    +0.000 NA
BRANCH   6   8
ATOM      8  C   UNL     1      44.046   3.467  11.257  0.00  0.00    +0.000 C 
BRANCH   8   9
ATOM      9  N   UNL     1      44.559   2.504  10.261  0.00  0.00    +0.000 NA
ATOM     10  H   UNL     1      43.891   1.729  10.229  0.00  0.00    +0.000 HD
BRANCH   9  11
ATOM     11  C   UNL     1      44.610   3.090   8.915  0.00  0.00    +0.000 C 
BRANCH  11  12
ATOM     12  C   UNL     1      45.788   2.555   8.145  0.00  0.00    +0.000 A 
ATOM     13  C   UNL     1      46.092   1.191   8.159  0.00  0.00    +0.000 A 
ATOM     14  C   UNL     1      47.186   0.746   7.430  0.00  0.00    +0.000 A 
ATOM     15  N   UNL     1      47.985   1.554   6.701  0.00  0.00    +0.000 NA
ATOM     16  C   UNL     1      47.677   2.868   6.702  0.00  0.00    +0.000 A 
ATOM     17  C   UNL     1      46.604   3.410   7.395  0.00  0.00    +0.000 A 
ENDBRANCH  11  12
ENDBRANCH   9  11
ENDBRANCH   8   9
ENDBRANCH   6   8
ENDBRANCH   1   2
BRANCH   1  20
ATOM     18  O   UNL     1      49.265   3.970  16.829  0.00  0.00    +0.000 OA
ATOM     19  C   UNL     1      48.603   5.000  16.774  0.00  0.00    +0.000 C 
ATOM     20  N   UNL     1      47.570   5.211  15.888  0.00  0.00    +0.000 N 
ATOM     21  H   UNL     1      46.929   5.966  16.089  0.00  0.00    +0.000 HD
BRANCH  19  22
ATOM     22  C   UNL     1      48.654   6.043  17.789  0.00  0.00    +0.000 A 
ATOM     23  C   UNL     1      48.499   5.772  19.137  0.00  0.00    +0.000 A 
ATOM     24  S   UNL     1      47.938   7.154  19.987  0.00  0.00    +0.000 S 
ATOM     25  C   UNL     1      48.088   8.137  18.600  0.00  0.00    +0.000 A 
ATOM     26  N   UNL     1      47.636   9.418  18.555  0.00  0.00    +0.000 NA
ATOM     27  C   UNL     1      47.900  10.034  17.448  0.00  0.00    +0.000 A 
ATOM     28  N   UNL     1      48.619   9.507  16.404  0.00  0.00    +0.000 N 
ATOM     29  C   UNL     1      49.086   8.211  16.398  0.00  0.00    +0.000 A 
ATOM     30  O   UNL     1      49.774   7.768  15.486  0.00  0.00    +0.000 OA
ATOM     31  C   UNL     1      48.697   7.456  17.571  0.00  0.00    +0.000 A 
ATOM     32  H   UNL     1      48.872  10.072  15.607  0.00  0.00    +0.000 HD
ENDBRANCH  19  22
ENDBRANCH   1  20
TORSDOF 7
ENDMDL
MODEL 6
REMARK VINA RESULT:    -7.380      3.629      8.599
REMARK INTER + INTRA:         -11.239
REMARK INTER:                  -9.954
REMARK INTRA:                  -1.285
REMARK UNBOUND:                -0.839
REMARK  Name = 
REMARK  7 active torsions:
REMARK  status: ('A' for Active; 'I' for Inactive)
REMARK    1  A    between atoms: C_2  and  C_20
REMARK    2  A    between atoms: N_3  and  C_4
REMARK    3  A    between atoms: C_4  and  C_5
REMARK    4  A    between atoms: C_9  and  C_10
REMARK    5  A    between atoms: C_10  and  N_11
REMARK    6  A    between atoms: N_11  and  C_12
REMARK    7  A    between atoms: C_12  and  C_13
REMARK                            x       y       z     vdW  Elec       q    Type
REMARK                         _______ _______ _______ _____ _____    ______ ____
ROOT
ATOM      1  C   UNL     1      46.994   8.224  12.881  0.00  0.00    +0.000 C 
ENDROOT
BRANCH   1   2
ATOM      2  C   UNL     1      48.335   8.023  13.552  0.00  0.00    +0.000 A 
ATOM      3  C   UNL     1      49.506   8.191  12.841  0.00  0.00    +0.000 A 
ATOM      4  C   UNL     1      50.675   8.023  13.542  0.00  0.00    +0.000 A 
ATOM      5  N   UNL     1      50.720   7.723  14.852  0.00  0.00    +0.000 NA
ATOM      6  C   UNL     1      49.532   7.624  15.493  0.00  0.00    +0.000 A 
ATOM      7  N   UNL     1      48.330   7.768  14.886  0.00  0.00    +0.000 NA
BRANCH   6   8
ATOM      8  C   UNL     1      49.545   7.332  16.982  0.00  0.00    +0.000 C 
BRANCH   8   9
ATOM      9  N   UNL     1      48.328   6.697  17.531  0.00  0.00    +0.000 NA
ATOM     10  H   UNL     1      47.811   6.314  16.735  0.00  0.00    +0.000 HD
BRANCH   9  11
ATOM     11  C   UNL     1      48.655   5.574  18.419  0.00  0.00    +0.000 C 
BRANCH  11  12
ATOM     12  C   UNL     1      48.821   4.301  17.631  0.00  0.00    +0.000 A 
ATOM     13  C   UNL     1      49.924   3.469  17.841  0.00  0.00    +0.000 A 
ATOM     14  C   UNL     1      50.030   2.305  17.094  0.00  0.00    +0.000 A 
ATOM     15  N   UNL     1      49.129   1.921  16.165  0.00  0.00    +0.000 NA
ATOM     16  C   UNL     1      48.072   2.739  15.975  0.00  0.00    +0.000 A 
ATOM     17  C   UNL     1      47.875   3.922  16.673  0.00  0.00    +0.000 A 
ENDBRANCH  11  12
ENDBRANCH   9  11
ENDBRANCH   8   9
ENDBRANCH   6   8
ENDBRANCH   1   2
BRANCH   1  20
ATOM     18  O   UNL     1      44.610   7.752  11.400  0.00  0.00    +0.000 OA
ATOM     19  C   UNL     1      45.582   7.019  11.262  0.00  0.00    +0.000 C 
ATOM     20  N   UNL     1      46.814   7.252  11.831  0.00  0.00    +0.000 N 
ATOM     21  H   UNL     1      47.461   6.477  11.878  0.00  0.00    +0.000 HD
BRANCH  19  22
ATOM     22  C   UNL     1      45.506   5.683  10.687  0.00  0.00    +0.000 A 
ATOM     23  C   UNL     1      45.782   5.434   9.355  0.00  0.00    +0.000 A 
ATOM     24  S   UNL     1      44.993   4.008   8.814  0.00  0.00    +0.000 S 
ATOM     25  C   UNL     1      44.455   3.641  10.391  0.00  0.00    +0.000 A 
ATOM     26  N   UNL     1      43.587   2.628  10.655  0.00  0.00    +0.000 NA
ATOM     27  C   UNL     1      43.347   2.450  11.914  0.00  0.00    +0.000 A 
ATOM     28  N   UNL     1      43.933   3.155  12.936  0.00  0.00    +0.000 N 
ATOM     29  C   UNL     1      44.808   4.197  12.719  0.00  0.00    +0.000 A 
ATOM     30  O   UNL     1      45.369   4.782  13.638  0.00  0.00    +0.000 OA
ATOM     31  C   UNL     1      44.999   4.503  11.317  0.00  0.00    +0.000 A 
ATOM     32  H   UNL     1      43.775   2.904  13.900  0.00  0.00    +0.000 HD
ENDBRANCH  19  22
ENDBRANCH   1  20
TORSDOF 7
ENDMDL
MODEL 7
REMARK VINA RESULT:    -7.112      4.505      6.042
REMARK INTER + INTRA:         -10.862
REMARK INTER:                 -10.043
REMARK INTRA:                  -0.819
REMARK UNBOUND:                -0.839
REMARK  Name = 
REMARK  7 active torsions:
REMARK  status: ('A' for Active; 'I' for Inactive)
REMARK    1  A    between atoms: C_2  and  C_20
REMARK    2  A    between atoms: N_3  and  C_4
REMARK    3  A    between atoms: C_4  and  C_5
REMARK    4  A    between atoms: C_9  and  C_10
REMARK    5  A    between atoms: C_10  and  N_11
REMARK    6  A    between atoms: N_11  and  C_12
REMARK    7  A    between atoms: C_12  and  C_13
REMARK                            x       y       z     vdW  Elec       q    Type
REMARK                         _______ _______ _______ _____ _____    ______ ____
ROOT
ATOM      1  C   UNL     1      44.009   5.451  10.331  0.00  0.00    +0.000 C 
ENDROOT
BRANCH   1   2
ATOM      2  C   UNL     1      44.502   4.184   9.666  0.00  0.00    +0.000 A 
ATOM      3  C   UNL     1      44.138   2.948  10.161  0.00  0.00    +0.000 A 
ATOM      4  C   UNL     1      44.604   1.855   9.471  0.00  0.00    +0.000 A 
ATOM      5  N   UNL     1      45.363   1.941   8.365  0.00  0.00    +0.000 NA
ATOM      6  C   UNL     1      45.636   3.187   7.912  0.00  0.00    +0.000 A 
ATOM      7  N   UNL     1      45.227   4.322   8.527  0.00  0.00    +0.000 NA
BRANCH   6   8
ATOM      8  C   UNL     1      46.453   3.323   6.640  0.00  0.00    +0.000 C 
BRANCH   8   9
ATOM      9  N   UNL     1      46.930   2.062   6.034  0.00  0.00    +0.000 NA
ATOM     10  H   UNL     1      46.199   1.364   6.194  0.00  0.00    +0.000 HD
BRANCH   9  11
ATOM     11  C   UNL     1      47.100   2.189   4.581  0.00  0.00    +0.000 C 
BRANCH  11  12
ATOM     12  C   UNL     1      46.660   0.931   3.880  0.00  0.00    +0.000 A 
ATOM     13  C   UNL     1      45.790   0.988   2.787  0.00  0.00    +0.000 A 
ATOM     14  C   UNL     1      45.417  -0.198   2.172  0.00  0.00    +0.000 A 
ATOM     15  N   UNL     1      45.841  -1.418   2.566  0.00  0.00    +0.000 NA
ATOM     16  C   UNL     1      46.677  -1.452   3.625  0.00  0.00    +0.000 A 
ATOM     17  C   UNL     1      47.111  -0.323   4.305  0.00  0.00    +0.000 A 
ENDBRANCH  11  12
ENDBRANCH   9  11
ENDBRANCH   8   9
ENDBRANCH   6   8
ENDBRANCH   1   2
BRANCH   1  20
ATOM     18  O   UNL     1      44.595   5.924  13.076  0.00  0.00    +0.000 OA
ATOM     19  C   UNL     1      45.246   6.477  12.198  0.00  0.00    +0.000 C 
ATOM     20  N   UNL     1      45.124   6.203  10.854  0.00  0.00    +0.000 N 
ATOM     21  H   UNL     1      45.501   6.877  10.202  0.00  0.00    +0.000 HD
BRANCH  19  22
ATOM     22  C   UNL     1      46.057   7.665  12.426  0.00  0.00    +0.000 A 
ATOM     23  C   UNL     1      45.516   8.938  12.443  0.00  0.00    +0.000 A 
ATOM     24  S   UNL     1      46.699  10.121  12.056  0.00  0.00    +0.000 S 
ATOM     25  C   UNL     1      47.945   8.954  12.057  0.00  0.00    +0.000 A 
ATOM     26  N   UNL     1      49.213   9.233  11.653  0.00  0.00    +0.000 NA
ATOM     27  C   UNL     1      50.041   8.248  11.789  0.00  0.00    +0.000 A 
ATOM     28  N   UNL     1      49.732   7.029  12.339  0.00  0.00    +0.000 N 
ATOM     29  C   UNL     1      48.460   6.695  12.751  0.00  0.00    +0.000 A 
ATOM     30  O   UNL     1      48.207   5.626  13.292  0.00  0.00    +0.000 OA
ATOM     31  C   UNL     1      47.484   7.733  12.494  0.00  0.00    +0.000 A 
ATOM     32  H   UNL     1      50.446   6.335  12.505  0.00  0.00    +0.000 HD
ENDBRANCH  19  22
ENDBRANCH   1  20
TORSDOF 7
ENDMDL
MODEL 8
REMARK VINA RESULT:    -6.892      3.610      9.042
REMARK INTER + INTRA:         -10.552
REMARK INTER:                  -9.591
REMARK INTRA:                  -0.961
REMARK UNBOUND:                -0.839
REMARK  Name = 
REMARK  7 active torsions:
REMARK  status: ('A' for Active; 'I' for Inactive)
REMARK    1  A    between atoms: C_2  and  C_20
REMARK    2  A    between atoms: N_3  and  C_4
REMARK    3  A    between atoms: C_4  and  C_5
REMARK    4  A    between atoms: C_9  and  C_10
REMARK    5  A    between atoms: C_10  and  N_11
REMARK    6  A    between atoms: N_11  and  C_12
REMARK    7  A    between atoms: C_12  and  C_13
REMARK                            x       y       z     vdW  Elec       q    Type
REMARK                         _______ _______ _______ _____ _____    ______ ____
ROOT
ATOM      1  C   UNL     1      46.946   8.242  12.912  0.00  0.00    +0.000 C 
ENDROOT
BRANCH   1   2
ATOM      2  C   UNL     1      48.130   7.883  13.785  0.00  0.00    +0.000 A 
ATOM      3  C   UNL     1      49.291   8.626  13.727  0.00  0.00    +0.000 A 
ATOM      4  C   UNL     1      50.298   8.248  14.581  0.00  0.00    +0.000 A 
ATOM      5  N   UNL     1      50.195   7.226  15.448  0.00  0.00    +0.000 NA
ATOM      6  C   UNL     1      49.008   6.577  15.482  0.00  0.00    +0.000 A 
ATOM      7  N   UNL     1      47.960   6.873  14.676  0.00  0.00    +0.000 NA
BRANCH   6   8
ATOM      8  C   UNL     1      48.837   5.446  16.480  0.00  0.00    +0.000 C 
BRANCH   8   9
ATOM      9  N   UNL     1      50.082   4.810  16.961  0.00  0.00    +0.000 NA
ATOM     10  H   UNL     1      50.434   5.392  17.726  0.00  0.00    +0.000 HD
BRANCH   9  11
ATOM     11  C   UNL     1      49.830   3.473  17.513  0.00  0.00    +0.000 C 
BRANCH  11  12
ATOM     12  C   UNL     1      51.126   2.765  17.809  0.00  0.00    +0.000 A 
ATOM     13  C   UNL     1      52.166   3.425  18.470  0.00  0.00    +0.000 A 
ATOM     14  C   UNL     1      53.339   2.729  18.724  0.00  0.00    +0.000 A 
ATOM     15  N   UNL     1      53.544   1.442  18.369  0.00  0.00    +0.000 NA
ATOM     16  C   UNL     1      52.530   0.824  17.729  0.00  0.00    +0.000 A 
ATOM     17  C   UNL     1      51.318   1.432  17.432  0.00  0.00    +0.000 A 
ENDBRANCH  11  12
ENDBRANCH   9  11
ENDBRANCH   8   9
ENDBRANCH   6   8
ENDBRANCH   1   2
BRANCH   1  20
ATOM     18  O   UNL     1      44.605   7.780  11.360  0.00  0.00    +0.000 OA
ATOM     19  C   UNL     1      45.576   7.040  11.255  0.00  0.00    +0.000 C 
ATOM     20  N   UNL     1      46.792   7.267  11.860  0.00  0.00    +0.000 N 
ATOM     21  H   UNL     1      47.433   6.488  11.929  0.00  0.00    +0.000 HD
BRANCH  19  22
ATOM     22  C   UNL     1      45.509   5.703  10.682  0.00  0.00    +0.000 A 
ATOM     23  C   UNL     1      45.789   5.453   9.350  0.00  0.00    +0.000 A 
ATOM     24  S   UNL     1      45.010   4.021   8.810  0.00  0.00    +0.000 S 
ATOM     25  C   UNL     1      44.471   3.654  10.387  0.00  0.00    +0.000 A 
ATOM     26  N   UNL     1      43.608   2.637  10.650  0.00  0.00    +0.000 NA
ATOM     27  C   UNL     1      43.366   2.460  11.909  0.00  0.00    +0.000 A 
ATOM     28  N   UNL     1      43.946   3.169  12.931  0.00  0.00    +0.000 N 
ATOM     29  C   UNL     1      44.816   4.216  12.714  0.00  0.00    +0.000 A 
ATOM     30  O   UNL     1      45.371   4.806  13.633  0.00  0.00    +0.000 OA
ATOM     31  C   UNL     1      45.008   4.521  11.312  0.00  0.00    +0.000 A 
ATOM     32  H   UNL     1      43.787   2.920  13.896  0.00  0.00    +0.000 HD
ENDBRANCH  19  22
ENDBRANCH   1  20
TORSDOF 7
ENDMDL
MODEL 9
REMARK VINA RESULT:    -6.767      4.000      8.284
REMARK INTER + INTRA:         -10.375
REMARK INTER:                  -9.331
REMARK INTRA:                  -1.044
REMARK UNBOUND:                -0.839
REMARK  Name = 
REMARK  7 active torsions:
REMARK  status: ('A' for Active; 'I' for Inactive)
REMARK    1  A    between atoms: C_2  and  C_20
REMARK    2  A    between atoms: N_3  and  C_4
REMARK    3  A    between atoms: C_4  and  C_5
REMARK    4  A    between atoms: C_9  and  C_10
REMARK    5  A    between atoms: C_10  and  N_11
REMARK    6  A    between atoms: N_11  and  C_12
REMARK    7  A    between atoms: C_12  and  C_13
REMARK                            x       y       z     vdW  Elec       q    Type
REMARK                         _______ _______ _______ _____ _____    ______ ____
ROOT
ATOM      1  C   UNL     1      49.119   8.869  15.988  0.00  0.00    +0.000 C 
ENDROOT
BRANCH   1   2
ATOM      2  C   UNL     1      48.976   8.561  17.463  0.00  0.00    +0.000 A 
ATOM      3  C   UNL     1      49.488   9.424  18.410  0.00  0.00    +0.000 A 
ATOM      4  C   UNL     1      49.279   9.080  19.723  0.00  0.00    +0.000 A 
ATOM      5  N   UNL     1      48.609   7.980  20.107  0.00  0.00    +0.000 NA
ATOM      6  C   UNL     1      48.093   7.209  19.121  0.00  0.00    +0.000 A 
ATOM      7  N   UNL     1      48.251   7.463  17.801  0.00  0.00    +0.000 NA
BRANCH   6   8
ATOM      8  C   UNL     1      47.291   5.983  19.517  0.00  0.00    +0.000 C 
BRANCH   8   9
ATOM      9  N   UNL     1      48.071   4.764  19.818  0.00  0.00    +0.000 NA
ATOM     10  H   UNL     1      47.545   3.975  19.436  0.00  0.00    +0.000 HD
BRANCH   9  11
ATOM     11  C   UNL     1      49.380   4.778  19.150  0.00  0.00    +0.000 C 
BRANCH  11  12
ATOM     12  C   UNL     1      49.461   3.689  18.114  0.00  0.00    +0.000 A 
ATOM     13  C   UNL     1      50.653   2.988  17.905  0.00  0.00    +0.000 A 
ATOM     14  C   UNL     1      50.678   1.990  16.942  0.00  0.00    +0.000 A 
ATOM     15  N   UNL     1      49.614   1.649  16.183  0.00  0.00    +0.000 NA
ATOM     16  C   UNL     1      48.474   2.339  16.397  0.00  0.00    +0.000 A 
ATOM     17  C   UNL     1      48.348   3.351  17.338  0.00  0.00    +0.000 A 
ENDBRANCH  11  12
ENDBRANCH   9  11
ENDBRANCH   8   9
ENDBRANCH   6   8
ENDBRANCH   1   2
BRANCH   1  20
ATOM     18  O   UNL     1      49.490   6.815  14.052  0.00  0.00    +0.000 OA
ATOM     19  C   UNL     1      48.382   7.304  14.234  0.00  0.00    +0.000 C 
ATOM     20  N   UNL     1      48.085   8.198  15.239  0.00  0.00    +0.000 N 
ATOM     21  H   UNL     1      47.233   8.735  15.150  0.00  0.00    +0.000 HD
BRANCH  19  22
ATOM     22  C   UNL     1      47.291   7.201  13.274  0.00  0.00    +0.000 A 
ATOM     23  C   UNL     1      46.878   8.274  12.505  0.00  0.00    +0.000 A 
ATOM     24  S   UNL     1      45.244   8.091  12.010  0.00  0.00    +0.000 S 
ATOM     25  C   UNL     1      45.167   6.514  12.659  0.00  0.00    +0.000 A 
ATOM     26  N   UNL     1      44.010   5.804  12.730  0.00  0.00    +0.000 NA
ATOM     27  C   UNL     1      44.153   4.601  13.184  0.00  0.00    +0.000 A 
ATOM     28  N   UNL     1      45.352   4.023  13.523  0.00  0.00    +0.000 N 
ATOM     29  C   UNL     1      46.548   4.705  13.480  0.00  0.00    +0.000 A 
ATOM     30  O   UNL     1      47.619   4.165  13.731  0.00  0.00    +0.000 OA
ATOM     31  C   UNL     1      46.403   6.094  13.096  0.00  0.00    +0.000 A 
ATOM     32  H   UNL     1      45.408   3.050  13.781  0.00  0.00    +0.000 HD
ENDBRANCH  19  22
ENDBRANCH   1  20
TORSDOF 7
ENDMDL
