MODEL 1
REMARK VINA RESULT:    -8.669      0.000      0.000
REMARK INTER + INTRA:         -12.490
REMARK INTER:                 -11.709
REMARK INTRA:                  -0.781
REMARK UNBOUND:                -0.781
REMARK  Name = 
REMARK  6 active torsions:
REMARK  status: ('A' for Active; 'I' for Inactive)
REMARK    1  A    between atoms: C_2  and  C_20
REMARK    2  A    between atoms: N_3  and  C_4
REMARK    3  A    between atoms: C_4  and  C_5
REMARK    4  A    between atoms: C_8  and  C_9
REMARK    5  A    between atoms: C_9  and  C_10
REMARK    6  A    between atoms: C_10  and  N_11
REMARK                            x       y       z     vdW  Elec       q    Type
REMARK                         _______ _______ _______ _____ _____    ______ ____
ROOT
ATOM      1  C   UNL     1      46.386   7.329  12.358  0.00  0.00    +0.000 A 
ATOM      2  C   UNL     1      46.314   8.449  13.194  0.00  0.00    +0.000 A 
ATOM      3  C   UNL     1      47.347   8.738  14.092  0.00  0.00    +0.000 A 
ATOM      4  C   UNL     1      48.486   7.924  14.171  0.00  0.00    +0.000 A 
ATOM      5  C   UNL     1      48.559   6.811  13.319  0.00  0.00    +0.000 A 
ATOM      6  C   UNL     1      47.526   6.522  12.420  0.00  0.00    +0.000 A 
ENDROOT
BRANCH   1   7
ATOM      7  C   UNL     1      45.260   7.002  11.415  0.00  0.00    +0.000 C 
BRANCH   7  10
ATOM      8  O   UNL     1      42.965   5.570  10.705  0.00  0.00    +0.000 OA
ATOM      9  C   UNL     1      44.060   5.018  10.625  0.00  0.00    +0.000 C 
ATOM     10  N   UNL     1      45.230   5.607  11.059  0.00  0.00    +0.000 N 
ATOM     11  H   UNL     1      46.087   5.099  10.862  0.00  0.00    +0.000 HD
BRANCH   9  12
ATOM     12  C   UNL     1      44.262   3.721   9.957  0.00  0.00    +0.000 A 
ATOM     13  N   UNL     1      43.739   2.577  10.456  0.00  0.00    +0.000 NA
ATOM     14  N   UNL     1      44.353   1.614   9.746  0.00  0.00    +0.000 N 
ATOM     15  C   UNL     1      45.284   2.076   8.858  0.00  0.00    +0.000 A 
ATOM     16  C   UNL     1      46.253   1.419   8.093  0.00  0.00    +0.000 A 
ATOM     17  C   UNL     1      47.023   2.207   7.231  0.00  0.00    +0.000 A 
ATOM     18  C   UNL     1      46.791   3.577   7.105  0.00  0.00    +0.000 A 
ATOM     19  C   UNL     1      45.848   4.220   7.916  0.00  0.00    +0.000 A 
ATOM     20  C   UNL     1      45.118   3.455   8.846  0.00  0.00    +0.000 A 
ATOM     21  H   UNL     1      44.120   0.647   9.943  0.00  0.00    +0.000 HD
ENDBRANCH   9  12
ENDBRANCH   7  10
ENDBRANCH   1   7
BRANCH   4  22
ATOM     22  C   UNL     1      49.638   8.186  15.127  0.00  0.00    +0.000 C 
BRANCH  22  23
ATOM     23  C   UNL     1      49.762   7.187  16.283  0.00  0.00    +0.000 C 
BRANCH  23  24
ATOM     24  N   UNL     1      48.455   6.665  16.703  0.00  0.00    +0.000 N 
ATOM     25  C   UNL     1      48.494   5.259  16.862  0.00  0.00    +0.000 A 
ATOM     26  C   UNL     1      47.328   4.600  17.245  0.00  0.00    +0.000 A 
ATOM     27  C   UNL     1      47.348   3.220  17.407  0.00  0.00    +0.000 A 
ATOM     28  C   UNL     1      48.535   2.551  17.186  0.00  0.00    +0.000 A 
ATOM     29  N   UNL     1      49.659   3.190  16.829  0.00  0.00    +0.000 NA
ATOM     30  N   UNL     1      49.633   4.553  16.676  0.00  0.00    +0.000 NA
ATOM     31  H   UNL     1      47.722   6.893  16.037  0.00  0.00    +0.000 HD
ENDBRANCH  23  24
ENDBRANCH  22  23
ENDBRANCH   4  22
TORSDOF 6
ENDMDL
MODEL 2
REMARK VINA RESULT:    -8.184      2.366      8.306
REMARK INTER + INTRA:         -11.835
REMARK INTER:                 -10.645
REMARK INTRA:                  -1.190
REMARK UNBOUND:                -0.781
REMARK  Name = 
REMARK  6 active torsions:
REMARK  status: ('A' for Active; 'I' for Inactive)
REMARK    1  A    between atoms: C_2  and  C_20
REMARK    2  A    between atoms: N_3  and  C_4
REMARK    3  A    between atoms: C_4  and  C_5
REMARK    4  A    between atoms: C_8  and  C_9
REMARK    5  A    between atoms: C_9  and  C_10
REMARK    6  A    between atoms: C_10  and  N_11
REMARK                            x       y       z     vdW  Elec       q    Type
REMARK                         _______ _______ _______ _____ _____    ______ ____
ROOT
ATOM      1  C   UNL     1      46.942   6.598  13.303  0.00  0.00    +0.000 A 
ATOM      2  C   UNL     1      45.708   7.040  12.814  0.00  0.00    +0.000 A 
ATOM      3  C   UNL     1      44.663   6.138  12.592  0.00  0.00    +0.000 A 
ATOM      4  C   UNL     1      44.818   4.771  12.864  0.00  0.00    +0.000 A 
ATOM      5  C   UNL     1      46.053   4.336  13.368  0.00  0.00    +0.000 A 
ATOM      6  C   UNL     1      47.099   5.239  13.590  0.00  0.00    +0.000 A 
ENDROOT
BRANCH   1   7
ATOM      7  C   UNL     1      48.076   7.565  13.512  0.00  0.00    +0.000 C 
BRANCH   7  10
ATOM      8  O   UNL     1      48.526   8.394  16.145  0.00  0.00    +0.000 OA
ATOM      9  C   UNL     1      49.167   7.444  15.701  0.00  0.00    +0.000 C 
ATOM     10  N   UNL     1      49.093   7.039  14.384  0.00  0.00    +0.000 N 
ATOM     11  H   UNL     1      49.596   6.189  14.149  0.00  0.00    +0.000 HD
BRANCH   9  12
ATOM     12  C   UNL     1      49.994   6.566  16.547  0.00  0.00    +0.000 A 
ATOM     13  N   UNL     1      51.246   6.916  16.921  0.00  0.00    +0.000 NA
ATOM     14  N   UNL     1      51.752   5.778  17.430  0.00  0.00    +0.000 N 
ATOM     15  C   UNL     1      50.912   4.703  17.349  0.00  0.00    +0.000 A 
ATOM     16  C   UNL     1      51.117   3.338  17.574  0.00  0.00    +0.000 A 
ATOM     17  C   UNL     1      50.004   2.499  17.448  0.00  0.00    +0.000 A 
ATOM     18  C   UNL     1      48.739   3.017  17.164  0.00  0.00    +0.000 A 
ATOM     19  C   UNL     1      48.568   4.380  16.896  0.00  0.00    +0.000 A 
ATOM     20  C   UNL     1      49.692   5.227  16.942  0.00  0.00    +0.000 A 
ATOM     21  H   UNL     1      52.702   5.789  17.786  0.00  0.00    +0.000 HD
ENDBRANCH   9  12
ENDBRANCH   7  10
ENDBRANCH   1   7
BRANCH   4  22
ATOM     22  C   UNL     1      43.720   3.744  12.640  0.00  0.00    +0.000 C 
BRANCH  22  23
ATOM     23  C   UNL     1      43.327   3.522  11.174  0.00  0.00    +0.000 C 
BRANCH  23  24
ATOM     24  N   UNL     1      44.053   2.395  10.574  0.00  0.00    +0.000 N 
ATOM     25  C   UNL     1      44.837   2.820   9.475  0.00  0.00    +0.000 A 
ATOM     26  C   UNL     1      45.581   1.868   8.781  0.00  0.00    +0.000 A 
ATOM     27  C   UNL     1      46.358   2.268   7.700  0.00  0.00    +0.000 A 
ATOM     28  C   UNL     1      46.366   3.605   7.357  0.00  0.00    +0.000 A 
ATOM     29  N   UNL     1      45.658   4.521   8.035  0.00  0.00    +0.000 NA
ATOM     30  N   UNL     1      44.898   4.120   9.105  0.00  0.00    +0.000 NA
ATOM     31  H   UNL     1      43.424   1.662  10.257  0.00  0.00    +0.000 HD
ENDBRANCH  23  24
ENDBRANCH  22  23
ENDBRANCH   4  22
TORSDOF 6
ENDMDL
MODEL 3
REMARK VINA RESULT:    -8.115      2.771      9.219
REMARK INTER + INTRA:         -11.742
REMARK INTER:                 -11.069
REMARK INTRA:                  -0.672
REMARK UNBOUND:                -0.781
REMARK  Name = 
REMARK  6 active torsions:
REMARK  status: ('A' for Active; 'I' for Inactive)
REMARK    1  A    between atoms: C_2  and  C_20
REMARK    2  A    between atoms: N_3  and  C_4
REMARK    3  A    between atoms: C_4  and  C_5
REMARK    4  A    between atoms: C_8  and  C_9
REMARK    5  A    between atoms: C_9  and  C_10
REMARK    6  A    between atoms: C_10  and  N_11
REMARK                            x       y       z     vdW  Elec       q    Type
REMARK                         _______ _______ _______ _____ _____    ______ ____
ROOT
ATOM      1  C   UNL     1      46.899   6.092  13.254  0.00  0.00    +0.000 A 
ATOM      2  C   UNL     1      46.721   6.728  12.021  0.00  0.00    +0.000 A 
ATOM      3  C   UNL     1      45.693   6.336  11.157  0.00  0.00    +0.000 A 
ATOM      4  C   UNL     1      44.810   5.304  11.505  0.00  0.00    +0.000 A 
ATOM      5  C   UNL     1      44.985   4.679  12.749  0.00  0.00    +0.000 A 
ATOM      6  C   UNL     1      46.013   5.072  13.614  0.00  0.00    +0.000 A 
ENDROOT
BRANCH   1   7
ATOM      7  C   UNL     1      48.024   6.494  14.170  0.00  0.00    +0.000 C 
BRANCH   7  10
ATOM      8  O   UNL     1      50.153   6.261  15.969  0.00  0.00    +0.000 OA
ATOM      9  C   UNL     1      49.044   5.848  16.301  0.00  0.00    +0.000 C 
ATOM     10  N   UNL     1      47.966   5.818  15.440  0.00  0.00    +0.000 N 
ATOM     11  H   UNL     1      47.077   5.541  15.845  0.00  0.00    +0.000 HD
BRANCH   9  12
ATOM     12  C   UNL     1      48.714   5.445  17.679  0.00  0.00    +0.000 A 
ATOM     13  N   UNL     1      48.362   4.175  17.982  0.00  0.00    +0.000 NA
ATOM     14  N   UNL     1      47.888   4.270  19.238  0.00  0.00    +0.000 N 
ATOM     15  C   UNL     1      47.863   5.544  19.734  0.00  0.00    +0.000 A 
ATOM     16  C   UNL     1      47.282   6.087  20.884  0.00  0.00    +0.000 A 
ATOM     17  C   UNL     1      47.497   7.448  21.123  0.00  0.00    +0.000 A 
ATOM     18  C   UNL     1      48.302   8.210  20.275  0.00  0.00    +0.000 A 
ATOM     19  C   UNL     1      48.834   7.656  19.104  0.00  0.00    +0.000 A 
ATOM     20  C   UNL     1      48.563   6.306  18.808  0.00  0.00    +0.000 A 
ATOM     21  H   UNL     1      47.556   3.427  19.692  0.00  0.00    +0.000 HD
ENDBRANCH   9  12
ENDBRANCH   7  10
ENDBRANCH   1   7
BRANCH   4  22
ATOM     22  C   UNL     1      43.678   4.834  10.606  0.00  0.00    +0.000 C 
BRANCH  22  23
ATOM     23  C   UNL     1      44.043   3.697   9.644  0.00  0.00    +0.000 C 
BRANCH  23  24
ATOM     24  N   UNL     1      44.837   4.174   8.503  0.00  0.00    +0.000 N 
ATOM     25  C   UNL     1      45.702   3.161   8.024  0.00  0.00    +0.000 A 
ATOM     26  C   UNL     1      46.538   3.455   6.949  0.00  0.00    +0.000 A 
ATOM     27  C   UNL     1      47.392   2.471   6.463  0.00  0.00    +0.000 A 
ATOM     28  C   UNL     1      47.374   1.230   7.067  0.00  0.00    +0.000 A 
ATOM     29  N   UNL     1      46.559   0.947   8.095  0.00  0.00    +0.000 NA
ATOM     30  N   UNL     1      45.714   1.921   8.565  0.00  0.00    +0.000 NA
ATOM     31  H   UNL     1      45.396   4.988   8.743  0.00  0.00    +0.000 HD
ENDBRANCH  23  24
ENDBRANCH  22  23
ENDBRANCH   4  22
TORSDOF 6
ENDMDL
MODEL 4
REMARK VINA RESULT:    -7.422      2.003      2.596
REMARK INTER + INTRA:         -10.807
REMARK INTER:                  -9.884
REMARK INTRA:                  -0.922
REMARK UNBOUND:                -0.781
REMARK  Name = 
REMARK  6 active torsions:
REMARK  status: ('A' for Active; 'I' for Inactive)
REMARK    1  A    between atoms: C_2  and  C_20
REMARK    2  A    between atoms: N_3  and  C_4
REMARK    3  A    between atoms: C_4  and  C_5
REMARK    4  A    between atoms: C_8  and  C_9
REMARK    5  A    between atoms: C_9  and  C_10
REMARK    6  A    between atoms: C_10  and  N_11
REMARK                            x       y       z     vdW  Elec       q    Type
REMARK                         _______ _______ _______ _____ _____    ______ ____
ROOT
ATOM      1  C   UNL     1      46.306   7.652  12.105  0.00  0.00    +0.000 A 
ATOM      2  C   UNL     1      46.572   9.013  12.295  0.00  0.00    +0.000 A 
ATOM      3  C   UNL     1      47.886   9.492  12.282  0.00  0.00    +0.000 A 
ATOM      4  C   UNL     1      48.969   8.628  12.069  0.00  0.00    +0.000 A 
ATOM      5  C   UNL     1      48.695   7.267  11.865  0.00  0.00    +0.000 A 
ATOM      6  C   UNL     1      47.380   6.787  11.876  0.00  0.00    +0.000 A 
ENDROOT
BRANCH   1   7
ATOM      7  C   UNL     1      44.894   7.133  12.149  0.00  0.00    +0.000 C 
BRANCH   7  10
ATOM      8  O   UNL     1      42.626   5.905  11.067  0.00  0.00    +0.000 OA
ATOM      9  C   UNL     1      43.672   5.264  11.142  0.00  0.00    +0.000 C 
ATOM     10  N   UNL     1      44.806   5.749  11.762  0.00  0.00    +0.000 N 
ATOM     11  H   UNL     1      45.638   5.173  11.687  0.00  0.00    +0.000 HD
BRANCH   9  12
ATOM     12  C   UNL     1      43.867   3.961  10.484  0.00  0.00    +0.000 A 
ATOM     13  N   UNL     1      43.382   2.817  11.018  0.00  0.00    +0.000 NA
ATOM     14  N   UNL     1      43.983   1.853  10.296  0.00  0.00    +0.000 N 
ATOM     15  C   UNL     1      44.872   2.317   9.367  0.00  0.00    +0.000 A 
ATOM     16  C   UNL     1      45.821   1.664   8.574  0.00  0.00    +0.000 A 
ATOM     17  C   UNL     1      46.545   2.451   7.673  0.00  0.00    +0.000 A 
ATOM     18  C   UNL     1      46.287   3.816   7.538  0.00  0.00    +0.000 A 
ATOM     19  C   UNL     1      45.367   4.456   8.376  0.00  0.00    +0.000 A 
ATOM     20  C   UNL     1      44.684   3.693   9.344  0.00  0.00    +0.000 A 
ATOM     21  H   UNL     1      43.772   0.886  10.515  0.00  0.00    +0.000 HD
ENDBRANCH   9  12
ENDBRANCH   7  10
ENDBRANCH   1   7
BRANCH   4  22
ATOM     22  C   UNL     1      50.417   9.090  12.048  0.00  0.00    +0.000 C 
BRANCH  22  23
ATOM     23  C   UNL     1      50.971   9.551  13.401  0.00  0.00    +0.000 C 
BRANCH  23  24
ATOM     24  N   UNL     1      51.673   8.470  14.106  0.00  0.00    +0.000 N 
ATOM     25  C   UNL     1      50.896   7.972  15.179  0.00  0.00    +0.000 A 
ATOM     26  C   UNL     1      51.424   6.948  15.963  0.00  0.00    +0.000 A 
ATOM     27  C   UNL     1      50.674   6.444  17.019  0.00  0.00    +0.000 A 
ATOM     28  C   UNL     1      49.423   6.980  17.250  0.00  0.00    +0.000 A 
ATOM     29  N   UNL     1      48.913   7.958  16.485  0.00  0.00    +0.000 NA
ATOM     30  N   UNL     1      49.657   8.446  15.440  0.00  0.00    +0.000 NA
ATOM     31  H   UNL     1      52.571   8.774  14.472  0.00  0.00    +0.000 HD
ENDBRANCH  23  24
ENDBRANCH  22  23
ENDBRANCH   4  22
TORSDOF 6
ENDMDL
MODEL 5
REMARK VINA RESULT:    -7.311      2.988      4.160
REMARK INTER + INTRA:         -10.657
REMARK INTER:                  -9.996
REMARK INTRA:                  -0.660
REMARK UNBOUND:                -0.781
REMARK  Name = 
REMARK  6 active torsions:
REMARK  status: ('A' for Active; 'I' for Inactive)
REMARK    1  A    between atoms: C_2  and  C_20
REMARK    2  A    between atoms: N_3  and  C_4
REMARK    3  A    between atoms: C_4  and  C_5
REMARK    4  A    between atoms: C_8  and  C_9
REMARK    5  A    between atoms: C_9  and  C_10
REMARK    6  A    between atoms: C_10  and  N_11
REMARK                            x       y       z     vdW  Elec       q    Type
REMARK                         _______ _______ _______ _____ _____    ______ ____
ROOT
ATOM      1  C   UNL     1      47.995   5.736  15.155  0.00  0.00    +0.000 A 
ATOM      2  C   UNL     1      49.058   6.496  15.654  0.00  0.00    +0.000 A 
ATOM      3  C   UNL     1      49.717   6.118  16.828  0.00  0.00    +0.000 A 
ATOM      4  C   UNL     1      49.339   4.965  17.531  0.00  0.00    +0.000 A 
ATOM      5  C   UNL     1      48.282   4.199  17.018  0.00  0.00    +0.000 A 
ATOM      6  C   UNL     1      47.623   4.577  15.842  0.00  0.00    +0.000 A 
ENDROOT
BRANCH   1   7
ATOM      7  C   UNL     1      47.267   6.160  13.908  0.00  0.00    +0.000 C 
BRANCH   7  10
ATOM      8  O   UNL     1      44.663   6.538  12.961  0.00  0.00    +0.000 OA
ATOM      9  C   UNL     1      45.182   5.429  12.852  0.00  0.00    +0.000 C 
ATOM     10  N   UNL     1      46.415   5.122  13.390  0.00  0.00    +0.000 N 
ATOM     11  H   UNL     1      46.786   4.204  13.163  0.00  0.00    +0.000 HD
BRANCH   9  12
ATOM     12  C   UNL     1      44.600   4.344  12.043  0.00  0.00    +0.000 A 
ATOM     13  N   UNL     1      43.943   3.308  12.613  0.00  0.00    +0.000 NA
ATOM     14  N   UNL     1      43.812   2.425  11.607  0.00  0.00    +0.000 N 
ATOM     15  C   UNL     1      44.403   2.815  10.437  0.00  0.00    +0.000 A 
ATOM     16  C   UNL     1      44.661   2.127   9.246  0.00  0.00    +0.000 A 
ATOM     17  C   UNL     1      45.247   2.856   8.206  0.00  0.00    +0.000 A 
ATOM     18  C   UNL     1      45.508   4.221   8.340  0.00  0.00    +0.000 A 
ATOM     19  C   UNL     1      45.285   4.876   9.557  0.00  0.00    +0.000 A 
ATOM     20  C   UNL     1      44.768   4.139  10.640  0.00  0.00    +0.000 A 
ATOM     21  H   UNL     1      43.340   1.547  11.793  0.00  0.00    +0.000 HD
ENDBRANCH   9  12
ENDBRANCH   7  10
ENDBRANCH   1   7
BRANCH   4  22
ATOM     22  C   UNL     1      50.015   4.508  18.813  0.00  0.00    +0.000 C 
BRANCH  22  23
ATOM     23  C   UNL     1      51.455   4.008  18.645  0.00  0.00    +0.000 C 
BRANCH  23  24
ATOM     24  N   UNL     1      51.525   2.794  17.822  0.00  0.00    +0.000 N 
ATOM     25  C   UNL     1      52.642   2.000  18.176  0.00  0.00    +0.000 A 
ATOM     26  C   UNL     1      52.863   0.814  17.479  0.00  0.00    +0.000 A 
ATOM     27  C   UNL     1      53.953   0.020  17.816  0.00  0.00    +0.000 A 
ATOM     28  C   UNL     1      54.778   0.439  18.840  0.00  0.00    +0.000 A 
ATOM     29  N   UNL     1      54.555   1.576  19.517  0.00  0.00    +0.000 NA
ATOM     30  N   UNL     1      53.473   2.351  19.184  0.00  0.00    +0.000 NA
ATOM     31  H   UNL     1      51.585   3.009  16.830  0.00  0.00    +0.000 HD
ENDBRANCH  23  24
ENDBRANCH  22  23
ENDBRANCH   4  22
TORSDOF 6
ENDMDL
MODEL 6
REMARK VINA RESULT:    -7.183      4.109      8.284
REMARK INTER + INTRA:         -10.484
REMARK INTER:                  -9.764
REMARK INTRA:                  -0.720
REMARK UNBOUND:                -0.781
REMARK  Name = 
REMARK  6 active torsions:
REMARK  status: ('A' for Active; 'I' for Inactive)
REMARK    1  A    between atoms: C_2  and  C_20
REMARK    2  A    between atoms: N_3  and  C_4
REMARK    3  A    between atoms: C_4  and  C_5
REMARK    4  A    between atoms: C_8  and  C_9
REMARK    5  A    between atoms: C_9  and  C_10
REMARK    6  A    between atoms: C_10  and  N_11
REMARK                            x       y       z     vdW  Elec       q    Type
REMARK                         _______ _______ _______ _____ _____    ______ ____
ROOT
ATOM      1  C   UNL     1      45.545   7.202  12.388  0.00  0.00    +0.000 A 
ATOM      2  C   UNL     1      45.779   6.764  11.079  0.00  0.00    +0.000 A 
ATOM      3  C   UNL     1      45.442   5.463  10.690  0.00  0.00    +0.000 A 
ATOM      4  C   UNL     1      44.853   4.567  11.594  0.00  0.00    +0.000 A 
ATOM      5  C   UNL     1      44.607   5.017  12.900  0.00  0.00    +0.000 A 
ATOM      6  C   UNL     1      44.943   6.319  13.290  0.00  0.00    +0.000 A 
ENDROOT
BRANCH   1   7
ATOM      7  C   UNL     1      45.936   8.591  12.814  0.00  0.00    +0.000 C 
BRANCH   7  10
ATOM      8  O   UNL     1      46.410  11.119  11.715  0.00  0.00    +0.000 OA
ATOM      9  C   UNL     1      45.250  10.745  11.870  0.00  0.00    +0.000 C 
ATOM     10  N   UNL     1      44.921   9.565  12.507  0.00  0.00    +0.000 N 
ATOM     11  H   UNL     1      43.938   9.312  12.500  0.00  0.00    +0.000 HD
BRANCH   9  12
ATOM     12  C   UNL     1      44.092  11.454  11.300  0.00  0.00    +0.000 A 
ATOM     13  N   UNL     1      42.919  11.551  11.968  0.00  0.00    +0.000 NA
ATOM     14  N   UNL     1      42.063  12.010  11.037  0.00  0.00    +0.000 N 
ATOM     15  C   UNL     1      42.611  12.157   9.793  0.00  0.00    +0.000 A 
ATOM     16  C   UNL     1      42.037  12.411   8.543  0.00  0.00    +0.000 A 
ATOM     17  C   UNL     1      42.910  12.555   7.460  0.00  0.00    +0.000 A 
ATOM     18  C   UNL     1      44.293  12.502   7.637  0.00  0.00    +0.000 A 
ATOM     19  C   UNL     1      44.843  12.200   8.889  0.00  0.00    +0.000 A 
ATOM     20  C   UNL     1      43.976  11.974   9.975  0.00  0.00    +0.000 A 
ATOM     21  H   UNL     1      41.099  12.168  11.305  0.00  0.00    +0.000 HD
ENDBRANCH   9  12
ENDBRANCH   7  10
ENDBRANCH   1   7
BRANCH   4  22
ATOM     22  C   UNL     1      44.469   3.143  11.230  0.00  0.00    +0.000 C 
BRANCH  22  23
ATOM     23  C   UNL     1      44.214   2.901   9.737  0.00  0.00    +0.000 C 
BRANCH  23  24
ATOM     24  N   UNL     1      44.852   1.666   9.262  0.00  0.00    +0.000 N 
ATOM     25  C   UNL     1      45.875   1.948   8.326  0.00  0.00    +0.000 A 
ATOM     26  C   UNL     1      46.574   0.882   7.764  0.00  0.00    +0.000 A 
ATOM     27  C   UNL     1      47.584   1.141   6.844  0.00  0.00    +0.000 A 
ATOM     28  C   UNL     1      47.860   2.455   6.525  0.00  0.00    +0.000 A 
ATOM     29  N   UNL     1      47.192   3.480   7.076  0.00  0.00    +0.000 NA
ATOM     30  N   UNL     1      46.201   3.217   7.989  0.00  0.00    +0.000 NA
ATOM     31  H   UNL     1      44.184   1.034   8.828  0.00  0.00    +0.000 HD
ENDBRANCH  23  24
ENDBRANCH  22  23
ENDBRANCH   4  22
TORSDOF 6
ENDMDL
MODEL 7
REMARK VINA RESULT:    -7.161      3.326      4.768
REMARK INTER + INTRA:         -10.454
REMARK INTER:                  -9.717
REMARK INTRA:                  -0.738
REMARK UNBOUND:                -0.781
REMARK  Name = 
REMARK  6 active torsions:
REMARK  status: ('A' for Active; 'I' for Inactive)
REMARK    1  A    between atoms: C_2  and  C_20
REMARK    2  A    between atoms: N_3  and  C_4
REMARK    3  A    between atoms: C_4  and  C_5
REMARK    4  A    between atoms: C_8  and  C_9
REMARK    5  A    between atoms: C_9  and  C_10
REMARK    6  A    between atoms: C_10  and  N_11
REMARK                            x       y       z     vdW  Elec       q    Type
REMARK                         _______ _______ _______ _____ _____    ______ ____
ROOT
ATOM      1  C   UNL     1      46.754   6.799  12.087  0.00  0.00    +0.000 A 
ATOM      2  C   UNL     1      46.913   6.260  13.368  0.00  0.00    +0.000 A 
ATOM      3  C   UNL     1      48.068   6.520  14.114  0.00  0.00    +0.000 A 
ATOM      4  C   UNL     1      49.090   7.334  13.605  0.00  0.00    +0.000 A 
ATOM      5  C   UNL     1      48.917   7.884  12.325  0.00  0.00    +0.000 A 
ATOM      6  C   UNL     1      47.761   7.625  11.579  0.00  0.00    +0.000 A 
ENDROOT
BRANCH   1   7
ATOM      7  C   UNL     1      45.525   6.494  11.273  0.00  0.00    +0.000 C 
BRANCH   7  10
ATOM      8  O   UNL     1      43.277   5.207  10.219  0.00  0.00    +0.000 OA
ATOM      9  C   UNL     1      44.352   4.612  10.232  0.00  0.00    +0.000 C 
ATOM     10  N   UNL     1      45.484   5.124  10.833  0.00  0.00    +0.000 N 
ATOM     11  H   UNL     1      46.338   4.589  10.707  0.00  0.00    +0.000 HD
BRANCH   9  12
ATOM     12  C   UNL     1      44.581   3.346   9.516  0.00  0.00    +0.000 A 
ATOM     13  N   UNL     1      43.990   2.193   9.906  0.00  0.00    +0.000 NA
ATOM     14  N   UNL     1      44.642   1.251   9.200  0.00  0.00    +0.000 N 
ATOM     15  C   UNL     1      45.658   1.732   8.423  0.00  0.00    +0.000 A 
ATOM     16  C   UNL     1      46.676   1.088   7.712  0.00  0.00    +0.000 A 
ATOM     17  C   UNL     1      47.537   1.897   6.963  0.00  0.00    +0.000 A 
ATOM     18  C   UNL     1      47.349   3.278   6.892  0.00  0.00    +0.000 A 
ATOM     19  C   UNL     1      46.353   3.905   7.650  0.00  0.00    +0.000 A 
ATOM     20  C   UNL     1      45.526   3.114   8.471  0.00  0.00    +0.000 A 
ATOM     21  H   UNL     1      44.369   0.282   9.324  0.00  0.00    +0.000 HD
ENDBRANCH   9  12
ENDBRANCH   7  10
ENDBRANCH   1   7
BRANCH   4  22
ATOM     22  C   UNL     1      50.366   7.649  14.367  0.00  0.00    +0.000 C 
BRANCH  22  23
ATOM     23  C   UNL     1      51.297   8.659  13.685  0.00  0.00    +0.000 C 
BRANCH  23  24
ATOM     24  N   UNL     1      52.392   7.999  12.962  0.00  0.00    +0.000 N 
ATOM     25  C   UNL     1      52.568   8.562  11.676  0.00  0.00    +0.000 A 
ATOM     26  C   UNL     1      53.561   8.039  10.851  0.00  0.00    +0.000 A 
ATOM     27  C   UNL     1      53.751   8.582   9.586  0.00  0.00    +0.000 A 
ATOM     28  C   UNL     1      52.944   9.631   9.195  0.00  0.00    +0.000 A 
ATOM     29  N   UNL     1      51.996  10.141   9.997  0.00  0.00    +0.000 NA
ATOM     30  N   UNL     1      51.819   9.604  11.247  0.00  0.00    +0.000 NA
ATOM     31  H   UNL     1      52.231   7.000  12.857  0.00  0.00    +0.000 HD
ENDBRANCH  23  24
ENDBRANCH  22  23
ENDBRANCH   4  22
TORSDOF 6
ENDMDL
MODEL 8
REMARK VINA RESULT:    -7.087      1.466      2.056
REMARK INTER + INTRA:         -10.354
REMARK INTER:                  -9.327
REMARK INTRA:                  -1.028
REMARK UNBOUND:                -0.781
REMARK  Name = 
REMARK  6 active torsions:
REMARK  status: ('A' for Active; 'I' for Inactive)
REMARK    1  A    between atoms: C_2  and  C_20
REMARK    2  A    between atoms: N_3  and  C_4
REMARK    3  A    between atoms: C_4  and  C_5
REMARK    4  A    between atoms: C_8  and  C_9
REMARK    5  A    between atoms: C_9  and  C_10
REMARK    6  A    between atoms: C_10  and  N_11
REMARK                            x       y       z     vdW  Elec       q    Type
REMARK                         _______ _______ _______ _____ _____    ______ ____
ROOT
ATOM      1  C   UNL     1      48.296   7.859  12.994  0.00  0.00    +0.000 A 
ATOM      2  C   UNL     1      47.564   8.440  14.034  0.00  0.00    +0.000 A 
ATOM      3  C   UNL     1      48.128   8.597  15.305  0.00  0.00    +0.000 A 
ATOM      4  C   UNL     1      49.443   8.187  15.567  0.00  0.00    +0.000 A 
ATOM      5  C   UNL     1      50.177   7.618  14.516  0.00  0.00    +0.000 A 
ATOM      6  C   UNL     1      49.613   7.462  13.244  0.00  0.00    +0.000 A 
ENDROOT
BRANCH   1   7
ATOM      7  C   UNL     1      47.678   7.663  11.635  0.00  0.00    +0.000 C 
BRANCH   7  10
ATOM      8  O   UNL     1      44.890   7.786  11.451  0.00  0.00    +0.000 OA
ATOM      9  C   UNL     1      45.443   6.690  11.397  0.00  0.00    +0.000 C 
ATOM     10  N   UNL     1      46.799   6.524  11.592  0.00  0.00    +0.000 N 
ATOM     11  H   UNL     1      47.163   5.588  11.435  0.00  0.00    +0.000 HD
BRANCH   9  12
ATOM     12  C   UNL     1      44.744   5.453  11.009  0.00  0.00    +0.000 A 
ATOM     13  N   UNL     1      43.851   4.854  11.831  0.00  0.00    +0.000 NA
ATOM     14  N   UNL     1      43.649   3.654  11.257  0.00  0.00    +0.000 N 
ATOM     15  C   UNL     1      44.409   3.429  10.143  0.00  0.00    +0.000 A 
ATOM     16  C   UNL     1      44.642   2.274   9.389  0.00  0.00    +0.000 A 
ATOM     17  C   UNL     1      45.450   2.408   8.255  0.00  0.00    +0.000 A 
ATOM     18  C   UNL     1      45.952   3.652   7.870  0.00  0.00    +0.000 A 
ATOM     19  C   UNL     1      45.745   4.784   8.667  0.00  0.00    +0.000 A 
ATOM     20  C   UNL     1      44.999   4.653   9.854  0.00  0.00    +0.000 A 
ATOM     21  H   UNL     1      43.004   3.011  11.700  0.00  0.00    +0.000 HD
ENDBRANCH   9  12
ENDBRANCH   7  10
ENDBRANCH   1   7
BRANCH   4  22
ATOM     22  C   UNL     1      50.107   8.328  16.927  0.00  0.00    +0.000 C 
BRANCH  22  23
ATOM     23  C   UNL     1      49.665   7.301  17.976  0.00  0.00    +0.000 C 
BRANCH  23  24
ATOM     24  N   UNL     1      50.234   5.971  17.719  0.00  0.00    +0.000 N 
ATOM     25  C   UNL     1      49.216   4.995  17.601  0.00  0.00    +0.000 A 
ATOM     26  C   UNL     1      49.587   3.672  17.370  0.00  0.00    +0.000 A 
ATOM     27  C   UNL     1      48.601   2.700  17.249  0.00  0.00    +0.000 A 
ATOM     28  C   UNL     1      47.281   3.088  17.360  0.00  0.00    +0.000 A 
ATOM     29  N   UNL     1      46.927   4.365  17.571  0.00  0.00    +0.000 NA
ATOM     30  N   UNL     1      47.905   5.320  17.683  0.00  0.00    +0.000 NA
ATOM     31  H   UNL     1      50.874   5.682  18.454  0.00  0.00    +0.000 HD
ENDBRANCH  23  24
ENDBRANCH  22  23
ENDBRANCH   4  22
TORSDOF 6
ENDMDL
MODEL 9
REMARK VINA RESULT:    -6.952      2.296      7.992
REMARK INTER + INTRA:         -10.171
REMARK INTER:                  -9.183
REMARK INTRA:                  -0.988
REMARK UNBOUND:                -0.781
REMARK  Name = 
REMARK  6 active torsions:
REMARK  status: ('A' for Active; 'I' for Inactive)
REMARK    1  A    between atoms: C_2  and  C_20
REMARK    2  A    between atoms: N_3  and  C_4
REMARK    3  A    between atoms: C_4  and  C_5
REMARK    4  A    between atoms: C_8  and  C_9
REMARK    5  A    between atoms: C_9  and  C_10
REMARK    6  A    between atoms: C_10  and  N_11
REMARK                            x       y       z     vdW  Elec       q    Type
REMARK                         _______ _______ _______ _____ _____    ______ ____
ROOT
ATOM      1  C   UNL     1      49.093   8.178  13.365  0.00  0.00    +0.000 A 
ATOM      2  C   UNL     1      48.487   9.269  12.734  0.00  0.00    +0.000 A 
ATOM      3  C   UNL     1      47.182   9.172  12.237  0.00  0.00    +0.000 A 
ATOM      4  C   UNL     1      46.445   7.986  12.366  0.00  0.00    +0.000 A 
ATOM      5  C   UNL     1      47.054   6.900  13.013  0.00  0.00    +0.000 A 
ATOM      6  C   UNL     1      48.359   6.997  13.511  0.00  0.00    +0.000 A 
ENDROOT
BRANCH   1   7
ATOM      7  C   UNL     1      50.507   8.273  13.872  0.00  0.00    +0.000 C 
BRANCH   7  10
ATOM      8  O   UNL     1      50.279   8.380  16.657  0.00  0.00    +0.000 OA
ATOM      9  C   UNL     1      50.595   7.318  16.125  0.00  0.00    +0.000 C 
ATOM     10  N   UNL     1      50.841   7.201  14.773  0.00  0.00    +0.000 N 
ATOM     11  H   UNL     1      51.007   6.260  14.428  0.00  0.00    +0.000 HD
BRANCH   9  12
ATOM     12  C   UNL     1      50.638   6.036  16.849  0.00  0.00    +0.000 A 
ATOM     13  N   UNL     1      51.804   5.502  17.279  0.00  0.00    +0.000 NA
ATOM     14  N   UNL     1      51.466   4.248  17.632  0.00  0.00    +0.000 N 
ATOM     15  C   UNL     1      50.156   3.932  17.396  0.00  0.00    +0.000 A 
ATOM     16  C   UNL     1      49.468   2.715  17.434  0.00  0.00    +0.000 A 
ATOM     17  C   UNL     1      48.092   2.756  17.185  0.00  0.00    +0.000 A 
ATOM     18  C   UNL     1      47.435   3.967  16.963  0.00  0.00    +0.000 A 
ATOM     19  C   UNL     1      48.153   5.166  16.883  0.00  0.00    +0.000 A 
ATOM     20  C   UNL     1      49.550   5.134  17.054  0.00  0.00    +0.000 A 
ATOM     21  H   UNL     1      52.189   3.638  17.994  0.00  0.00    +0.000 HD
ENDBRANCH   9  12
ENDBRANCH   7  10
ENDBRANCH   1   7
BRANCH   4  22
ATOM     22  C   UNL     1      45.028   7.821  11.843  0.00  0.00    +0.000 C 
BRANCH  22  23
ATOM     23  C   UNL     1      44.659   6.400  11.403  0.00  0.00    +0.000 C 
BRANCH  23  24
ATOM     24  N   UNL     1      45.243   6.059  10.098  0.00  0.00    +0.000 N 
ATOM     25  C   UNL     1      44.988   4.707   9.763  0.00  0.00    +0.000 A 
ATOM     26  C   UNL     1      45.488   4.216   8.559  0.00  0.00    +0.000 A 
ATOM     27  C   UNL     1      45.245   2.892   8.212  0.00  0.00    +0.000 A 
ATOM     28  C   UNL     1      44.509   2.111   9.080  0.00  0.00    +0.000 A 
ATOM     29  N   UNL     1      44.020   2.591  10.233  0.00  0.00    +0.000 NA
ATOM     30  N   UNL     1      44.257   3.900  10.566  0.00  0.00    +0.000 NA
ATOM     31  H   UNL     1      46.248   6.211  10.079  0.00  0.00    +0.000 HD
ENDBRANCH  23  24
ENDBRANCH  22  23
ENDBRANCH   4  22
TORSDOF 6
ENDMDL
