MODEL 1
REMARK VINA RESULT:    -7.777      0.000      0.000
REMARK INTER + INTRA:         -13.068
REMARK INTER:                 -11.868
REMARK INTRA:                  -1.200
REMARK UNBOUND:                -1.200
REMARK  Name = 
REMARK  10 active torsions:
REMARK  status: ('A' for Active; 'I' for Inactive)
REMARK    1  A    between atoms: C_1  and  C_2
REMARK    2  A    between atoms: C_2  and  N_3
REMARK    3  A    between atoms: C_2  and  C_14
REMARK    4  A    between atoms: N_3  and  C_4
REMARK    5  A    between atoms: C_4  and  C_5
REMARK    6  A    between atoms: N_8  and  C_9
REMARK    7  A    between atoms: C_9  and  C_10
REMARK    8  A    between atoms: C_17  and  C_18
REMARK    9  A    between atoms: C_18  and  N_19
REMARK   10  A    between atoms: C_20  and  C_22
REMARK                            x       y       z     vdW  Elec       q    Type
REMARK                         _______ _______ _______ _____ _____    ______ ____
ROOT
ATOM      1  C   UNL     1      45.082   4.918  13.165  0.00  0.00    +0.000 A 
ATOM      2  C   UNL     1      45.243   6.200  12.635  0.00  0.00    +0.000 A 
ATOM      3  C   UNL     1      46.408   6.916  12.921  0.00  0.00    +0.000 A 
ATOM      4  C   UNL     1      47.390   6.346  13.730  0.00  0.00    +0.000 A 
ATOM      5  C   UNL     1      47.138   5.081  14.241  0.00  0.00    +0.000 A 
ATOM      6  N   UNL     1      46.018   4.370  13.988  0.00  0.00    +0.000 NA
ENDROOT
BRANCH   1   8
ATOM      7  C   UNL     1      42.741   4.976  12.220  0.00  0.00    +0.000 C 
ATOM      8  C   UNL     1      43.818   4.093  12.863  0.00  0.00    +0.000 C 
BRANCH   8   9
ATOM      9  N   UNL     1      44.135   2.945  11.988  0.00  0.00    +0.000 NA
ATOM     10  H   UNL     1      43.251   2.506  11.725  0.00  0.00    +0.000 HD
BRANCH   9  11
ATOM     11  C   UNL     1      44.961   3.240  10.830  0.00  0.00    +0.000 C 
BRANCH  11  12
ATOM     12  C   UNL     1      44.223   2.909   9.512  0.00  0.00    +0.000 C 
ATOM     13  C   UNL     1      44.580   1.535   8.922  0.00  0.00    +0.000 C 
ATOM     14  C   UNL     1      46.006   1.489   8.374  0.00  0.00    +0.000 C 
ATOM     15  N   UNL     1      46.239   2.539   7.360  0.00  0.00    +0.000 NA
ATOM     16  C   UNL     1      45.948   3.875   7.899  0.00  0.00    +0.000 C 
ATOM     17  C   UNL     1      44.519   3.974   8.447  0.00  0.00    +0.000 C 
BRANCH  15  18
ATOM     18  C   UNL     1      47.624   2.429   6.853  0.00  0.00    +0.000 C 
BRANCH  18  19
ATOM     19  C   UNL     1      47.768   2.381   5.330  0.00  0.00    +0.000 C 
ATOM     20  F   UNL     1      46.566   2.034   4.788  0.00  0.00    +0.000 F 
ENDBRANCH  18  19
ENDBRANCH  15  18
ENDBRANCH  11  12
ENDBRANCH   9  11
ENDBRANCH   8   9
ENDBRANCH   1   8
BRANCH   4  21
ATOM     21  C   UNL     1      48.640   7.082  14.108  0.00  0.00    +0.000 C 
BRANCH  21  22
ATOM     22  N   UNL     1      48.598   7.477  15.495  0.00  0.00    +0.000 N 
ATOM     23  C   UNL     1      49.370   6.852  16.437  0.00  0.00    +0.000 C 
ATOM     24  O   UNL     1      50.161   5.961  16.139  0.00  0.00    +0.000 OA
ATOM     25  H   UNL     1      47.806   8.041  15.797  0.00  0.00    +0.000 HD
BRANCH  23  26
ATOM     26  C   UNL     1      49.255   7.347  17.814  0.00  0.00    +0.000 A 
ATOM     27  C   UNL     1      49.990   8.459  18.206  0.00  0.00    +0.000 A 
ATOM     28  S   UNL     1      49.706   8.935  19.817  0.00  0.00    +0.000 S 
ATOM     29  C   UNL     1      48.626   7.643  20.067  0.00  0.00    +0.000 A 
ATOM     30  N   UNL     1      48.030   7.455  21.273  0.00  0.00    +0.000 NA
ATOM     31  C   UNL     1      47.263   6.417  21.334  0.00  0.00    +0.000 A 
ATOM     32  N   UNL     1      47.034   5.553  20.292  0.00  0.00    +0.000 N 
ATOM     33  C   UNL     1      47.587   5.724  19.047  0.00  0.00    +0.000 A 
ATOM     34  O   UNL     1      47.320   4.968  18.119  0.00  0.00    +0.000 OA
ATOM     35  C   UNL     1      48.473   6.868  18.930  0.00  0.00    +0.000 A 
ATOM     36  H   UNL     1      46.414   4.766  20.403  0.00  0.00    +0.000 HD
ENDBRANCH  23  26
ENDBRANCH  21  22
ENDBRANCH   4  21
TORSDOF 9
ENDMDL
MODEL 2
REMARK VINA RESULT:    -7.293      2.262      2.499
REMARK INTER + INTRA:         -12.330
REMARK INTER:                 -11.221
REMARK INTRA:                  -1.109
REMARK UNBOUND:                -1.200
REMARK  Name = 
REMARK  10 active torsions:
REMARK  status: ('A' for Active; 'I' for Inactive)
REMARK    1  A    between atoms: C_1  and  C_2
REMARK    2  A    between atoms: C_2  and  N_3
REMARK    3  A    between atoms: C_2  and  C_14
REMARK    4  A    between atoms: N_3  and  C_4
REMARK    5  A    between atoms: C_4  and  C_5
REMARK    6  A    between atoms: N_8  and  C_9
REMARK    7  A    between atoms: C_9  and  C_10
REMARK    8  A    between atoms: C_17  and  C_18
REMARK    9  A    between atoms: C_18  and  N_19
REMARK   10  A    between atoms: C_20  and  C_22
REMARK                            x       y       z     vdW  Elec       q    Type
REMARK                         _______ _______ _______ _____ _____    ______ ____
ROOT
ATOM      1  C   UNL     1      45.153   5.118  12.994  0.00  0.00    +0.000 A 
ATOM      2  C   UNL     1      44.960   6.436  12.578  0.00  0.00    +0.000 A 
ATOM      3  C   UNL     1      45.977   7.372  12.780  0.00  0.00    +0.000 A 
ATOM      4  C   UNL     1      47.166   6.982  13.394  0.00  0.00    +0.000 A 
ATOM      5  C   UNL     1      47.264   5.660  13.805  0.00  0.00    +0.000 A 
ATOM      6  N   UNL     1      46.294   4.736  13.630  0.00  0.00    +0.000 NA
ENDROOT
BRANCH   1   8
ATOM      7  C   UNL     1      42.837   4.674  12.089  0.00  0.00    +0.000 C 
ATOM      8  C   UNL     1      44.060   4.055  12.778  0.00  0.00    +0.000 C 
BRANCH   8   9
ATOM      9  N   UNL     1      44.580   2.920  11.987  0.00  0.00    +0.000 NA
ATOM     10  H   UNL     1      43.794   2.297  11.789  0.00  0.00    +0.000 HD
BRANCH   9  11
ATOM     11  C   UNL     1      45.313   3.269  10.783  0.00  0.00    +0.000 C 
BRANCH  11  12
ATOM     12  C   UNL     1      44.486   2.967   9.511  0.00  0.00    +0.000 C 
ATOM     13  C   UNL     1      44.797   1.606   8.869  0.00  0.00    +0.000 C 
ATOM     14  C   UNL     1      46.183   1.570   8.224  0.00  0.00    +0.000 C 
ATOM     15  N   UNL     1      46.348   2.640   7.219  0.00  0.00    +0.000 NA
ATOM     16  C   UNL     1      46.098   3.965   7.805  0.00  0.00    +0.000 C 
ATOM     17  C   UNL     1      44.710   4.054   8.451  0.00  0.00    +0.000 C 
BRANCH  15  18
ATOM     18  C   UNL     1      47.695   2.539   6.616  0.00  0.00    +0.000 C 
BRANCH  18  19
ATOM     19  C   UNL     1      47.728   2.146   5.137  0.00  0.00    +0.000 C 
ATOM     20  F   UNL     1      46.464   2.229   4.634  0.00  0.00    +0.000 F 
ENDBRANCH  18  19
ENDBRANCH  15  18
ENDBRANCH  11  12
ENDBRANCH   9  11
ENDBRANCH   8   9
ENDBRANCH   1   8
BRANCH   4  21
ATOM     21  C   UNL     1      48.274   7.950  13.679  0.00  0.00    +0.000 C 
BRANCH  21  22
ATOM     22  N   UNL     1      49.380   7.282  14.322  0.00  0.00    +0.000 N 
ATOM     23  C   UNL     1      49.605   7.413  15.666  0.00  0.00    +0.000 C 
ATOM     24  O   UNL     1      48.857   8.066  16.388  0.00  0.00    +0.000 OA
ATOM     25  H   UNL     1      50.126   6.932  13.725  0.00  0.00    +0.000 HD
BRANCH  23  26
ATOM     26  C   UNL     1      50.751   6.677  16.214  0.00  0.00    +0.000 A 
ATOM     27  C   UNL     1      52.036   7.165  16.018  0.00  0.00    +0.000 A 
ATOM     28  S   UNL     1      53.247   6.223  16.759  0.00  0.00    +0.000 S 
ATOM     29  C   UNL     1      52.103   5.099  17.328  0.00  0.00    +0.000 A 
ATOM     30  N   UNL     1      52.491   4.007  18.037  0.00  0.00    +0.000 NA
ATOM     31  C   UNL     1      51.524   3.219  18.376  0.00  0.00    +0.000 A 
ATOM     32  N   UNL     1      50.202   3.431  18.074  0.00  0.00    +0.000 N 
ATOM     33  C   UNL     1      49.762   4.538  17.391  0.00  0.00    +0.000 A 
ATOM     34  O   UNL     1      48.568   4.729  17.184  0.00  0.00    +0.000 OA
ATOM     35  C   UNL     1      50.812   5.447  16.970  0.00  0.00    +0.000 A 
ATOM     36  H   UNL     1      49.494   2.781  18.379  0.00  0.00    +0.000 HD
ENDBRANCH  23  26
ENDBRANCH  21  22
ENDBRANCH   4  21
TORSDOF 9
ENDMDL
MODEL 3
REMARK VINA RESULT:    -7.097      3.778      5.721
REMARK INTER + INTRA:         -12.031
REMARK INTER:                 -10.753
REMARK INTRA:                  -1.278
REMARK UNBOUND:                -1.200
REMARK  Name = 
REMARK  10 active torsions:
REMARK  status: ('A' for Active; 'I' for Inactive)
REMARK    1  A    between atoms: C_1  and  C_2
REMARK    2  A    between atoms: C_2  and  N_3
REMARK    3  A    between atoms: C_2  and  C_14
REMARK    4  A    between atoms: N_3  and  C_4
REMARK    5  A    between atoms: C_4  and  C_5
REMARK    6  A    between atoms: N_8  and  C_9
REMARK    7  A    between atoms: C_9  and  C_10
REMARK    8  A    between atoms: C_17  and  C_18
REMARK    9  A    between atoms: C_18  and  N_19
REMARK   10  A    between atoms: C_20  and  C_22
REMARK                            x       y       z     vdW  Elec       q    Type
REMARK                         _______ _______ _______ _____ _____    ______ ____
ROOT
ATOM      1  C   UNL     1      45.223   4.847  13.141  0.00  0.00    +0.000 A 
ATOM      2  C   UNL     1      45.421   6.018  12.408  0.00  0.00    +0.000 A 
ATOM      3  C   UNL     1      46.605   6.738  12.577  0.00  0.00    +0.000 A 
ATOM      4  C   UNL     1      47.570   6.284  13.475  0.00  0.00    +0.000 A 
ATOM      5  C   UNL     1      47.281   5.128  14.187  0.00  0.00    +0.000 A 
ATOM      6  N   UNL     1      46.142   4.417  14.049  0.00  0.00    +0.000 NA
ENDROOT
BRANCH   1   8
ATOM      7  C   UNL     1      42.799   4.897  12.435  0.00  0.00    +0.000 C 
ATOM      8  C   UNL     1      43.936   4.019  12.974  0.00  0.00    +0.000 C 
BRANCH   8   9
ATOM      9  N   UNL     1      44.166   2.864  12.081  0.00  0.00    +0.000 NA
ATOM     10  H   UNL     1      43.251   2.502  11.805  0.00  0.00    +0.000 HD
BRANCH   9  11
ATOM     11  C   UNL     1      45.020   3.112  10.932  0.00  0.00    +0.000 C 
BRANCH  11  12
ATOM     12  C   UNL     1      44.258   2.894   9.604  0.00  0.00    +0.000 C 
ATOM     13  C   UNL     1      44.603   1.575   8.893  0.00  0.00    +0.000 C 
ATOM     14  C   UNL     1      46.019   1.577   8.317  0.00  0.00    +0.000 C 
ATOM     15  N   UNL     1      46.233   2.709   7.392  0.00  0.00    +0.000 NA
ATOM     16  C   UNL     1      45.953   3.994   8.047  0.00  0.00    +0.000 C 
ATOM     17  C   UNL     1      44.534   4.045   8.628  0.00  0.00    +0.000 C 
BRANCH  15  18
ATOM     18  C   UNL     1      47.609   2.644   6.852  0.00  0.00    +0.000 C 
BRANCH  18  19
ATOM     19  C   UNL     1      47.715   2.443   5.338  0.00  0.00    +0.000 C 
ATOM     20  F   UNL     1      46.491   2.082   4.858  0.00  0.00    +0.000 F 
ENDBRANCH  18  19
ENDBRANCH  15  18
ENDBRANCH  11  12
ENDBRANCH   9  11
ENDBRANCH   8   9
ENDBRANCH   1   8
BRANCH   4  21
ATOM     21  C   UNL     1      48.840   7.037  13.732  0.00  0.00    +0.000 C 
BRANCH  21  22
ATOM     22  N   UNL     1      49.053   8.038  12.715  0.00  0.00    +0.000 N 
ATOM     23  C   UNL     1      49.670   9.226  13.003  0.00  0.00    +0.000 C 
ATOM     24  O   UNL     1      50.107   9.474  14.124  0.00  0.00    +0.000 OA
ATOM     25  H   UNL     1      48.512   7.955  11.857  0.00  0.00    +0.000 HD
BRANCH  23  26
ATOM     26  C   UNL     1      49.845  10.163  11.887  0.00  0.00    +0.000 A 
ATOM     27  C   UNL     1      51.125  10.458  11.435  0.00  0.00    +0.000 A 
ATOM     28  S   UNL     1      51.153  11.521  10.103  0.00  0.00    +0.000 S 
ATOM     29  C   UNL     1      49.457  11.665  10.112  0.00  0.00    +0.000 A 
ATOM     30  N   UNL     1      48.820  12.465   9.218  0.00  0.00    +0.000 NA
ATOM     31  C   UNL     1      47.536  12.509   9.360  0.00  0.00    +0.000 A 
ATOM     32  N   UNL     1      46.832  11.817  10.313  0.00  0.00    +0.000 N 
ATOM     33  C   UNL     1      47.431  10.971  11.214  0.00  0.00    +0.000 A 
ATOM     34  O   UNL     1      46.770  10.322  12.019  0.00  0.00    +0.000 OA
ATOM     35  C   UNL     1      48.877  10.899  11.109  0.00  0.00    +0.000 A 
ATOM     36  H   UNL     1      45.827  11.887  10.363  0.00  0.00    +0.000 HD
ENDBRANCH  23  26
ENDBRANCH  21  22
ENDBRANCH   4  21
TORSDOF 9
ENDMDL
MODEL 4
REMARK VINA RESULT:    -6.841      4.721      9.851
REMARK INTER + INTRA:         -11.640
REMARK INTER:                  -9.856
REMARK INTRA:                  -1.784
REMARK UNBOUND:                -1.200
REMARK  Name = 
REMARK  10 active torsions:
REMARK  status: ('A' for Active; 'I' for Inactive)
REMARK    1  A    between atoms: C_1  and  C_2
REMARK    2  A    between atoms: C_2  and  N_3
REMARK    3  A    between atoms: C_2  and  C_14
REMARK    4  A    between atoms: N_3  and  C_4
REMARK    5  A    between atoms: C_4  and  C_5
REMARK    6  A    between atoms: N_8  and  C_9
REMARK    7  A    between atoms: C_9  and  C_10
REMARK    8  A    between atoms: C_17  and  C_18
REMARK    9  A    between atoms: C_18  and  N_19
REMARK   10  A    between atoms: C_20  and  C_22
REMARK                            x       y       z     vdW  Elec       q    Type
REMARK                         _______ _______ _______ _____ _____    ______ ____
ROOT
ATOM      1  C   UNL     1      49.889   4.990  17.118  0.00  0.00    +0.000 A 
ATOM      2  C   UNL     1      50.621   6.131  16.786  0.00  0.00    +0.000 A 
ATOM      3  C   UNL     1      50.080   7.052  15.887  0.00  0.00    +0.000 A 
ATOM      4  C   UNL     1      48.822   6.822  15.332  0.00  0.00    +0.000 A 
ATOM      5  C   UNL     1      48.174   5.648  15.692  0.00  0.00    +0.000 A 
ATOM      6  N   UNL     1      48.678   4.736  16.551  0.00  0.00    +0.000 NA
ENDROOT
BRANCH   1   8
ATOM      7  C   UNL     1      51.895   4.298  18.487  0.00  0.00    +0.000 C 
ATOM      8  C   UNL     1      50.447   3.957  18.114  0.00  0.00    +0.000 C 
BRANCH   8   9
ATOM      9  N   UNL     1      49.604   3.886  19.326  0.00  0.00    +0.000 NA
ATOM     10  H   UNL     1      49.901   3.067  19.860  0.00  0.00    +0.000 HD
BRANCH   9  11
ATOM     11  C   UNL     1      49.570   5.085  20.145  0.00  0.00    +0.000 C 
BRANCH  11  12
ATOM     12  C   UNL     1      48.122   5.454  20.547  0.00  0.00    +0.000 C 
ATOM     13  C   UNL     1      47.288   6.052  19.403  0.00  0.00    +0.000 C 
ATOM     14  C   UNL     1      47.755   7.455  19.013  0.00  0.00    +0.000 C 
ATOM     15  N   UNL     1      47.745   8.377  20.168  0.00  0.00    +0.000 NA
ATOM     16  C   UNL     1      48.567   7.860  21.270  0.00  0.00    +0.000 C 
ATOM     17  C   UNL     1      48.124   6.457  21.707  0.00  0.00    +0.000 C 
BRANCH  15  18
ATOM     18  C   UNL     1      48.183   9.718  19.724  0.00  0.00    +0.000 C 
BRANCH  18  19
ATOM     19  C   UNL     1      47.062  10.732  19.481  0.00  0.00    +0.000 C 
ATOM     20  F   UNL     1      45.922  10.274  20.072  0.00  0.00    +0.000 F 
ENDBRANCH  18  19
ENDBRANCH  15  18
ENDBRANCH  11  12
ENDBRANCH   9  11
ENDBRANCH   8   9
ENDBRANCH   1   8
BRANCH   4  21
ATOM     21  C   UNL     1      48.208   7.751  14.328  0.00  0.00    +0.000 C 
BRANCH  21  22
ATOM     22  N   UNL     1      46.966   7.212  13.829  0.00  0.00    +0.000 N 
ATOM     23  C   UNL     1      46.824   6.848  12.517  0.00  0.00    +0.000 C 
ATOM     24  O   UNL     1      47.755   6.923  11.720  0.00  0.00    +0.000 OA
ATOM     25  H   UNL     1      46.134   7.350  14.399  0.00  0.00    +0.000 HD
BRANCH  23  26
ATOM     26  C   UNL     1      45.521   6.298  12.126  0.00  0.00    +0.000 A 
ATOM     27  C   UNL     1      44.548   7.144  11.609  0.00  0.00    +0.000 A 
ATOM     28  S   UNL     1      43.113   6.344  11.158  0.00  0.00    +0.000 S 
ATOM     29  C   UNL     1      43.721   4.843  11.681  0.00  0.00    +0.000 A 
ATOM     30  N   UNL     1      42.966   3.716  11.595  0.00  0.00    +0.000 NA
ATOM     31  C   UNL     1      43.536   2.654  12.061  0.00  0.00    +0.000 A 
ATOM     32  N   UNL     1      44.798   2.618  12.599  0.00  0.00    +0.000 N 
ATOM     33  C   UNL     1      45.608   3.723  12.674  0.00  0.00    +0.000 A 
ATOM     34  O   UNL     1      46.753   3.650  13.109  0.00  0.00    +0.000 OA
ATOM     35  C   UNL     1      45.008   4.949  12.180  0.00  0.00    +0.000 A 
ATOM     36  H   UNL     1      45.189   1.751  12.936  0.00  0.00    +0.000 HD
ENDBRANCH  23  26
ENDBRANCH  21  22
ENDBRANCH   4  21
TORSDOF 9
ENDMDL
MODEL 5
REMARK VINA RESULT:    -6.591      3.947      9.419
REMARK INTER + INTRA:         -11.258
REMARK INTER:                  -9.933
REMARK INTRA:                  -1.325
REMARK UNBOUND:                -1.200
REMARK  Name = 
REMARK  10 active torsions:
REMARK  status: ('A' for Active; 'I' for Inactive)
REMARK    1  A    between atoms: C_1  and  C_2
REMARK    2  A    between atoms: C_2  and  N_3
REMARK    3  A    between atoms: C_2  and  C_14
REMARK    4  A    between atoms: N_3  and  C_4
REMARK    5  A    between atoms: C_4  and  C_5
REMARK    6  A    between atoms: N_8  and  C_9
REMARK    7  A    between atoms: C_9  and  C_10
REMARK    8  A    between atoms: C_17  and  C_18
REMARK    9  A    between atoms: C_18  and  N_19
REMARK   10  A    between atoms: C_20  and  C_22
REMARK                            x       y       z     vdW  Elec       q    Type
REMARK                         _______ _______ _______ _____ _____    ______ ____
ROOT
ATOM      1  C   UNL     1      50.656   7.635  14.757  0.00  0.00    +0.000 A 
ATOM      2  C   UNL     1      50.767   8.634  13.789  0.00  0.00    +0.000 A 
ATOM      3  C   UNL     1      49.746   8.792  12.849  0.00  0.00    +0.000 A 
ATOM      4  C   UNL     1      48.634   7.953  12.887  0.00  0.00    +0.000 A 
ATOM      5  C   UNL     1      48.616   6.966  13.863  0.00  0.00    +0.000 A 
ATOM      6  N   UNL     1      49.593   6.785  14.777  0.00  0.00    +0.000 NA
ENDROOT
BRANCH   1   8
ATOM      7  C   UNL     1      51.967   8.727  16.618  0.00  0.00    +0.000 C 
ATOM      8  C   UNL     1      51.755   7.437  15.816  0.00  0.00    +0.000 C 
BRANCH   8   9
ATOM      9  N   UNL     1      51.420   6.316  16.719  0.00  0.00    +0.000 NA
ATOM     10  H   UNL     1      52.291   5.834  16.948  0.00  0.00    +0.000 HD
BRANCH   9  11
ATOM     11  C   UNL     1      50.665   6.666  17.910  0.00  0.00    +0.000 C 
BRANCH  11  12
ATOM     12  C   UNL     1      50.668   5.513  18.941  0.00  0.00    +0.000 C 
ATOM     13  C   UNL     1      50.915   4.125  18.328  0.00  0.00    +0.000 C 
ATOM     14  C   UNL     1      49.734   3.642  17.487  0.00  0.00    +0.000 C 
ATOM     15  N   UNL     1      48.478   3.623  18.264  0.00  0.00    +0.000 NA
ATOM     16  C   UNL     1      48.184   4.945  18.834  0.00  0.00    +0.000 C 
ATOM     17  C   UNL     1      49.337   5.466  19.701  0.00  0.00    +0.000 C 
BRANCH  15  18
ATOM     18  C   UNL     1      47.380   3.127  17.405  0.00  0.00    +0.000 C 
BRANCH  18  19
ATOM     19  C   UNL     1      47.528   3.419  15.910  0.00  0.00    +0.000 C 
ATOM     20  F   UNL     1      46.960   4.628  15.642  0.00  0.00    +0.000 F 
ENDBRANCH  18  19
ENDBRANCH  15  18
ENDBRANCH  11  12
ENDBRANCH   9  11
ENDBRANCH   8   9
ENDBRANCH   1   8
BRANCH   4  21
ATOM     21  C   UNL     1      47.528   8.045  11.880  0.00  0.00    +0.000 C 
BRANCH  21  22
ATOM     22  N   UNL     1      46.843   6.780  11.760  0.00  0.00    +0.000 N 
ATOM     23  C   UNL     1      45.477   6.714  11.696  0.00  0.00    +0.000 C 
ATOM     24  O   UNL     1      44.779   7.724  11.696  0.00  0.00    +0.000 OA
ATOM     25  H   UNL     1      47.371   5.939  11.982  0.00  0.00    +0.000 HD
BRANCH  23  26
ATOM     26  C   UNL     1      44.891   5.375  11.561  0.00  0.00    +0.000 A 
ATOM     27  C   UNL     1      44.193   4.822  12.627  0.00  0.00    +0.000 A 
ATOM     28  S   UNL     1      43.533   3.287  12.291  0.00  0.00    +0.000 S 
ATOM     29  C   UNL     1      44.196   3.284  10.724  0.00  0.00    +0.000 A 
ATOM     30  N   UNL     1      44.020   2.223   9.893  0.00  0.00    +0.000 NA
ATOM     31  C   UNL     1      44.606   2.337   8.747  0.00  0.00    +0.000 A 
ATOM     32  N   UNL     1      45.348   3.423   8.356  0.00  0.00    +0.000 N 
ATOM     33  C   UNL     1      45.523   4.531   9.147  0.00  0.00    +0.000 A 
ATOM     34  O   UNL     1      46.145   5.510   8.749  0.00  0.00    +0.000 OA
ATOM     35  C   UNL     1      44.899   4.446  10.455  0.00  0.00    +0.000 A 
ATOM     36  H   UNL     1      45.771   3.454   7.441  0.00  0.00    +0.000 HD
ENDBRANCH  23  26
ENDBRANCH  21  22
ENDBRANCH   4  21
TORSDOF 9
ENDMDL
MODEL 6
REMARK VINA RESULT:    -6.536      4.583      9.392
REMARK INTER + INTRA:         -11.175
REMARK INTER:                  -9.252
REMARK INTRA:                  -1.924
REMARK UNBOUND:                -1.200
REMARK  Name = 
REMARK  10 active torsions:
REMARK  status: ('A' for Active; 'I' for Inactive)
REMARK    1  A    between atoms: C_1  and  C_2
REMARK    2  A    between atoms: C_2  and  N_3
REMARK    3  A    between atoms: C_2  and  C_14
REMARK    4  A    between atoms: N_3  and  C_4
REMARK    5  A    between atoms: C_4  and  C_5
REMARK    6  A    between atoms: N_8  and  C_9
REMARK    7  A    between atoms: C_9  and  C_10
REMARK    8  A    between atoms: C_17  and  C_18
REMARK    9  A    between atoms: C_18  and  N_19
REMARK   10  A    between atoms: C_20  and  C_22
REMARK                            x       y       z     vdW  Elec       q    Type
REMARK                         _______ _______ _______ _____ _____    ______ ____
ROOT
ATOM      1  C   UNL     1      50.844   4.685  18.889  0.00  0.00    +0.000 A 
ATOM      2  C   UNL     1      50.970   3.639  17.973  0.00  0.00    +0.000 A 
ATOM      3  C   UNL     1      49.844   3.209  17.268  0.00  0.00    +0.000 A 
ATOM      4  C   UNL     1      48.611   3.823  17.489  0.00  0.00    +0.000 A 
ATOM      5  C   UNL     1      48.567   4.833  18.440  0.00  0.00    +0.000 A 
ATOM      6  N   UNL     1      49.638   5.264  19.141  0.00  0.00    +0.000 NA
ENDROOT
BRANCH   1   8
ATOM      7  C   UNL     1      52.878   4.017  20.229  0.00  0.00    +0.000 C 
ATOM      8  C   UNL     1      52.065   5.195  19.676  0.00  0.00    +0.000 C 
BRANCH   8   9
ATOM      9  N   UNL     1      52.914   6.058  18.829  0.00  0.00    +0.000 NA
ATOM     10  H   UNL     1      53.164   5.520  17.997  0.00  0.00    +0.000 HD
BRANCH   9  11
ATOM     11  C   UNL     1      52.358   7.356  18.489  0.00  0.00    +0.000 C 
BRANCH  11  12
ATOM     12  C   UNL     1      52.619   7.712  17.007  0.00  0.00    +0.000 C 
ATOM     13  C   UNL     1      52.338   9.182  16.656  0.00  0.00    +0.000 C 
ATOM     14  C   UNL     1      50.845   9.511  16.684  0.00  0.00    +0.000 C 
ATOM     15  N   UNL     1      50.072   8.631  15.784  0.00  0.00    +0.000 NA
ATOM     16  C   UNL     1      50.283   7.214  16.114  0.00  0.00    +0.000 C 
ATOM     17  C   UNL     1      51.768   6.832  16.083  0.00  0.00    +0.000 C 
BRANCH  15  18
ATOM     18  C   UNL     1      48.644   9.012  15.837  0.00  0.00    +0.000 C 
BRANCH  18  19
ATOM     19  C   UNL     1      48.049   9.148  17.242  0.00  0.00    +0.000 C 
ATOM     20  F   UNL     1      47.682  10.446  17.437  0.00  0.00    +0.000 F 
ENDBRANCH  18  19
ENDBRANCH  15  18
ENDBRANCH  11  12
ENDBRANCH   9  11
ENDBRANCH   8   9
ENDBRANCH   1   8
BRANCH   4  21
ATOM     21  C   UNL     1      47.359   3.375  16.797  0.00  0.00    +0.000 C 
BRANCH  21  22
ATOM     22  N   UNL     1      46.908   4.379  15.864  0.00  0.00    +0.000 N 
ATOM     23  C   UNL     1      46.934   4.158  14.513  0.00  0.00    +0.000 C 
ATOM     24  O   UNL     1      47.301   3.087  14.039  0.00  0.00    +0.000 OA
ATOM     25  H   UNL     1      46.817   5.332  16.210  0.00  0.00    +0.000 HD
BRANCH  23  26
ATOM     26  C   UNL     1      46.437   5.245  13.661  0.00  0.00    +0.000 A 
ATOM     27  C   UNL     1      47.198   6.396  13.505  0.00  0.00    +0.000 A 
ATOM     28  S   UNL     1      46.505   7.537  12.446  0.00  0.00    +0.000 S 
ATOM     29  C   UNL     1      45.139   6.556  12.193  0.00  0.00    +0.000 A 
ATOM     30  N   UNL     1      44.124   6.965  11.387  0.00  0.00    +0.000 NA
ATOM     31  C   UNL     1      43.133   6.139  11.312  0.00  0.00    +0.000 A 
ATOM     32  N   UNL     1      43.071   4.935  11.968  0.00  0.00    +0.000 N 
ATOM     33  C   UNL     1      44.086   4.466  12.764  0.00  0.00    +0.000 A 
ATOM     34  O   UNL     1      44.026   3.360  13.293  0.00  0.00    +0.000 OA
ATOM     35  C   UNL     1      45.217   5.366  12.896  0.00  0.00    +0.000 A 
ATOM     36  H   UNL     1      42.271   4.330  11.858  0.00  0.00    +0.000 HD
ENDBRANCH  23  26
ENDBRANCH  21  22
ENDBRANCH   4  21
TORSDOF 9
ENDMDL
MODEL 7
REMARK VINA RESULT:    -6.515      4.270      9.235
REMARK INTER + INTRA:         -11.143
REMARK INTER:                  -9.208
REMARK INTRA:                  -1.935
REMARK UNBOUND:                -1.200
REMARK  Name = 
REMARK  10 active torsions:
REMARK  status: ('A' for Active; 'I' for Inactive)
REMARK    1  A    between atoms: C_1  and  C_2
REMARK    2  A    between atoms: C_2  and  N_3
REMARK    3  A    between atoms: C_2  and  C_14
REMARK    4  A    between atoms: N_3  and  C_4
REMARK    5  A    between atoms: C_4  and  C_5
REMARK    6  A    between atoms: N_8  and  C_9
REMARK    7  A    between atoms: C_9  and  C_10
REMARK    8  A    between atoms: C_17  and  C_18
REMARK    9  A    between atoms: C_18  and  N_19
REMARK   10  A    between atoms: C_20  and  C_22
REMARK                            x       y       z     vdW  Elec       q    Type
REMARK                         _______ _______ _______ _____ _____    ______ ____
ROOT
ATOM      1  C   UNL     1      49.123   5.459  19.734  0.00  0.00    +0.000 A 
ATOM      2  C   UNL     1      49.984   4.754  18.890  0.00  0.00    +0.000 A 
ATOM      3  C   UNL     1      49.464   4.117  17.762  0.00  0.00    +0.000 A 
ATOM      4  C   UNL     1      48.098   4.189  17.493  0.00  0.00    +0.000 A 
ATOM      5  C   UNL     1      47.308   4.883  18.399  0.00  0.00    +0.000 A 
ATOM      6  N   UNL     1      47.782   5.502  19.502  0.00  0.00    +0.000 NA
ENDROOT
BRANCH   1   8
ATOM      7  C   UNL     1      51.163   5.924  21.149  0.00  0.00    +0.000 C 
ATOM      8  C   UNL     1      49.660   6.185  20.981  0.00  0.00    +0.000 C 
BRANCH   8   9
ATOM      9  N   UNL     1      49.392   7.636  20.901  0.00  0.00    +0.000 NA
ATOM     10  H   UNL     1      49.558   8.030  21.829  0.00  0.00    +0.000 HD
BRANCH   9  11
ATOM     11  C   UNL     1      50.114   8.357  19.868  0.00  0.00    +0.000 C 
BRANCH  11  12
ATOM     12  C   UNL     1      49.205   9.391  19.162  0.00  0.00    +0.000 C 
ATOM     13  C   UNL     1      48.099   8.767  18.296  0.00  0.00    +0.000 C 
ATOM     14  C   UNL     1      48.654   8.093  17.041  0.00  0.00    +0.000 C 
ATOM     15  N   UNL     1      49.454   9.028  16.224  0.00  0.00    +0.000 NA
ATOM     16  C   UNL     1      50.549   9.617  17.005  0.00  0.00    +0.000 C 
ATOM     17  C   UNL     1      50.039  10.320  18.270  0.00  0.00    +0.000 C 
BRANCH  15  18
ATOM     18  C   UNL     1      49.942   8.326  15.016  0.00  0.00    +0.000 C 
BRANCH  18  19
ATOM     19  C   UNL     1      51.303   7.641  15.157  0.00  0.00    +0.000 C 
ATOM     20  F   UNL     1      51.147   6.505  15.892  0.00  0.00    +0.000 F 
ENDBRANCH  18  19
ENDBRANCH  15  18
ENDBRANCH  11  12
ENDBRANCH   9  11
ENDBRANCH   8   9
ENDBRANCH   1   8
BRANCH   4  21
ATOM     21  C   UNL     1      47.475   3.488  16.323  0.00  0.00    +0.000 C 
BRANCH  21  22
ATOM     22  N   UNL     1      46.785   4.430  15.475  0.00  0.00    +0.000 N 
ATOM     23  C   UNL     1      46.891   4.370  14.112  0.00  0.00    +0.000 C 
ATOM     24  O   UNL     1      47.540   3.491  13.550  0.00  0.00    +0.000 OA
ATOM     25  H   UNL     1      46.437   5.283  15.909  0.00  0.00    +0.000 HD
BRANCH  23  26
ATOM     26  C   UNL     1      46.134   5.371  13.350  0.00  0.00    +0.000 A 
ATOM     27  C   UNL     1      46.687   6.625  13.128  0.00  0.00    +0.000 A 
ATOM     28  S   UNL     1      45.705   7.651  12.186  0.00  0.00    +0.000 S 
ATOM     29  C   UNL     1      44.482   6.473  12.080  0.00  0.00    +0.000 A 
ATOM     30  N   UNL     1      43.326   6.725  11.412  0.00  0.00    +0.000 NA
ATOM     31  C   UNL     1      42.470   5.758  11.440  0.00  0.00    +0.000 A 
ATOM     32  N   UNL     1      42.671   4.556  12.072  0.00  0.00    +0.000 N 
ATOM     33  C   UNL     1      43.836   4.245  12.728  0.00  0.00    +0.000 A 
ATOM     34  O   UNL     1      44.009   3.142  13.236  0.00  0.00    +0.000 OA
ATOM     35  C   UNL     1      44.826   5.306  12.742  0.00  0.00    +0.000 A 
ATOM     36  H   UNL     1      41.965   3.837  12.046  0.00  0.00    +0.000 HD
ENDBRANCH  23  26
ENDBRANCH  21  22
ENDBRANCH   4  21
TORSDOF 9
ENDMDL
MODEL 8
REMARK VINA RESULT:    -6.108      2.534      3.983
REMARK INTER + INTRA:         -10.521
REMARK INTER:                  -9.131
REMARK INTRA:                  -1.391
REMARK UNBOUND:                -1.200
REMARK  Name = 
REMARK  10 active torsions:
REMARK  status: ('A' for Active; 'I' for Inactive)
REMARK    1  A    between atoms: C_1  and  C_2
REMARK    2  A    between atoms: C_2  and  N_3
REMARK    3  A    between atoms: C_2  and  C_14
REMARK    4  A    between atoms: N_3  and  C_4
REMARK    5  A    between atoms: C_4  and  C_5
REMARK    6  A    between atoms: N_8  and  C_9
REMARK    7  A    between atoms: C_9  and  C_10
REMARK    8  A    between atoms: C_17  and  C_18
REMARK    9  A    between atoms: C_18  and  N_19
REMARK   10  A    between atoms: C_20  and  C_22
REMARK                            x       y       z     vdW  Elec       q    Type
REMARK                         _______ _______ _______ _____ _____    ______ ____
ROOT
ATOM      1  C   UNL     1      46.480   9.070  12.395  0.00  0.00    +0.000 A 
ATOM      2  C   UNL     1      47.630   9.170  11.611  0.00  0.00    +0.000 A 
ATOM      3  C   UNL     1      48.871   8.872  12.178  0.00  0.00    +0.000 A 
ATOM      4  C   UNL     1      48.947   8.483  13.515  0.00  0.00    +0.000 A 
ATOM      5  C   UNL     1      47.759   8.438  14.232  0.00  0.00    +0.000 A 
ATOM      6  N   UNL     1      46.547   8.729  13.711  0.00  0.00    +0.000 NA
ENDROOT
BRANCH   1   8
ATOM      7  C   UNL     1      45.112  10.722  11.062  0.00  0.00    +0.000 C 
ATOM      8  C   UNL     1      45.092   9.379  11.803  0.00  0.00    +0.000 C 
BRANCH   8   9
ATOM      9  N   UNL     1      44.653   8.296  10.899  0.00  0.00    +0.000 NA
ATOM     10  H   UNL     1      45.492   7.849  10.524  0.00  0.00    +0.000 HD
BRANCH   9  11
ATOM     11  C   UNL     1      43.732   7.329  11.470  0.00  0.00    +0.000 C 
BRANCH  11  12
ATOM     12  C   UNL     1      44.472   6.294  12.350  0.00  0.00    +0.000 C 
ATOM     13  C   UNL     1      45.726   5.695  11.692  0.00  0.00    +0.000 C 
ATOM     14  C   UNL     1      45.385   4.764  10.528  0.00  0.00    +0.000 C 
ATOM     15  N   UNL     1      44.476   3.677  10.944  0.00  0.00    +0.000 NA
ATOM     16  C   UNL     1      43.244   4.210  11.541  0.00  0.00    +0.000 C 
ATOM     17  C   UNL     1      43.536   5.139  12.726  0.00  0.00    +0.000 C 
BRANCH  15  18
ATOM     18  C   UNL     1      44.201   2.800   9.784  0.00  0.00    +0.000 C 
BRANCH  18  19
ATOM     19  C   UNL     1      45.242   2.846   8.662  0.00  0.00    +0.000 C 
ATOM     20  F   UNL     1      44.684   3.444   7.572  0.00  0.00    +0.000 F 
ENDBRANCH  18  19
ENDBRANCH  15  18
ENDBRANCH  11  12
ENDBRANCH   9  11
ENDBRANCH   8   9
ENDBRANCH   1   8
BRANCH   4  21
ATOM     21  C   UNL     1      50.253   8.193  14.191  0.00  0.00    +0.000 C 
BRANCH  21  22
ATOM     22  N   UNL     1      50.098   7.143  15.169  0.00  0.00    +0.000 N 
ATOM     23  C   UNL     1      49.978   7.425  16.503  0.00  0.00    +0.000 C 
ATOM     24  O   UNL     1      49.955   8.579  16.922  0.00  0.00    +0.000 OA
ATOM     25  H   UNL     1      50.338   6.197  14.880  0.00  0.00    +0.000 HD
BRANCH  23  26
ATOM     26  C   UNL     1      49.811   6.278  17.404  0.00  0.00    +0.000 A 
ATOM     27  C   UNL     1      50.561   6.209  18.571  0.00  0.00    +0.000 A 
ATOM     28  S   UNL     1      50.213   4.843  19.529  0.00  0.00    +0.000 S 
ATOM     29  C   UNL     1      49.082   4.268  18.395  0.00  0.00    +0.000 A 
ATOM     30  N   UNL     1      48.420   3.099  18.601  0.00  0.00    +0.000 NA
ATOM     31  C   UNL     1      47.618   2.763  17.645  0.00  0.00    +0.000 A 
ATOM     32  N   UNL     1      47.413   3.497  16.504  0.00  0.00    +0.000 N 
ATOM     33  C   UNL     1      48.033   4.700  16.271  0.00  0.00    +0.000 A 
ATOM     34  O   UNL     1      47.788   5.362  15.267  0.00  0.00    +0.000 OA
ATOM     35  C   UNL     1      48.960   5.115  17.307  0.00  0.00    +0.000 A 
ATOM     36  H   UNL     1      46.763   3.184  15.800  0.00  0.00    +0.000 HD
ENDBRANCH  23  26
ENDBRANCH  21  22
ENDBRANCH   4  21
TORSDOF 9
ENDMDL
MODEL 9
REMARK VINA RESULT:    -5.977      2.569      3.259
REMARK INTER + INTRA:         -10.322
REMARK INTER:                  -9.128
REMARK INTRA:                  -1.193
REMARK UNBOUND:                -1.200
REMARK  Name = 
REMARK  10 active torsions:
REMARK  status: ('A' for Active; 'I' for Inactive)
REMARK    1  A    between atoms: C_1  and  C_2
REMARK    2  A    between atoms: C_2  and  N_3
REMARK    3  A    between atoms: C_2  and  C_14
REMARK    4  A    between atoms: N_3  and  C_4
REMARK    5  A    between atoms: C_4  and  C_5
REMARK    6  A    between atoms: N_8  and  C_9
REMARK    7  A    between atoms: C_9  and  C_10
REMARK    8  A    between atoms: C_17  and  C_18
REMARK    9  A    between atoms: C_18  and  N_19
REMARK   10  A    between atoms: C_20  and  C_22
REMARK                            x       y       z     vdW  Elec       q    Type
REMARK                         _______ _______ _______ _____ _____    ______ ____
ROOT
ATOM      1  C   UNL     1      45.453   4.649  11.008  0.00  0.00    +0.000 A 
ATOM      2  C   UNL     1      45.409   4.490  12.394  0.00  0.00    +0.000 A 
ATOM      3  C   UNL     1      45.913   5.501  13.214  0.00  0.00    +0.000 A 
ATOM      4  C   UNL     1      46.454   6.652  12.643  0.00  0.00    +0.000 A 
ATOM      5  C   UNL     1      46.487   6.717  11.256  0.00  0.00    +0.000 A 
ATOM      6  N   UNL     1      46.015   5.751  10.440  0.00  0.00    +0.000 NA
ENDROOT
BRANCH   1   8
ATOM      7  C   UNL     1      43.568   3.016  10.610  0.00  0.00    +0.000 C 
ATOM      8  C   UNL     1      44.897   3.561  10.071  0.00  0.00    +0.000 C 
BRANCH   8   9
ATOM      9  N   UNL     1      44.722   4.086   8.701  0.00  0.00    +0.000 NA
ATOM     10  H   UNL     1      45.217   4.979   8.648  0.00  0.00    +0.000 HD
BRANCH   9  11
ATOM     11  C   UNL     1      45.106   3.189   7.625  0.00  0.00    +0.000 C 
BRANCH  11  12
ATOM     12  C   UNL     1      46.624   3.270   7.335  0.00  0.00    +0.000 C 
ATOM     13  C   UNL     1      46.966   3.580   5.869  0.00  0.00    +0.000 C 
ATOM     14  C   UNL     1      46.644   2.412   4.937  0.00  0.00    +0.000 C 
ATOM     15  N   UNL     1      47.329   1.172   5.354  0.00  0.00    +0.000 NA
ATOM     16  C   UNL     1      46.994   0.818   6.740  0.00  0.00    +0.000 C 
ATOM     17  C   UNL     1      47.316   1.956   7.717  0.00  0.00    +0.000 C 
BRANCH  15  18
ATOM     18  C   UNL     1      46.997   0.088   4.403  0.00  0.00    +0.000 C 
BRANCH  18  19
ATOM     19  C   UNL     1      46.327   0.535   3.102  0.00  0.00    +0.000 C 
ATOM     20  F   UNL     1      46.473  -0.452   2.173  0.00  0.00    +0.000 F 
ENDBRANCH  18  19
ENDBRANCH  15  18
ENDBRANCH  11  12
ENDBRANCH   9  11
ENDBRANCH   8   9
ENDBRANCH   1   8
BRANCH   4  21
ATOM     21  C   UNL     1      47.050   7.751  13.469  0.00  0.00    +0.000 C 
BRANCH  21  22
ATOM     22  N   UNL     1      48.195   7.271  14.204  0.00  0.00    +0.000 N 
ATOM     23  C   UNL     1      48.680   7.950  15.289  0.00  0.00    +0.000 C 
ATOM     24  O   UNL     1      48.140   8.970  15.710  0.00  0.00    +0.000 OA
ATOM     25  H   UNL     1      48.782   6.573  13.752  0.00  0.00    +0.000 HD
BRANCH  23  26
ATOM     26  C   UNL     1      49.840   7.360  15.968  0.00  0.00    +0.000 A 
ATOM     27  C   UNL     1      51.048   8.045  15.981  0.00  0.00    +0.000 A 
ATOM     28  S   UNL     1      52.278   7.250  16.852  0.00  0.00    +0.000 S 
ATOM     29  C   UNL     1      51.256   5.936  17.203  0.00  0.00    +0.000 A 
ATOM     30  N   UNL     1      51.708   4.872  17.917  0.00  0.00    +0.000 NA
ATOM     31  C   UNL     1      50.838   3.929  18.080  0.00  0.00    +0.000 A 
ATOM     32  N   UNL     1      49.554   3.961  17.598  0.00  0.00    +0.000 N 
ATOM     33  C   UNL     1      49.045   5.029  16.903  0.00  0.00    +0.000 A 
ATOM     34  O   UNL     1      47.875   5.053  16.532  0.00  0.00    +0.000 OA
ATOM     35  C   UNL     1      49.988   6.109  16.676  0.00  0.00    +0.000 A 
ATOM     36  H   UNL     1      48.920   3.195  17.771  0.00  0.00    +0.000 HD
ENDBRANCH  23  26
ENDBRANCH  21  22
ENDBRANCH   4  21
TORSDOF 9
ENDMDL
