MODEL 1
REMARK VINA RESULT:    -7.218      0.000      0.000
REMARK INTER + INTRA:         -10.764
REMARK INTER:                  -9.750
REMARK INTRA:                  -1.013
REMARK UNBOUND:                -1.013
REMARK  Name = 
REMARK  8 active torsions:
REMARK  status: ('A' for Active; 'I' for Inactive)
REMARK    1  A    between atoms: C_1  and  C_2
REMARK    2  A    between atoms: C_2  and  C_3
REMARK    3  A    between atoms: C_2  and  C_4
REMARK    4  A    between atoms: C_8  and  C_9
REMARK    5  A    between atoms: C_9  and  C_10
REMARK    6  A    between atoms: C_10  and  O_11
REMARK    7  A    between atoms: O_11  and  C_12
REMARK    8  A    between atoms: C_16  and  C_17
REMARK                            x       y       z     vdW  Elec       q    Type
REMARK                         _______ _______ _______ _____ _____    ______ ____
ROOT
ATOM      1  O   UNL     1      43.987   3.705  12.973  0.00  0.00    +0.000 OA
ENDROOT
BRANCH   1   2
ATOM      2  C   UNL     1      44.924   4.712  12.986  0.00  0.00    +0.000 A 
ATOM      3  C   UNL     1      46.242   4.566  13.434  0.00  0.00    +0.000 A 
ATOM      4  C   UNL     1      47.120   5.649  13.425  0.00  0.00    +0.000 A 
ATOM      5  C   UNL     1      46.695   6.886  12.951  0.00  0.00    +0.000 A 
ATOM      6  C   UNL     1      45.394   7.038  12.459  0.00  0.00    +0.000 A 
ATOM      7  C   UNL     1      44.507   5.950  12.480  0.00  0.00    +0.000 A 
BRANCH   6   8
ATOM      8  C   UNL     1      45.013   8.376  11.938  0.00  0.00    +0.000 C 
ATOM      9  N   UNL     1      43.917   8.449  11.128  0.00  0.00    +0.000 N 
ATOM     10  O   UNL     1      45.684   9.375  12.174  0.00  0.00    +0.000 OA
ATOM     11  H   UNL     1      43.492   7.631  10.717  0.00  0.00    +0.000 HD
ATOM     12  H   UNL     1      43.767   9.338  10.668  0.00  0.00    +0.000 HD
ENDBRANCH   6   8
ENDBRANCH   1   2
BRANCH   1  13
ATOM     13  C   UNL     1      43.238   3.595  11.753  0.00  0.00    +0.000 C 
BRANCH  13  14
ATOM     14  C   UNL     1      43.730   2.409  10.921  0.00  0.00    +0.000 C 
BRANCH  14  19
ATOM     15  C   UNL     1      46.241   2.379   8.025  0.00  0.00    +0.000 A 
ATOM     16  C   UNL     1      46.241   3.741   7.681  0.00  0.00    +0.000 A 
ATOM     17  C   UNL     1      45.473   4.661   8.394  0.00  0.00    +0.000 A 
ATOM     18  C   UNL     1      44.682   4.236   9.460  0.00  0.00    +0.000 A 
ATOM     19  C   UNL     1      44.660   2.886   9.828  0.00  0.00    +0.000 A 
ATOM     20  C   UNL     1      45.451   1.969   9.111  0.00  0.00    +0.000 A 
BRANCH  15  22
ATOM     21  C   UNL     1      46.777  -0.028   7.575  0.00  0.00    +0.000 C 
ATOM     22  C   UNL     1      47.117   1.423   7.228  0.00  0.00    +0.000 C 
ATOM     23  C   UNL     1      47.069   1.631   5.711  0.00  0.00    +0.000 C 
ENDBRANCH  15  22
ENDBRANCH  14  19
ENDBRANCH  13  14
ENDBRANCH   1  13
TORSDOF 6
ENDMDL
MODEL 2
REMARK VINA RESULT:    -7.173      1.807      2.267
REMARK INTER + INTRA:         -10.703
REMARK INTER:                  -9.667
REMARK INTRA:                  -1.036
REMARK UNBOUND:                -1.013
REMARK  Name = 
REMARK  8 active torsions:
REMARK  status: ('A' for Active; 'I' for Inactive)
REMARK    1  A    between atoms: C_1  and  C_2
REMARK    2  A    between atoms: C_2  and  C_3
REMARK    3  A    between atoms: C_2  and  C_4
REMARK    4  A    between atoms: C_8  and  C_9
REMARK    5  A    between atoms: C_9  and  C_10
REMARK    6  A    between atoms: C_10  and  O_11
REMARK    7  A    between atoms: O_11  and  C_12
REMARK    8  A    between atoms: C_16  and  C_17
REMARK                            x       y       z     vdW  Elec       q    Type
REMARK                         _______ _______ _______ _____ _____    ______ ____
ROOT
ATOM      1  O   UNL     1      43.905   4.207  12.429  0.00  0.00    +0.000 OA
ENDROOT
BRANCH   1   2
ATOM      2  C   UNL     1      44.655   5.359  12.364  0.00  0.00    +0.000 A 
ATOM      3  C   UNL     1      44.249   6.537  11.727  0.00  0.00    +0.000 A 
ATOM      4  C   UNL     1      45.083   7.654  11.698  0.00  0.00    +0.000 A 
ATOM      5  C   UNL     1      46.326   7.610  12.322  0.00  0.00    +0.000 A 
ATOM      6  C   UNL     1      46.729   6.454  13.000  0.00  0.00    +0.000 A 
ATOM      7  C   UNL     1      45.893   5.327  13.017  0.00  0.00    +0.000 A 
BRANCH   6   8
ATOM      8  C   UNL     1      48.054   6.484  13.672  0.00  0.00    +0.000 C 
ATOM      9  N   UNL     1      48.069   6.603  15.032  0.00  0.00    +0.000 N 
ATOM     10  O   UNL     1      49.101   6.459  13.034  0.00  0.00    +0.000 OA
ATOM     11  H   UNL     1      47.252   6.870  15.561  0.00  0.00    +0.000 HD
ATOM     12  H   UNL     1      48.976   6.772  15.449  0.00  0.00    +0.000 HD
ENDBRANCH   6   8
ENDBRANCH   1   2
BRANCH   1  13
ATOM     13  C   UNL     1      44.516   3.057  11.826  0.00  0.00    +0.000 C 
BRANCH  13  14
ATOM     14  C   UNL     1      43.933   2.803  10.433  0.00  0.00    +0.000 C 
BRANCH  14  19
ATOM     15  C   UNL     1      46.562   2.138   7.723  0.00  0.00    +0.000 A 
ATOM     16  C   UNL     1      46.803   3.449   7.283  0.00  0.00    +0.000 A 
ATOM     17  C   UNL     1      46.157   4.535   7.874  0.00  0.00    +0.000 A 
ATOM     18  C   UNL     1      45.250   4.329   8.912  0.00  0.00    +0.000 A 
ATOM     19  C   UNL     1      44.988   3.035   9.374  0.00  0.00    +0.000 A 
ATOM     20  C   UNL     1      45.658   1.948   8.781  0.00  0.00    +0.000 A 
BRANCH  15  22
ATOM     21  C   UNL     1      46.774  -0.354   7.547  0.00  0.00    +0.000 C 
ATOM     22  C   UNL     1      47.313   0.993   7.060  0.00  0.00    +0.000 C 
ATOM     23  C   UNL     1      47.319   1.039   5.528  0.00  0.00    +0.000 C 
ENDBRANCH  15  22
ENDBRANCH  14  19
ENDBRANCH  13  14
ENDBRANCH   1  13
TORSDOF 6
ENDMDL
MODEL 3
REMARK VINA RESULT:    -6.812      3.176      6.599
REMARK INTER + INTRA:         -10.214
REMARK INTER:                  -9.366
REMARK INTRA:                  -0.848
REMARK UNBOUND:                -1.013
REMARK  Name = 
REMARK  8 active torsions:
REMARK  status: ('A' for Active; 'I' for Inactive)
REMARK    1  A    between atoms: C_1  and  C_2
REMARK    2  A    between atoms: C_2  and  C_3
REMARK    3  A    between atoms: C_2  and  C_4
REMARK    4  A    between atoms: C_8  and  C_9
REMARK    5  A    between atoms: C_9  and  C_10
REMARK    6  A    between atoms: C_10  and  O_11
REMARK    7  A    between atoms: O_11  and  C_12
REMARK    8  A    between atoms: C_16  and  C_17
REMARK                            x       y       z     vdW  Elec       q    Type
REMARK                         _______ _______ _______ _____ _____    ______ ____
ROOT
ATOM      1  O   UNL     1      44.445   4.820   9.279  0.00  0.00    +0.000 OA
ENDROOT
BRANCH   1   2
ATOM      2  C   UNL     1      45.004   3.648   8.824  0.00  0.00    +0.000 A 
ATOM      3  C   UNL     1      44.717   2.378   9.336  0.00  0.00    +0.000 A 
ATOM      4  C   UNL     1      45.345   1.245   8.821  0.00  0.00    +0.000 A 
ATOM      5  C   UNL     1      46.256   1.368   7.777  0.00  0.00    +0.000 A 
ATOM      6  C   UNL     1      46.522   2.626   7.225  0.00  0.00    +0.000 A 
ATOM      7  C   UNL     1      45.898   3.767   7.752  0.00  0.00    +0.000 A 
BRANCH   6   8
ATOM      8  C   UNL     1      47.480   2.684   6.091  0.00  0.00    +0.000 C 
ATOM      9  N   UNL     1      48.812   2.691   6.390  0.00  0.00    +0.000 N 
ATOM     10  O   UNL     1      47.099   2.781   4.929  0.00  0.00    +0.000 OA
ATOM     11  H   UNL     1      49.157   2.859   7.323  0.00  0.00    +0.000 HD
ATOM     12  H   UNL     1      49.437   2.881   5.616  0.00  0.00    +0.000 HD
ENDBRANCH   6   8
ENDBRANCH   1   2
BRANCH   1  13
ATOM     13  C   UNL     1      43.623   4.681  10.448  0.00  0.00    +0.000 C 
BRANCH  13  14
ATOM     14  C   UNL     1      43.823   5.866  11.394  0.00  0.00    +0.000 C 
BRANCH  14  19
ATOM     15  C   UNL     1      47.461   6.892  12.039  0.00  0.00    +0.000 A 
ATOM     16  C   UNL     1      47.790   6.003  13.074  0.00  0.00    +0.000 A 
ATOM     17  C   UNL     1      46.868   5.062  13.534  0.00  0.00    +0.000 A 
ATOM     18  C   UNL     1      45.594   4.998  12.972  0.00  0.00    +0.000 A 
ATOM     19  C   UNL     1      45.235   5.870  11.938  0.00  0.00    +0.000 A 
ATOM     20  C   UNL     1      46.178   6.804  11.472  0.00  0.00    +0.000 A 
BRANCH  15  22
ATOM     21  C   UNL     1      48.166   9.297  12.022  0.00  0.00    +0.000 C 
ATOM     22  C   UNL     1      48.513   7.880  11.560  0.00  0.00    +0.000 C 
ATOM     23  C   UNL     1      49.948   7.528  11.964  0.00  0.00    +0.000 C 
ENDBRANCH  15  22
ENDBRANCH  14  19
ENDBRANCH  13  14
ENDBRANCH   1  13
TORSDOF 6
ENDMDL
MODEL 4
REMARK VINA RESULT:    -6.659      2.124      3.183
REMARK INTER + INTRA:         -10.009
REMARK INTER:                  -9.368
REMARK INTRA:                  -0.641
REMARK UNBOUND:                -1.013
REMARK  Name = 
REMARK  8 active torsions:
REMARK  status: ('A' for Active; 'I' for Inactive)
REMARK    1  A    between atoms: C_1  and  C_2
REMARK    2  A    between atoms: C_2  and  C_3
REMARK    3  A    between atoms: C_2  and  C_4
REMARK    4  A    between atoms: C_8  and  C_9
REMARK    5  A    between atoms: C_9  and  C_10
REMARK    6  A    between atoms: C_10  and  O_11
REMARK    7  A    between atoms: O_11  and  C_12
REMARK    8  A    between atoms: C_16  and  C_17
REMARK                            x       y       z     vdW  Elec       q    Type
REMARK                         _______ _______ _______ _____ _____    ______ ____
ROOT
ATOM      1  O   UNL     1      43.879   6.324  11.973  0.00  0.00    +0.000 OA
ENDROOT
BRANCH   1   2
ATOM      2  C   UNL     1      45.179   6.238  12.413  0.00  0.00    +0.000 A 
ATOM      3  C   UNL     1      46.216   7.082  12.002  0.00  0.00    +0.000 A 
ATOM      4  C   UNL     1      47.511   6.911  12.491  0.00  0.00    +0.000 A 
ATOM      5  C   UNL     1      47.778   5.902  13.411  0.00  0.00    +0.000 A 
ATOM      6  C   UNL     1      46.744   5.077  13.866  0.00  0.00    +0.000 A 
ATOM      7  C   UNL     1      45.444   5.243  13.363  0.00  0.00    +0.000 A 
BRANCH   6   8
ATOM      8  C   UNL     1      47.091   4.041  14.873  0.00  0.00    +0.000 C 
ATOM      9  N   UNL     1      46.773   4.296  16.176  0.00  0.00    +0.000 N 
ATOM     10  O   UNL     1      47.690   3.016  14.565  0.00  0.00    +0.000 OA
ATOM     11  H   UNL     1      46.508   5.215  16.498  0.00  0.00    +0.000 HD
ATOM     12  H   UNL     1      47.151   3.649  16.857  0.00  0.00    +0.000 HD
ENDBRANCH   6   8
ENDBRANCH   1   2
BRANCH   1  13
ATOM     13  C   UNL     1      43.549   5.439  10.892  0.00  0.00    +0.000 C 
BRANCH  13  14
ATOM     14  C   UNL     1      44.619   5.498   9.799  0.00  0.00    +0.000 C 
BRANCH  14  19
ATOM     15  C   UNL     1      46.205   2.624   7.819  0.00  0.00    +0.000 A 
ATOM     16  C   UNL     1      45.539   1.529   8.392  0.00  0.00    +0.000 A 
ATOM     17  C   UNL     1      44.568   1.715   9.376  0.00  0.00    +0.000 A 
ATOM     18  C   UNL     1      44.249   3.000   9.812  0.00  0.00    +0.000 A 
ATOM     19  C   UNL     1      44.894   4.112   9.259  0.00  0.00    +0.000 A 
ATOM     20  C   UNL     1      45.861   3.914   8.257  0.00  0.00    +0.000 A 
BRANCH  15  22
ATOM     21  C   UNL     1      47.470   0.863   6.561  0.00  0.00    +0.000 C 
ATOM     22  C   UNL     1      47.238   2.365   6.732  0.00  0.00    +0.000 C 
ATOM     23  C   UNL     1      46.914   3.010   5.380  0.00  0.00    +0.000 C 
ENDBRANCH  15  22
ENDBRANCH  14  19
ENDBRANCH  13  14
ENDBRANCH   1  13
TORSDOF 6
ENDMDL
MODEL 5
REMARK VINA RESULT:    -6.537      3.004      4.536
REMARK INTER + INTRA:          -9.844
REMARK INTER:                  -9.098
REMARK INTRA:                  -0.746
REMARK UNBOUND:                -1.013
REMARK  Name = 
REMARK  8 active torsions:
REMARK  status: ('A' for Active; 'I' for Inactive)
REMARK    1  A    between atoms: C_1  and  C_2
REMARK    2  A    between atoms: C_2  and  C_3
REMARK    3  A    between atoms: C_2  and  C_4
REMARK    4  A    between atoms: C_8  and  C_9
REMARK    5  A    between atoms: C_9  and  C_10
REMARK    6  A    between atoms: C_10  and  O_11
REMARK    7  A    between atoms: O_11  and  C_12
REMARK    8  A    between atoms: C_16  and  C_17
REMARK                            x       y       z     vdW  Elec       q    Type
REMARK                         _______ _______ _______ _____ _____    ______ ____
ROOT
ATOM      1  O   UNL     1      46.971   6.142  12.754  0.00  0.00    +0.000 OA
ENDROOT
BRANCH   1   2
ATOM      2  C   UNL     1      47.574   6.013  13.984  0.00  0.00    +0.000 A 
ATOM      3  C   UNL     1      48.434   6.960  14.551  0.00  0.00    +0.000 A 
ATOM      4  C   UNL     1      49.015   6.737  15.799  0.00  0.00    +0.000 A 
ATOM      5  C   UNL     1      48.727   5.571  16.502  0.00  0.00    +0.000 A 
ATOM      6  C   UNL     1      47.835   4.634  15.968  0.00  0.00    +0.000 A 
ATOM      7  C   UNL     1      47.262   4.855  14.706  0.00  0.00    +0.000 A 
BRANCH   6   8
ATOM      8  C   UNL     1      47.546   3.426  16.783  0.00  0.00    +0.000 C 
ATOM      9  N   UNL     1      48.565   2.540  16.981  0.00  0.00    +0.000 N 
ATOM     10  O   UNL     1      46.423   3.196  17.220  0.00  0.00    +0.000 OA
ATOM     11  H   UNL     1      49.419   2.568  16.444  0.00  0.00    +0.000 HD
ATOM     12  H   UNL     1      48.307   1.660  17.409  0.00  0.00    +0.000 HD
ENDBRANCH   6   8
ENDBRANCH   1   2
BRANCH   1  13
ATOM     13  C   UNL     1      45.683   6.775  12.779  0.00  0.00    +0.000 C 
BRANCH  13  14
ATOM     14  C   UNL     1      45.075   6.820  11.375  0.00  0.00    +0.000 C 
BRANCH  14  19
ATOM     15  C   UNL     1      44.983   3.570   9.344  0.00  0.00    +0.000 A 
ATOM     16  C   UNL     1      44.167   2.782  10.171  0.00  0.00    +0.000 A 
ATOM     17  C   UNL     1      43.624   3.300  11.347  0.00  0.00    +0.000 A 
ATOM     18  C   UNL     1      43.894   4.615  11.723  0.00  0.00    +0.000 A 
ATOM     19  C   UNL     1      44.703   5.426  10.920  0.00  0.00    +0.000 A 
ATOM     20  C   UNL     1      45.233   4.898   9.728  0.00  0.00    +0.000 A 
BRANCH  15  22
ATOM     21  C   UNL     1      46.558   3.897   7.421  0.00  0.00    +0.000 C 
ATOM     22  C   UNL     1      45.529   2.963   8.061  0.00  0.00    +0.000 C 
ATOM     23  C   UNL     1      46.119   1.557   8.223  0.00  0.00    +0.000 C 
ENDBRANCH  15  22
ENDBRANCH  14  19
ENDBRANCH  13  14
ENDBRANCH   1  13
TORSDOF 6
ENDMDL
MODEL 6
REMARK VINA RESULT:    -6.218      3.216      6.783
REMARK INTER + INTRA:          -9.413
REMARK INTER:                  -8.660
REMARK INTRA:                  -0.753
REMARK UNBOUND:                -1.013
REMARK  Name = 
REMARK  8 active torsions:
REMARK  status: ('A' for Active; 'I' for Inactive)
REMARK    1  A    between atoms: C_1  and  C_2
REMARK    2  A    between atoms: C_2  and  C_3
REMARK    3  A    between atoms: C_2  and  C_4
REMARK    4  A    between atoms: C_8  and  C_9
REMARK    5  A    between atoms: C_9  and  C_10
REMARK    6  A    between atoms: C_10  and  O_11
REMARK    7  A    between atoms: O_11  and  C_12
REMARK    8  A    between atoms: C_16  and  C_17
REMARK                            x       y       z     vdW  Elec       q    Type
REMARK                         _______ _______ _______ _____ _____    ______ ____
ROOT
ATOM      1  O   UNL     1      44.902   5.315   9.856  0.00  0.00    +0.000 OA
ENDROOT
BRANCH   1   2
ATOM      2  C   UNL     1      45.127   4.074   9.308  0.00  0.00    +0.000 A 
ATOM      3  C   UNL     1      44.451   2.906   9.680  0.00  0.00    +0.000 A 
ATOM      4  C   UNL     1      44.757   1.685   9.080  0.00  0.00    +0.000 A 
ATOM      5  C   UNL     1      45.730   1.622   8.088  0.00  0.00    +0.000 A 
ATOM      6  C   UNL     1      46.385   2.788   7.674  0.00  0.00    +0.000 A 
ATOM      7  C   UNL     1      46.085   4.014   8.288  0.00  0.00    +0.000 A 
BRANCH   6   8
ATOM      8  C   UNL     1      47.390   2.657   6.588  0.00  0.00    +0.000 C 
ATOM      9  N   UNL     1      47.106   3.247   5.390  0.00  0.00    +0.000 N 
ATOM     10  O   UNL     1      48.415   1.999   6.733  0.00  0.00    +0.000 OA
ATOM     11  H   UNL     1      46.182   3.580   5.157  0.00  0.00    +0.000 HD
ATOM     12  H   UNL     1      47.730   3.019   4.627  0.00  0.00    +0.000 HD
ENDBRANCH   6   8
ENDBRANCH   1   2
BRANCH   1  13
ATOM     13  C   UNL     1      44.463   5.300  11.223  0.00  0.00    +0.000 C 
BRANCH  13  14
ATOM     14  C   UNL     1      45.657   5.391  12.176  0.00  0.00    +0.000 C 
BRANCH  14  19
ATOM     15  C   UNL     1      47.968   8.450  12.129  0.00  0.00    +0.000 A 
ATOM     16  C   UNL     1      47.022   9.479  12.264  0.00  0.00    +0.000 A 
ATOM     17  C   UNL     1      45.664   9.191  12.405  0.00  0.00    +0.000 A 
ATOM     18  C   UNL     1      45.225   7.869  12.405  0.00  0.00    +0.000 A 
ATOM     19  C   UNL     1      46.142   6.821  12.273  0.00  0.00    +0.000 A 
ATOM     20  C   UNL     1      47.511   7.122  12.147  0.00  0.00    +0.000 A 
BRANCH  15  22
ATOM     21  C   UNL     1      50.210   7.707  11.288  0.00  0.00    +0.000 C 
ATOM     22  C   UNL     1      49.438   8.819  12.002  0.00  0.00    +0.000 C 
ATOM     23  C   UNL     1      49.700  10.167  11.322  0.00  0.00    +0.000 C 
ENDBRANCH  15  22
ENDBRANCH  14  19
ENDBRANCH  13  14
ENDBRANCH   1  13
TORSDOF 6
ENDMDL
MODEL 7
REMARK VINA RESULT:    -6.168      2.087      3.874
REMARK INTER + INTRA:          -9.345
REMARK INTER:                  -8.319
REMARK INTRA:                  -1.026
REMARK UNBOUND:                -1.013
REMARK  Name = 
REMARK  8 active torsions:
REMARK  status: ('A' for Active; 'I' for Inactive)
REMARK    1  A    between atoms: C_1  and  C_2
REMARK    2  A    between atoms: C_2  and  C_3
REMARK    3  A    between atoms: C_2  and  C_4
REMARK    4  A    between atoms: C_8  and  C_9
REMARK    5  A    between atoms: C_9  and  C_10
REMARK    6  A    between atoms: C_10  and  O_11
REMARK    7  A    between atoms: O_11  and  C_12
REMARK    8  A    between atoms: C_16  and  C_17
REMARK                            x       y       z     vdW  Elec       q    Type
REMARK                         _______ _______ _______ _____ _____    ______ ____
ROOT
ATOM      1  O   UNL     1      48.280   5.800  13.048  0.00  0.00    +0.000 OA
ENDROOT
BRANCH   1   2
ATOM      2  C   UNL     1      48.361   7.095  12.591  0.00  0.00    +0.000 A 
ATOM      3  C   UNL     1      49.544   7.723  12.186  0.00  0.00    +0.000 A 
ATOM      4  C   UNL     1      49.533   9.048  11.751  0.00  0.00    +0.000 A 
ATOM      5  C   UNL     1      48.335   9.754  11.700  0.00  0.00    +0.000 A 
ATOM      6  C   UNL     1      47.137   9.127  12.061  0.00  0.00    +0.000 A 
ATOM      7  C   UNL     1      47.151   7.797  12.510  0.00  0.00    +0.000 A 
BRANCH   6   8
ATOM      8  C   UNL     1      45.889   9.926  11.953  0.00  0.00    +0.000 C 
ATOM      9  N   UNL     1      44.865   9.615  12.801  0.00  0.00    +0.000 N 
ATOM     10  O   UNL     1      45.753  10.798  11.101  0.00  0.00    +0.000 OA
ATOM     11  H   UNL     1      44.848   8.760  13.338  0.00  0.00    +0.000 HD
ATOM     12  H   UNL     1      43.981  10.068  12.609  0.00  0.00    +0.000 HD
ENDBRANCH   6   8
ENDBRANCH   1   2
BRANCH   1  13
ATOM     13  C   UNL     1      47.277   5.576  14.049  0.00  0.00    +0.000 C 
BRANCH  13  14
ATOM     14  C   UNL     1      46.514   4.279  13.771  0.00  0.00    +0.000 C 
BRANCH  14  19
ATOM     15  C   UNL     1      44.371   4.079  10.598  0.00  0.00    +0.000 A 
ATOM     16  C   UNL     1      43.258   4.834  11.002  0.00  0.00    +0.000 A 
ATOM     17  C   UNL     1      43.213   5.429  12.263  0.00  0.00    +0.000 A 
ATOM     18  C   UNL     1      44.278   5.274  13.149  0.00  0.00    +0.000 A 
ATOM     19  C   UNL     1      45.402   4.528  12.776  0.00  0.00    +0.000 A 
ATOM     20  C   UNL     1      45.443   3.945  11.496  0.00  0.00    +0.000 A 
BRANCH  15  22
ATOM     21  C   UNL     1      45.339   4.238   8.291  0.00  0.00    +0.000 C 
ATOM     22  C   UNL     1      44.377   3.473   9.203  0.00  0.00    +0.000 C 
ATOM     23  C   UNL     1      44.689   1.973   9.163  0.00  0.00    +0.000 C 
ENDBRANCH  15  22
ENDBRANCH  14  19
ENDBRANCH  13  14
ENDBRANCH   1  13
TORSDOF 6
ENDMDL
MODEL 8
REMARK VINA RESULT:    -6.156      4.996      8.139
REMARK INTER + INTRA:          -9.329
REMARK INTER:                  -8.763
REMARK INTRA:                  -0.566
REMARK UNBOUND:                -1.013
REMARK  Name = 
REMARK  8 active torsions:
REMARK  status: ('A' for Active; 'I' for Inactive)
REMARK    1  A    between atoms: C_1  and  C_2
REMARK    2  A    between atoms: C_2  and  C_3
REMARK    3  A    between atoms: C_2  and  C_4
REMARK    4  A    between atoms: C_8  and  C_9
REMARK    5  A    between atoms: C_9  and  C_10
REMARK    6  A    between atoms: C_10  and  O_11
REMARK    7  A    between atoms: O_11  and  C_12
REMARK    8  A    between atoms: C_16  and  C_17
REMARK                            x       y       z     vdW  Elec       q    Type
REMARK                         _______ _______ _______ _____ _____    ______ ____
ROOT
ATOM      1  O   UNL     1      47.413   3.270  14.586  0.00  0.00    +0.000 OA
ENDROOT
BRANCH   1   2
ATOM      2  C   UNL     1      46.802   3.991  13.587  0.00  0.00    +0.000 A 
ATOM      3  C   UNL     1      47.074   5.332  13.294  0.00  0.00    +0.000 A 
ATOM      4  C   UNL     1      46.392   5.989  12.270  0.00  0.00    +0.000 A 
ATOM      5  C   UNL     1      45.442   5.306  11.516  0.00  0.00    +0.000 A 
ATOM      6  C   UNL     1      45.190   3.953  11.769  0.00  0.00    +0.000 A 
ATOM      7  C   UNL     1      45.868   3.297  12.808  0.00  0.00    +0.000 A 
BRANCH   6   8
ATOM      8  C   UNL     1      44.188   3.274  10.907  0.00  0.00    +0.000 C 
ATOM      9  N   UNL     1      44.644   2.322  10.040  0.00  0.00    +0.000 N 
ATOM     10  O   UNL     1      43.003   3.587  10.925  0.00  0.00    +0.000 OA
ATOM     11  H   UNL     1      45.623   2.211   9.823  0.00  0.00    +0.000 HD
ATOM     12  H   UNL     1      43.971   1.983   9.364  0.00  0.00    +0.000 HD
ENDBRANCH   6   8
ENDBRANCH   1   2
BRANCH   1  13
ATOM     13  C   UNL     1      47.340   3.866  15.890  0.00  0.00    +0.000 C 
BRANCH  13  14
ATOM     14  C   UNL     1      48.006   2.966  16.934  0.00  0.00    +0.000 C 
BRANCH  14  19
ATOM     15  C   UNL     1      51.771   3.099  17.645  0.00  0.00    +0.000 A 
ATOM     16  C   UNL     1      51.957   4.487  17.743  0.00  0.00    +0.000 A 
ATOM     17  C   UNL     1      50.881   5.366  17.619  0.00  0.00    +0.000 A 
ATOM     18  C   UNL     1      49.598   4.874  17.386  0.00  0.00    +0.000 A 
ATOM     19  C   UNL     1      49.379   3.496  17.283  0.00  0.00    +0.000 A 
ATOM     20  C   UNL     1      50.469   2.618  17.425  0.00  0.00    +0.000 A 
BRANCH  15  22
ATOM     21  C   UNL     1      53.743   2.538  19.088  0.00  0.00    +0.000 C 
ATOM     22  C   UNL     1      52.975   2.185  17.812  0.00  0.00    +0.000 C 
ATOM     23  C   UNL     1      52.646   0.689  17.788  0.00  0.00    +0.000 C 
ENDBRANCH  15  22
ENDBRANCH  14  19
ENDBRANCH  13  14
ENDBRANCH   1  13
TORSDOF 6
ENDMDL
MODEL 9
REMARK VINA RESULT:    -6.076      4.403      8.047
REMARK INTER + INTRA:          -9.221
REMARK INTER:                  -8.662
REMARK INTRA:                  -0.558
REMARK UNBOUND:                -1.013
REMARK  Name = 
REMARK  8 active torsions:
REMARK  status: ('A' for Active; 'I' for Inactive)
REMARK    1  A    between atoms: C_1  and  C_2
REMARK    2  A    between atoms: C_2  and  C_3
REMARK    3  A    between atoms: C_2  and  C_4
REMARK    4  A    between atoms: C_8  and  C_9
REMARK    5  A    between atoms: C_9  and  C_10
REMARK    6  A    between atoms: C_10  and  O_11
REMARK    7  A    between atoms: O_11  and  C_12
REMARK    8  A    between atoms: C_16  and  C_17
REMARK                            x       y       z     vdW  Elec       q    Type
REMARK                         _______ _______ _______ _____ _____    ______ ____
ROOT
ATOM      1  O   UNL     1      46.774   3.517  14.584  0.00  0.00    +0.000 OA
ENDROOT
BRANCH   1   2
ATOM      2  C   UNL     1      46.443   4.263  13.477  0.00  0.00    +0.000 A 
ATOM      3  C   UNL     1      47.020   5.493  13.145  0.00  0.00    +0.000 A 
ATOM      4  C   UNL     1      46.609   6.188  12.008  0.00  0.00    +0.000 A 
ATOM      5  C   UNL     1      45.628   5.651  11.180  0.00  0.00    +0.000 A 
ATOM      6  C   UNL     1      45.072   4.401  11.475  0.00  0.00    +0.000 A 
ATOM      7  C   UNL     1      45.477   3.709  12.626  0.00  0.00    +0.000 A 
BRANCH   6   8
ATOM      8  C   UNL     1      44.052   3.869  10.533  0.00  0.00    +0.000 C 
ATOM      9  N   UNL     1      43.824   4.575   9.387  0.00  0.00    +0.000 N 
ATOM     10  O   UNL     1      43.396   2.866  10.792  0.00  0.00    +0.000 OA
ATOM     11  H   UNL     1      44.158   5.518   9.256  0.00  0.00    +0.000 HD
ATOM     12  H   UNL     1      43.026   4.278   8.839  0.00  0.00    +0.000 HD
ENDBRANCH   6   8
ENDBRANCH   1   2
BRANCH   1  13
ATOM     13  C   UNL     1      47.148   4.285  15.737  0.00  0.00    +0.000 C 
BRANCH  13  14
ATOM     14  C   UNL     1      47.454   3.367  16.923  0.00  0.00    +0.000 C 
BRANCH  14  19
ATOM     15  C   UNL     1      51.105   4.197  17.744  0.00  0.00    +0.000 A 
ATOM     16  C   UNL     1      51.684   2.924  17.620  0.00  0.00    +0.000 A 
ATOM     17  C   UNL     1      50.918   1.821  17.243  0.00  0.00    +0.000 A 
ATOM     18  C   UNL     1      49.556   1.968  16.989  0.00  0.00    +0.000 A 
ATOM     19  C   UNL     1      48.949   3.224  17.103  0.00  0.00    +0.000 A 
ATOM     20  C   UNL     1      49.734   4.332  17.470  0.00  0.00    +0.000 A 
BRANCH  15  22
ATOM     21  C   UNL     1      52.641   5.988  16.895  0.00  0.00    +0.000 C 
ATOM     22  C   UNL     1      51.992   5.370  18.135  0.00  0.00    +0.000 C 
ATOM     23  C   UNL     1      51.287   6.453  18.960  0.00  0.00    +0.000 C 
ENDBRANCH  15  22
ENDBRANCH  14  19
ENDBRANCH  13  14
ENDBRANCH   1  13
TORSDOF 6
ENDMDL
