MODEL 1
REMARK VINA RESULT:    -7.353      0.000      0.000
REMARK INTER + INTRA:          -9.860
REMARK INTER:                  -9.072
REMARK INTRA:                  -0.788
REMARK UNBOUND:                -0.788
REMARK  Name = 
REMARK  4 active torsions:
REMARK  status: ('A' for Active; 'I' for Inactive)
REMARK    1  A    between atoms: C_2  and  C_4
REMARK    2  A    between atoms: C_8  and  C_9
REMARK    3  A    between atoms: C_9  and  N_10
REMARK    4  A    between atoms: C_15  and  C_16
REMARK                            x       y       z     vdW  Elec       q    Type
REMARK                         _______ _______ _______ _____ _____    ______ ____
ROOT
ATOM      1  N   UNL     1      46.761   3.903  14.786  0.00  0.00    +0.000 N 
ATOM      2  C   UNL     1      47.787   3.711  15.694  0.00  0.00    +0.000 A 
ATOM      3  N   UNL     1      48.281   2.470  15.745  0.00  0.00    +0.000 NA
ATOM      4  C   UNL     1      49.238   2.246  16.660  0.00  0.00    +0.000 A 
ATOM      5  C   UNL     1      49.720   3.210  17.510  0.00  0.00    +0.000 A 
ATOM      6  C   UNL     1      49.180   4.474  17.377  0.00  0.00    +0.000 A 
ATOM      7  N   UNL     1      48.198   4.718  16.478  0.00  0.00    +0.000 NA
ATOM      8  H   UNL     1      46.822   3.142  14.122  0.00  0.00    +0.000 HD
ENDROOT
BRANCH   6   9
ATOM      9  C   UNL     1      49.596   5.604  18.314  0.00  0.00    +0.000 C 
ATOM     10  C   UNL     1      49.723   5.187  19.795  0.00  0.00    +0.000 C 
ATOM     11  C   UNL     1      48.361   5.045  20.476  0.00  0.00    +0.000 C 
ATOM     12  C   UNL     1      47.465   6.260  20.242  0.00  0.00    +0.000 C 
ATOM     13  N   UNL     1      47.359   6.623  18.830  0.00  0.00    +0.000 NA
ATOM     14  C   UNL     1      48.681   6.846  18.236  0.00  0.00    +0.000 C 
ATOM     15  H   UNL     1      46.798   7.470  18.743  0.00  0.00    +0.000 HD
ENDBRANCH   6   9
BRANCH   1  16
ATOM     16  C   UNL     1      46.705   5.223  14.196  0.00  0.00    +0.000 C 
BRANCH  16  21
ATOM     17  C   UNL     1      44.829   3.894  11.139  0.00  0.00    +0.000 A 
ATOM     18  C   UNL     1      45.065   4.912  10.206  0.00  0.00    +0.000 A 
ATOM     19  C   UNL     1      45.863   6.004  10.554  0.00  0.00    +0.000 A 
ATOM     20  C   UNL     1      46.416   6.088  11.833  0.00  0.00    +0.000 A 
ATOM     21  C   UNL     1      46.170   5.086  12.786  0.00  0.00    +0.000 A 
ATOM     22  C   UNL     1      45.379   3.986  12.424  0.00  0.00    +0.000 A 
BRANCH  17  24
ATOM     23  N   UNL     1      44.315   1.940   9.773  0.00  0.00    +0.000 N 
ATOM     24  C   UNL     1      43.960   2.728  10.831  0.00  0.00    +0.000 C 
ATOM     25  O   UNL     1      42.981   2.457  11.516  0.00  0.00    +0.000 OA
ATOM     26  H   UNL     1      43.768   1.098   9.643  0.00  0.00    +0.000 HD
ATOM     27  H   UNL     1      45.235   1.975   9.359  0.00  0.00    +0.000 HD
ENDBRANCH  17  24
ENDBRANCH  16  21
ENDBRANCH   1  16
TORSDOF 4
ENDMDL
MODEL 2
REMARK VINA RESULT:    -7.180      2.116      3.274
REMARK INTER + INTRA:          -9.647
REMARK INTER:                  -8.933
REMARK INTRA:                  -0.714
REMARK UNBOUND:                -0.788
REMARK  Name = 
REMARK  4 active torsions:
REMARK  status: ('A' for Active; 'I' for Inactive)
REMARK    1  A    between atoms: C_2  and  C_4
REMARK    2  A    between atoms: C_8  and  C_9
REMARK    3  A    between atoms: C_9  and  N_10
REMARK    4  A    between atoms: C_15  and  C_16
REMARK                            x       y       z     vdW  Elec       q    Type
REMARK                         _______ _______ _______ _____ _____    ______ ____
ROOT
ATOM      1  N   UNL     1      47.218   5.403  13.545  0.00  0.00    +0.000 N 
ATOM      2  C   UNL     1      48.038   5.701  14.618  0.00  0.00    +0.000 A 
ATOM      3  N   UNL     1      48.771   6.812  14.487  0.00  0.00    +0.000 NA
ATOM      4  C   UNL     1      49.618   7.089  15.493  0.00  0.00    +0.000 A 
ATOM      5  C   UNL     1      49.748   6.310  16.615  0.00  0.00    +0.000 A 
ATOM      6  C   UNL     1      48.936   5.196  16.690  0.00  0.00    +0.000 A 
ATOM      7  N   UNL     1      48.093   4.883  15.679  0.00  0.00    +0.000 NA
ATOM      8  H   UNL     1      47.105   6.264  13.025  0.00  0.00    +0.000 HD
ENDROOT
BRANCH   6   9
ATOM      9  C   UNL     1      49.047   4.226  17.862  0.00  0.00    +0.000 C 
ATOM     10  C   UNL     1      50.473   4.080  18.434  0.00  0.00    +0.000 C 
ATOM     11  C   UNL     1      51.365   3.206  17.552  0.00  0.00    +0.000 C 
ATOM     12  C   UNL     1      50.700   1.881  17.185  0.00  0.00    +0.000 C 
ATOM     13  N   UNL     1      49.355   2.055  16.638  0.00  0.00    +0.000 NA
ATOM     14  C   UNL     1      48.500   2.814  17.556  0.00  0.00    +0.000 C 
ATOM     15  H   UNL     1      48.943   1.138  16.466  0.00  0.00    +0.000 HD
ENDBRANCH   6   9
BRANCH   1  16
ATOM     16  C   UNL     1      45.982   4.732  13.886  0.00  0.00    +0.000 C 
BRANCH  16  21
ATOM     17  C   UNL     1      44.523   4.762  10.350  0.00  0.00    +0.000 A 
ATOM     18  C   UNL     1      43.186   5.089  10.606  0.00  0.00    +0.000 A 
ATOM     19  C   UNL     1      42.768   5.339  11.915  0.00  0.00    +0.000 A 
ATOM     20  C   UNL     1      43.679   5.253  12.969  0.00  0.00    +0.000 A 
ATOM     21  C   UNL     1      45.019   4.903  12.731  0.00  0.00    +0.000 A 
ATOM     22  C   UNL     1      45.433   4.667  11.412  0.00  0.00    +0.000 A 
BRANCH  17  24
ATOM     23  N   UNL     1      44.328   3.506   8.268  0.00  0.00    +0.000 N 
ATOM     24  C   UNL     1      45.011   4.452   8.981  0.00  0.00    +0.000 C 
ATOM     25  O   UNL     1      45.966   5.040   8.489  0.00  0.00    +0.000 OA
ATOM     26  H   UNL     1      44.614   3.383   7.305  0.00  0.00    +0.000 HD
ATOM     27  H   UNL     1      43.403   3.199   8.529  0.00  0.00    +0.000 HD
ENDBRANCH  17  24
ENDBRANCH  16  21
ENDBRANCH   1  16
TORSDOF 4
ENDMDL
MODEL 3
REMARK VINA RESULT:    -7.059      1.741      2.093
REMARK INTER + INTRA:          -9.497
REMARK INTER:                  -8.721
REMARK INTRA:                  -0.776
REMARK UNBOUND:                -0.788
REMARK  Name = 
REMARK  4 active torsions:
REMARK  status: ('A' for Active; 'I' for Inactive)
REMARK    1  A    between atoms: C_2  and  C_4
REMARK    2  A    between atoms: C_8  and  C_9
REMARK    3  A    between atoms: C_9  and  N_10
REMARK    4  A    between atoms: C_15  and  C_16
REMARK                            x       y       z     vdW  Elec       q    Type
REMARK                         _______ _______ _______ _____ _____    ______ ____
ROOT
ATOM      1  N   UNL     1      46.290   4.427  14.731  0.00  0.00    +0.000 N 
ATOM      2  C   UNL     1      47.337   4.325  15.628  0.00  0.00    +0.000 A 
ATOM      3  N   UNL     1      47.507   3.116  16.173  0.00  0.00    +0.000 NA
ATOM      4  C   UNL     1      48.482   3.008  17.091  0.00  0.00    +0.000 A 
ATOM      5  C   UNL     1      49.289   4.050  17.471  0.00  0.00    +0.000 A 
ATOM      6  C   UNL     1      49.071   5.260  16.841  0.00  0.00    +0.000 A 
ATOM      7  N   UNL     1      48.080   5.399  15.931  0.00  0.00    +0.000 NA
ATOM      8  H   UNL     1      46.076   3.484  14.433  0.00  0.00    +0.000 HD
ENDROOT
BRANCH   6   9
ATOM      9  C   UNL     1      49.869   6.500  17.235  0.00  0.00    +0.000 C 
ATOM     10  C   UNL     1      49.981   6.727  18.757  0.00  0.00    +0.000 C 
ATOM     11  C   UNL     1      48.693   7.293  19.356  0.00  0.00    +0.000 C 
ATOM     12  C   UNL     1      48.174   8.503  18.580  0.00  0.00    +0.000 C 
ATOM     13  N   UNL     1      48.071   8.252  17.142  0.00  0.00    +0.000 NA
ATOM     14  C   UNL     1      49.351   7.803  16.586  0.00  0.00    +0.000 C 
ATOM     15  H   UNL     1      47.776   9.108  16.674  0.00  0.00    +0.000 HD
ENDBRANCH   6   9
BRANCH   1  16
ATOM     16  C   UNL     1      46.495   5.374  13.656  0.00  0.00    +0.000 C 
BRANCH  16  21
ATOM     17  C   UNL     1      44.656   4.695  10.371  0.00  0.00    +0.000 A 
ATOM     18  C   UNL     1      43.322   4.694  10.797  0.00  0.00    +0.000 A 
ATOM     19  C   UNL     1      43.017   4.954  12.135  0.00  0.00    +0.000 A 
ATOM     20  C   UNL     1      44.041   5.203  13.050  0.00  0.00    +0.000 A 
ATOM     21  C   UNL     1      45.385   5.184  12.643  0.00  0.00    +0.000 A 
ATOM     22  C   UNL     1      45.682   4.937  11.294  0.00  0.00    +0.000 A 
BRANCH  17  24
ATOM     23  N   UNL     1      44.337   3.406   8.325  0.00  0.00    +0.000 N 
ATOM     24  C   UNL     1      45.036   4.390   8.967  0.00  0.00    +0.000 C 
ATOM     25  O   UNL     1      45.915   5.016   8.387  0.00  0.00    +0.000 OA
ATOM     26  H   UNL     1      44.544   3.283   7.342  0.00  0.00    +0.000 HD
ATOM     27  H   UNL     1      43.454   3.059   8.670  0.00  0.00    +0.000 HD
ENDBRANCH  17  24
ENDBRANCH  16  21
ENDBRANCH   1  16
TORSDOF 4
ENDMDL
MODEL 4
REMARK VINA RESULT:    -6.916      3.311      7.156
REMARK INTER + INTRA:          -9.321
REMARK INTER:                  -8.384
REMARK INTRA:                  -0.937
REMARK UNBOUND:                -0.788
REMARK  Name = 
REMARK  4 active torsions:
REMARK  status: ('A' for Active; 'I' for Inactive)
REMARK    1  A    between atoms: C_2  and  C_4
REMARK    2  A    between atoms: C_8  and  C_9
REMARK    3  A    between atoms: C_9  and  N_10
REMARK    4  A    between atoms: C_15  and  C_16
REMARK                            x       y       z     vdW  Elec       q    Type
REMARK                         _______ _______ _______ _____ _____    ______ ____
ROOT
ATOM      1  N   UNL     1      47.500   3.089  15.464  0.00  0.00    +0.000 N 
ATOM      2  C   UNL     1      47.078   3.951  14.469  0.00  0.00    +0.000 A 
ATOM      3  N   UNL     1      46.348   3.391  13.498  0.00  0.00    +0.000 NA
ATOM      4  C   UNL     1      45.976   4.198  12.491  0.00  0.00    +0.000 A 
ATOM      5  C   UNL     1      46.296   5.531  12.425  0.00  0.00    +0.000 A 
ATOM      6  C   UNL     1      47.027   6.042  13.479  0.00  0.00    +0.000 A 
ATOM      7  N   UNL     1      47.433   5.244  14.493  0.00  0.00    +0.000 NA
ATOM      8  H   UNL     1      46.894   2.280  15.417  0.00  0.00    +0.000 HD
ENDROOT
BRANCH   6   9
ATOM      9  C   UNL     1      47.492   7.495  13.475  0.00  0.00    +0.000 C 
ATOM     10  C   UNL     1      47.855   8.042  12.078  0.00  0.00    +0.000 C 
ATOM     11  C   UNL     1      49.219   7.544  11.597  0.00  0.00    +0.000 C 
ATOM     12  C   UNL     1      50.311   7.735  12.647  0.00  0.00    +0.000 C 
ATOM     13  N   UNL     1      49.939   7.198  13.956  0.00  0.00    +0.000 NA
ATOM     14  C   UNL     1      48.676   7.772  14.428  0.00  0.00    +0.000 C 
ATOM     15  H   UNL     1      50.680   7.404  14.625  0.00  0.00    +0.000 HD
ENDBRANCH   6   9
BRANCH   1  16
ATOM     16  C   UNL     1      47.621   3.683  16.778  0.00  0.00    +0.000 C 
BRANCH  16  21
ATOM     17  C   UNL     1      51.201   2.560  17.529  0.00  0.00    +0.000 A 
ATOM     18  C   UNL     1      51.847   3.791  17.695  0.00  0.00    +0.000 A 
ATOM     19  C   UNL     1      51.118   4.979  17.605  0.00  0.00    +0.000 A 
ATOM     20  C   UNL     1      49.748   4.940  17.339  0.00  0.00    +0.000 A 
ATOM     21  C   UNL     1      49.090   3.714  17.147  0.00  0.00    +0.000 A 
ATOM     22  C   UNL     1      49.827   2.526  17.253  0.00  0.00    +0.000 A 
BRANCH  17  24
ATOM     23  N   UNL     1      51.314   0.213  18.184  0.00  0.00    +0.000 N 
ATOM     24  C   UNL     1      51.936   1.269  17.580  0.00  0.00    +0.000 C 
ATOM     25  O   UNL     1      53.043   1.139  17.072  0.00  0.00    +0.000 OA
ATOM     26  H   UNL     1      51.788  -0.678  18.119  0.00  0.00    +0.000 HD
ATOM     27  H   UNL     1      50.322   0.208  18.373  0.00  0.00    +0.000 HD
ENDBRANCH  17  24
ENDBRANCH  16  21
ENDBRANCH   1  16
TORSDOF 4
ENDMDL
MODEL 5
REMARK VINA RESULT:    -6.842      1.933      3.106
REMARK INTER + INTRA:          -9.230
REMARK INTER:                  -8.270
REMARK INTRA:                  -0.961
REMARK UNBOUND:                -0.788
REMARK  Name = 
REMARK  4 active torsions:
REMARK  status: ('A' for Active; 'I' for Inactive)
REMARK    1  A    between atoms: C_2  and  C_4
REMARK    2  A    between atoms: C_8  and  C_9
REMARK    3  A    between atoms: C_9  and  N_10
REMARK    4  A    between atoms: C_15  and  C_16
REMARK                            x       y       z     vdW  Elec       q    Type
REMARK                         _______ _______ _______ _____ _____    ______ ____
ROOT
ATOM      1  N   UNL     1      48.341   7.266  13.321  0.00  0.00    +0.000 N 
ATOM      2  C   UNL     1      49.033   6.964  14.479  0.00  0.00    +0.000 A 
ATOM      3  N   UNL     1      50.249   7.512  14.579  0.00  0.00    +0.000 NA
ATOM      4  C   UNL     1      50.963   7.184  15.669  0.00  0.00    +0.000 A 
ATOM      5  C   UNL     1      50.506   6.347  16.655  0.00  0.00    +0.000 A 
ATOM      6  C   UNL     1      49.230   5.844  16.495  0.00  0.00    +0.000 A 
ATOM      7  N   UNL     1      48.501   6.141  15.394  0.00  0.00    +0.000 NA
ATOM      8  H   UNL     1      48.770   8.101  12.942  0.00  0.00    +0.000 HD
ENDROOT
BRANCH   6   9
ATOM      9  C   UNL     1      48.650   4.852  17.499  0.00  0.00    +0.000 C 
ATOM     10  C   UNL     1      49.676   3.851  18.070  0.00  0.00    +0.000 C 
ATOM     11  C   UNL     1      50.014   2.738  17.077  0.00  0.00    +0.000 C 
ATOM     12  C   UNL     1      48.765   2.086  16.488  0.00  0.00    +0.000 C 
ATOM     13  N   UNL     1      47.817   3.060  15.948  0.00  0.00    +0.000 NA
ATOM     14  C   UNL     1      47.442   4.055  16.957  0.00  0.00    +0.000 C 
ATOM     15  H   UNL     1      46.984   2.572  15.622  0.00  0.00    +0.000 HD
ENDBRANCH   6   9
BRANCH   1  16
ATOM     16  C   UNL     1      46.903   7.334  13.468  0.00  0.00    +0.000 C 
BRANCH  16  21
ATOM     17  C   UNL     1      44.812   4.505  11.964  0.00  0.00    +0.000 A 
ATOM     18  C   UNL     1      45.025   4.704  10.594  0.00  0.00    +0.000 A 
ATOM     19  C   UNL     1      45.875   5.723  10.161  0.00  0.00    +0.000 A 
ATOM     20  C   UNL     1      46.504   6.552  11.092  0.00  0.00    +0.000 A 
ATOM     21  C   UNL     1      46.282   6.381  12.468  0.00  0.00    +0.000 A 
ATOM     22  C   UNL     1      45.438   5.345  12.894  0.00  0.00    +0.000 A 
BRANCH  17  24
ATOM     23  N   UNL     1      43.588   2.421  11.637  0.00  0.00    +0.000 N 
ATOM     24  C   UNL     1      43.890   3.458  12.475  0.00  0.00    +0.000 C 
ATOM     25  O   UNL     1      43.441   3.496  13.614  0.00  0.00    +0.000 OA
ATOM     26  H   UNL     1      43.041   1.671  12.039  0.00  0.00    +0.000 HD
ATOM     27  H   UNL     1      44.131   2.220  10.811  0.00  0.00    +0.000 HD
ENDBRANCH  17  24
ENDBRANCH  16  21
ENDBRANCH   1  16
TORSDOF 4
ENDMDL
MODEL 6
REMARK VINA RESULT:    -6.776      3.265      8.063
REMARK INTER + INTRA:          -9.149
REMARK INTER:                  -8.779
REMARK INTRA:                  -0.370
REMARK UNBOUND:                -0.788
REMARK  Name = 
REMARK  4 active torsions:
REMARK  status: ('A' for Active; 'I' for Inactive)
REMARK    1  A    between atoms: C_2  and  C_4
REMARK    2  A    between atoms: C_8  and  C_9
REMARK    3  A    between atoms: C_9  and  N_10
REMARK    4  A    between atoms: C_15  and  C_16
REMARK                            x       y       z     vdW  Elec       q    Type
REMARK                         _______ _______ _______ _____ _____    ______ ____
ROOT
ATOM      1  N   UNL     1      47.638   5.183  16.058  0.00  0.00    +0.000 N 
ATOM      2  C   UNL     1      47.243   5.263  14.735  0.00  0.00    +0.000 A 
ATOM      3  N   UNL     1      47.906   6.156  13.993  0.00  0.00    +0.000 NA
ATOM      4  C   UNL     1      47.499   6.292  12.720  0.00  0.00    +0.000 A 
ATOM      5  C   UNL     1      46.474   5.569  12.166  0.00  0.00    +0.000 A 
ATOM      6  C   UNL     1      45.857   4.645  12.988  0.00  0.00    +0.000 A 
ATOM      7  N   UNL     1      46.233   4.507  14.280  0.00  0.00    +0.000 NA
ATOM      8  H   UNL     1      48.564   5.587  16.104  0.00  0.00    +0.000 HD
ENDROOT
BRANCH   6   9
ATOM      9  C   UNL     1      44.663   3.835  12.493  0.00  0.00    +0.000 C 
ATOM     10  C   UNL     1      44.257   4.128  11.034  0.00  0.00    +0.000 C 
ATOM     11  C   UNL     1      43.493   5.446  10.898  0.00  0.00    +0.000 C 
ATOM     12  C   UNL     1      42.347   5.559  11.901  0.00  0.00    +0.000 C 
ATOM     13  N   UNL     1      42.767   5.284  13.275  0.00  0.00    +0.000 NA
ATOM     14  C   UNL     1      43.408   3.971  13.384  0.00  0.00    +0.000 C 
ATOM     15  H   UNL     1      41.952   5.320  13.887  0.00  0.00    +0.000 HD
ENDBRANCH   6   9
BRANCH   1  16
ATOM     16  C   UNL     1      47.516   3.870  16.655  0.00  0.00    +0.000 C 
BRANCH  16  21
ATOM     17  C   UNL     1      51.049   3.657  18.107  0.00  0.00    +0.000 A 
ATOM     18  C   UNL     1      51.438   2.375  17.699  0.00  0.00    +0.000 A 
ATOM     19  C   UNL     1      50.575   1.599  16.921  0.00  0.00    +0.000 A 
ATOM     20  C   UNL     1      49.322   2.096  16.560  0.00  0.00    +0.000 A 
ATOM     21  C   UNL     1      48.908   3.370  16.981  0.00  0.00    +0.000 A 
ATOM     22  C   UNL     1      49.786   4.148  17.750  0.00  0.00    +0.000 A 
BRANCH  17  24
ATOM     23  N   UNL     1      52.598   3.893  19.976  0.00  0.00    +0.000 N 
ATOM     24  C   UNL     1      51.914   4.508  18.964  0.00  0.00    +0.000 C 
ATOM     25  O   UNL     1      52.044   5.708  18.758  0.00  0.00    +0.000 OA
ATOM     26  H   UNL     1      53.256   4.471  20.482  0.00  0.00    +0.000 HD
ATOM     27  H   UNL     1      52.722   2.893  20.012  0.00  0.00    +0.000 HD
ENDBRANCH  17  24
ENDBRANCH  16  21
ENDBRANCH   1  16
TORSDOF 4
ENDMDL
MODEL 7
REMARK VINA RESULT:    -6.663      2.856      7.556
REMARK INTER + INTRA:          -9.009
REMARK INTER:                  -8.089
REMARK INTRA:                  -0.919
REMARK UNBOUND:                -0.788
REMARK  Name = 
REMARK  4 active torsions:
REMARK  status: ('A' for Active; 'I' for Inactive)
REMARK    1  A    between atoms: C_2  and  C_4
REMARK    2  A    between atoms: C_8  and  C_9
REMARK    3  A    between atoms: C_9  and  N_10
REMARK    4  A    between atoms: C_15  and  C_16
REMARK                            x       y       z     vdW  Elec       q    Type
REMARK                         _______ _______ _______ _____ _____    ______ ____
ROOT
ATOM      1  N   UNL     1      47.522   8.010  14.372  0.00  0.00    +0.000 N 
ATOM      2  C   UNL     1      46.624   7.938  13.322  0.00  0.00    +0.000 A 
ATOM      3  N   UNL     1      46.077   9.102  12.956  0.00  0.00    +0.000 NA
ATOM      4  C   UNL     1      45.159   9.047  11.977  0.00  0.00    +0.000 A 
ATOM      5  C   UNL     1      44.780   7.886  11.352  0.00  0.00    +0.000 A 
ATOM      6  C   UNL     1      45.412   6.729  11.766  0.00  0.00    +0.000 A 
ATOM      7  N   UNL     1      46.322   6.756  12.766  0.00  0.00    +0.000 NA
ATOM      8  H   UNL     1      47.819   8.976  14.427  0.00  0.00    +0.000 HD
ENDROOT
BRANCH   6   9
ATOM      9  C   UNL     1      45.019   5.375  11.183  0.00  0.00    +0.000 C 
ATOM     10  C   UNL     1      43.510   5.218  10.899  0.00  0.00    +0.000 C 
ATOM     11  C   UNL     1      42.702   4.970  12.173  0.00  0.00    +0.000 C 
ATOM     12  C   UNL     1      43.296   3.853  13.029  0.00  0.00    +0.000 C 
ATOM     13  N   UNL     1      44.724   4.036  13.288  0.00  0.00    +0.000 NA
ATOM     14  C   UNL     1      45.479   4.173  12.039  0.00  0.00    +0.000 C 
ATOM     15  H   UNL     1      45.074   3.235  13.813  0.00  0.00    +0.000 HD
ENDBRANCH   6   9
BRANCH   1  16
ATOM     16  C   UNL     1      48.598   7.043  14.324  0.00  0.00    +0.000 C 
BRANCH  16  21
ATOM     17  C   UNL     1      48.428   4.881  17.476  0.00  0.00    +0.000 A 
ATOM     18  C   UNL     1      49.379   5.507  18.291  0.00  0.00    +0.000 A 
ATOM     19  C   UNL     1      50.042   6.650  17.838  0.00  0.00    +0.000 A 
ATOM     20  C   UNL     1      49.766   7.161  16.569  0.00  0.00    +0.000 A 
ATOM     21  C   UNL     1      48.833   6.531  15.730  0.00  0.00    +0.000 A 
ATOM     22  C   UNL     1      48.161   5.392  16.199  0.00  0.00    +0.000 A 
BRANCH  17  24
ATOM     23  N   UNL     1      48.216   2.972  18.979  0.00  0.00    +0.000 N 
ATOM     24  C   UNL     1      47.721   3.643  17.896  0.00  0.00    +0.000 C 
ATOM     25  O   UNL     1      46.712   3.252  17.323  0.00  0.00    +0.000 OA
ATOM     26  H   UNL     1      47.664   2.191  19.308  0.00  0.00    +0.000 HD
ATOM     27  H   UNL     1      48.869   3.394  19.623  0.00  0.00    +0.000 HD
ENDBRANCH  17  24
ENDBRANCH  16  21
ENDBRANCH   1  16
TORSDOF 4
ENDMDL
MODEL 8
REMARK VINA RESULT:    -6.634      2.243      2.644
REMARK INTER + INTRA:          -8.973
REMARK INTER:                  -7.982
REMARK INTRA:                  -0.991
REMARK UNBOUND:                -0.788
REMARK  Name = 
REMARK  4 active torsions:
REMARK  status: ('A' for Active; 'I' for Inactive)
REMARK    1  A    between atoms: C_2  and  C_4
REMARK    2  A    between atoms: C_8  and  C_9
REMARK    3  A    between atoms: C_9  and  N_10
REMARK    4  A    between atoms: C_15  and  C_16
REMARK                            x       y       z     vdW  Elec       q    Type
REMARK                         _______ _______ _______ _____ _____    ______ ____
ROOT
ATOM      1  N   UNL     1      46.492   3.891  14.939  0.00  0.00    +0.000 N 
ATOM      2  C   UNL     1      47.301   4.022  16.053  0.00  0.00    +0.000 A 
ATOM      3  N   UNL     1      46.961   3.262  17.099  0.00  0.00    +0.000 NA
ATOM      4  C   UNL     1      47.698   3.416  18.212  0.00  0.00    +0.000 A 
ATOM      5  C   UNL     1      48.756   4.285  18.311  0.00  0.00    +0.000 A 
ATOM      6  C   UNL     1      49.063   5.013  17.178  0.00  0.00    +0.000 A 
ATOM      7  N   UNL     1      48.320   4.893  16.054  0.00  0.00    +0.000 NA
ATOM      8  H   UNL     1      46.008   3.008  15.040  0.00  0.00    +0.000 HD
ENDROOT
BRANCH   6   9
ATOM      9  C   UNL     1      50.177   6.055  17.199  0.00  0.00    +0.000 C 
ATOM     10  C   UNL     1      50.093   7.054  18.372  0.00  0.00    +0.000 C 
ATOM     11  C   UNL     1      49.020   8.121  18.149  0.00  0.00    +0.000 C 
ATOM     12  C   UNL     1      49.131   8.778  16.774  0.00  0.00    +0.000 C 
ATOM     13  N   UNL     1      49.201   7.805  15.685  0.00  0.00    +0.000 NA
ATOM     14  C   UNL     1      50.302   6.858  15.885  0.00  0.00    +0.000 C 
ATOM     15  H   UNL     1      49.330   8.299  14.803  0.00  0.00    +0.000 HD
ENDBRANCH   6   9
BRANCH   1  16
ATOM     16  C   UNL     1      47.163   4.076  13.670  0.00  0.00    +0.000 C 
BRANCH  16  21
ATOM     17  C   UNL     1      44.594   6.287  11.896  0.00  0.00    +0.000 A 
ATOM     18  C   UNL     1      45.297   7.493  11.787  0.00  0.00    +0.000 A 
ATOM     19  C   UNL     1      46.612   7.577  12.248  0.00  0.00    +0.000 A 
ATOM     20  C   UNL     1      47.222   6.465  12.829  0.00  0.00    +0.000 A 
ATOM     21  C   UNL     1      46.523   5.254  12.967  0.00  0.00    +0.000 A 
ATOM     22  C   UNL     1      45.207   5.174  12.487  0.00  0.00    +0.000 A 
BRANCH  17  24
ATOM     23  N   UNL     1      42.536   7.292  11.056  0.00  0.00    +0.000 N 
ATOM     24  C   UNL     1      43.181   6.154  11.453  0.00  0.00    +0.000 C 
ATOM     25  O   UNL     1      42.620   5.067  11.408  0.00  0.00    +0.000 OA
ATOM     26  H   UNL     1      41.612   7.166  10.665  0.00  0.00    +0.000 HD
ATOM     27  H   UNL     1      43.032   8.143  10.833  0.00  0.00    +0.000 HD
ENDBRANCH  17  24
ENDBRANCH  16  21
ENDBRANCH   1  16
TORSDOF 4
ENDMDL
MODEL 9
REMARK VINA RESULT:    -6.395      2.477      2.901
REMARK INTER + INTRA:          -8.678
REMARK INTER:                  -7.869
REMARK INTRA:                  -0.809
REMARK UNBOUND:                -0.788
REMARK  Name = 
REMARK  4 active torsions:
REMARK  status: ('A' for Active; 'I' for Inactive)
REMARK    1  A    between atoms: C_2  and  C_4
REMARK    2  A    between atoms: C_8  and  C_9
REMARK    3  A    between atoms: C_9  and  N_10
REMARK    4  A    between atoms: C_15  and  C_16
REMARK                            x       y       z     vdW  Elec       q    Type
REMARK                         _______ _______ _______ _____ _____    ______ ____
ROOT
ATOM      1  N   UNL     1      46.595   4.264  15.169  0.00  0.00    +0.000 N 
ATOM      2  C   UNL     1      47.321   4.211  16.345  0.00  0.00    +0.000 A 
ATOM      3  N   UNL     1      47.258   3.049  17.004  0.00  0.00    +0.000 NA
ATOM      4  C   UNL     1      47.908   2.994  18.178  0.00  0.00    +0.000 A 
ATOM      5  C   UNL     1      48.619   4.042  18.705  0.00  0.00    +0.000 A 
ATOM      6  C   UNL     1      48.661   5.199  17.951  0.00  0.00    +0.000 A 
ATOM      7  N   UNL     1      47.994   5.286  16.778  0.00  0.00    +0.000 NA
ATOM      8  H   UNL     1      46.431   3.305  14.891  0.00  0.00    +0.000 HD
ENDROOT
BRANCH   6   9
ATOM      9  C   UNL     1      49.368   6.446  18.474  0.00  0.00    +0.000 C 
ATOM     10  C   UNL     1      49.049   6.788  19.945  0.00  0.00    +0.000 C 
ATOM     11  C   UNL     1      47.671   7.431  20.105  0.00  0.00    +0.000 C 
ATOM     12  C   UNL     1      47.453   8.588  19.133  0.00  0.00    +0.000 C 
ATOM     13  N   UNL     1      47.755   8.229  17.747  0.00  0.00    +0.000 NA
ATOM     14  C   UNL     1      49.118   7.707  17.617  0.00  0.00    +0.000 C 
ATOM     15  H   UNL     1      47.646   9.053  17.157  0.00  0.00    +0.000 HD
ENDBRANCH   6   9
BRANCH   1  16
ATOM     16  C   UNL     1      47.159   5.109  14.139  0.00  0.00    +0.000 C 
BRANCH  16  21
ATOM     17  C   UNL     1      44.776   6.910  11.749  0.00  0.00    +0.000 A 
ATOM     18  C   UNL     1      44.197   5.829  11.071  0.00  0.00    +0.000 A 
ATOM     19  C   UNL     1      44.546   4.522  11.416  0.00  0.00    +0.000 A 
ATOM     20  C   UNL     1      45.480   4.291  12.427  0.00  0.00    +0.000 A 
ATOM     21  C   UNL     1      46.087   5.364  13.100  0.00  0.00    +0.000 A 
ATOM     22  C   UNL     1      45.720   6.674  12.757  0.00  0.00    +0.000 A 
BRANCH  17  24
ATOM     23  N   UNL     1      43.249   8.572  10.825  0.00  0.00    +0.000 N 
ATOM     24  C   UNL     1      44.465   8.320  11.397  0.00  0.00    +0.000 C 
ATOM     25  O   UNL     1      45.246   9.231  11.638  0.00  0.00    +0.000 OA
ATOM     26  H   UNL     1      43.018   9.548  10.686  0.00  0.00    +0.000 HD
ATOM     27  H   UNL     1      42.491   7.906  10.853  0.00  0.00    +0.000 HD
ENDBRANCH  17  24
ENDBRANCH  16  21
ENDBRANCH   1  16
TORSDOF 4
ENDMDL
