MODEL 1
REMARK VINA RESULT:    -7.831      0.000      0.000
REMARK INTER + INTRA:         -11.027
REMARK INTER:                 -10.349
REMARK INTRA:                  -0.678
REMARK UNBOUND:                -0.678
REMARK  Name = 
REMARK  7 active torsions:
REMARK  status: ('A' for Active; 'I' for Inactive)
REMARK    1  A    between atoms: C_1  and  C_2
REMARK    2  A    between atoms: C_2  and  C_3
REMARK    3  A    between atoms: C_2  and  C_13
REMARK    4  A    between atoms: C_3  and  C_4
REMARK    5  A    between atoms: C_7  and  C_8
REMARK    6  A    between atoms: C_17  and  C_18
REMARK    7  A    between atoms: C_18  and  N_19
REMARK                            x       y       z     vdW  Elec       q    Type
REMARK                         _______ _______ _______ _____ _____    ______ ____
ROOT
ATOM      1  C   UNL     1      42.650   4.993  12.205  0.00  0.00    +0.000 C 
ATOM      2  C   UNL     1      43.909   4.503  11.475  0.00  0.00    +0.000 C 
ENDROOT
BRANCH   2   3
ATOM      3  C   UNL     1      45.165   5.027  12.167  0.00  0.00    +0.000 A 
ATOM      4  C   UNL     1      45.870   6.100  11.601  0.00  0.00    +0.000 A 
ATOM      5  C   UNL     1      47.047   6.572  12.185  0.00  0.00    +0.000 A 
ATOM      6  C   UNL     1      47.528   5.999  13.362  0.00  0.00    +0.000 A 
ATOM      7  C   UNL     1      46.828   4.955  13.974  0.00  0.00    +0.000 A 
ATOM      8  C   UNL     1      45.661   4.462  13.356  0.00  0.00    +0.000 A 
BRANCH   7   9
ATOM      9  C   UNL     1      47.315   4.359  15.274  0.00  0.00    +0.000 C 
BRANCH   9  10
ATOM     10  N   UNL     1      47.740   2.973  15.100  0.00  0.00    +0.000 NA
ATOM     11  H   UNL     1      47.013   2.475  14.589  0.00  0.00    +0.000 HD
ATOM     12  H   UNL     1      47.811   2.527  16.011  0.00  0.00    +0.000 HD
ENDBRANCH   9  10
ENDBRANCH   7   9
ENDBRANCH   2   3
BRANCH   2  13
ATOM     13  C   UNL     1      43.885   4.854   9.970  0.00  0.00    +0.000 C 
BRANCH  13  14
ATOM     14  C   UNL     1      44.840   4.020   9.140  0.00  0.00    +0.000 A 
ATOM     15  C   UNL     1      44.887   2.633   9.291  0.00  0.00    +0.000 A 
ATOM     16  C   UNL     1      45.784   1.896   8.516  0.00  0.00    +0.000 A 
ATOM     17  C   UNL     1      46.613   2.547   7.601  0.00  0.00    +0.000 A 
ATOM     18  C   UNL     1      46.497   3.923   7.510  0.00  0.00    +0.000 A 
ATOM     19  N   UNL     1      45.632   4.669   8.253  0.00  0.00    +0.000 NA
BRANCH  17  20
ATOM     20  C   UNL     1      47.566   1.737   6.795  0.00  0.00    +0.000 C 
ATOM     21  N   UNL     1      48.630   2.359   6.198  0.00  0.00    +0.000 N 
ATOM     22  O   UNL     1      47.414   0.529   6.657  0.00  0.00    +0.000 OA
ATOM     23  H   UNL     1      48.851   3.341   6.247  0.00  0.00    +0.000 HD
ATOM     24  H   UNL     1      49.251   1.767   5.662  0.00  0.00    +0.000 HD
ENDBRANCH  17  20
ENDBRANCH  13  14
ENDBRANCH   2  13
TORSDOF 6
ENDMDL
MODEL 2
REMARK VINA RESULT:    -7.423      1.965      2.940
REMARK INTER + INTRA:         -10.488
REMARK INTER:                  -9.818
REMARK INTRA:                  -0.670
REMARK UNBOUND:                -0.678
REMARK  Name = 
REMARK  7 active torsions:
REMARK  status: ('A' for Active; 'I' for Inactive)
REMARK    1  A    between atoms: C_1  and  C_2
REMARK    2  A    between atoms: C_2  and  C_3
REMARK    3  A    between atoms: C_2  and  C_13
REMARK    4  A    between atoms: C_3  and  C_4
REMARK    5  A    between atoms: C_7  and  C_8
REMARK    6  A    between atoms: C_17  and  C_18
REMARK    7  A    between atoms: C_18  and  N_19
REMARK                            x       y       z     vdW  Elec       q    Type
REMARK                         _______ _______ _______ _____ _____    ______ ____
ROOT
ATOM      1  C   UNL     1      43.511   3.794  12.846  0.00  0.00    +0.000 C 
ATOM      2  C   UNL     1      44.497   4.176  11.733  0.00  0.00    +0.000 C 
ENDROOT
BRANCH   2   3
ATOM      3  C   UNL     1      45.055   5.577  11.972  0.00  0.00    +0.000 A 
ATOM      4  C   UNL     1      46.232   5.736  12.718  0.00  0.00    +0.000 A 
ATOM      5  C   UNL     1      46.741   7.007  12.993  0.00  0.00    +0.000 A 
ATOM      6  C   UNL     1      46.099   8.143  12.503  0.00  0.00    +0.000 A 
ATOM      7  C   UNL     1      44.945   8.019  11.723  0.00  0.00    +0.000 A 
ATOM      8  C   UNL     1      44.420   6.733  11.483  0.00  0.00    +0.000 A 
BRANCH   7   9
ATOM      9  C   UNL     1      44.269   9.242  11.149  0.00  0.00    +0.000 C 
BRANCH   9  10
ATOM     10  N   UNL     1      42.877   8.969  10.804  0.00  0.00    +0.000 NA
ATOM     11  H   UNL     1      42.334   9.817  10.959  0.00  0.00    +0.000 HD
ATOM     12  H   UNL     1      42.505   8.266  11.439  0.00  0.00    +0.000 HD
ENDBRANCH   9  10
ENDBRANCH   7   9
ENDBRANCH   2   3
BRANCH   2  13
ATOM     13  C   UNL     1      43.875   4.030  10.326  0.00  0.00    +0.000 C 
BRANCH  13  14
ATOM     14  C   UNL     1      44.828   3.448   9.301  0.00  0.00    +0.000 A 
ATOM     15  C   UNL     1      45.118   2.083   9.298  0.00  0.00    +0.000 A 
ATOM     16  C   UNL     1      46.005   1.581   8.344  0.00  0.00    +0.000 A 
ATOM     17  C   UNL     1      46.583   2.441   7.409  0.00  0.00    +0.000 A 
ATOM     18  C   UNL     1      46.235   3.777   7.479  0.00  0.00    +0.000 A 
ATOM     19  N   UNL     1      45.373   4.297   8.397  0.00  0.00    +0.000 NA
BRANCH  17  20
ATOM     20  C   UNL     1      47.533   1.879   6.411  0.00  0.00    +0.000 C 
ATOM     21  N   UNL     1      48.727   2.514   6.197  0.00  0.00    +0.000 N 
ATOM     22  O   UNL     1      47.265   0.863   5.779  0.00  0.00    +0.000 OA
ATOM     23  H   UNL     1      49.049   3.349   6.660  0.00  0.00    +0.000 HD
ATOM     24  H   UNL     1      49.341   2.095   5.511  0.00  0.00    +0.000 HD
ENDBRANCH  17  20
ENDBRANCH  13  14
ENDBRANCH   2  13
TORSDOF 6
ENDMDL
MODEL 3
REMARK VINA RESULT:    -6.963      1.710      2.368
REMARK INTER + INTRA:          -9.880
REMARK INTER:                  -9.056
REMARK INTRA:                  -0.824
REMARK UNBOUND:                -0.678
REMARK  Name = 
REMARK  7 active torsions:
REMARK  status: ('A' for Active; 'I' for Inactive)
REMARK    1  A    between atoms: C_1  and  C_2
REMARK    2  A    between atoms: C_2  and  C_3
REMARK    3  A    between atoms: C_2  and  C_13
REMARK    4  A    between atoms: C_3  and  C_4
REMARK    5  A    between atoms: C_7  and  C_8
REMARK    6  A    between atoms: C_17  and  C_18
REMARK    7  A    between atoms: C_18  and  N_19
REMARK                            x       y       z     vdW  Elec       q    Type
REMARK                         _______ _______ _______ _____ _____    ______ ____
ROOT
ATOM      1  C   UNL     1      42.487   5.604  12.088  0.00  0.00    +0.000 C 
ATOM      2  C   UNL     1      43.579   4.724  11.463  0.00  0.00    +0.000 C 
ENDROOT
BRANCH   2   3
ATOM      3  C   UNL     1      44.929   5.003  12.120  0.00  0.00    +0.000 A 
ATOM      4  C   UNL     1      45.477   4.062  13.003  0.00  0.00    +0.000 A 
ATOM      5  C   UNL     1      46.687   4.309  13.655  0.00  0.00    +0.000 A 
ATOM      6  C   UNL     1      47.388   5.491  13.414  0.00  0.00    +0.000 A 
ATOM      7  C   UNL     1      46.889   6.432  12.508  0.00  0.00    +0.000 A 
ATOM      8  C   UNL     1      45.649   6.189  11.884  0.00  0.00    +0.000 A 
BRANCH   7   9
ATOM      9  C   UNL     1      47.664   7.693  12.205  0.00  0.00    +0.000 C 
BRANCH   9  10
ATOM     10  N   UNL     1      47.284   8.781  13.101  0.00  0.00    +0.000 NA
ATOM     11  H   UNL     1      46.323   9.049  12.894  0.00  0.00    +0.000 HD
ATOM     12  H   UNL     1      47.860   9.596  12.904  0.00  0.00    +0.000 HD
ENDBRANCH   9  10
ENDBRANCH   7   9
ENDBRANCH   2   3
BRANCH   2  13
ATOM     13  C   UNL     1      43.639   4.871   9.926  0.00  0.00    +0.000 C 
BRANCH  13  14
ATOM     14  C   UNL     1      44.540   3.853   9.256  0.00  0.00    +0.000 A 
ATOM     15  C   UNL     1      45.538   4.264   8.370  0.00  0.00    +0.000 A 
ATOM     16  C   UNL     1      46.347   3.300   7.766  0.00  0.00    +0.000 A 
ATOM     17  C   UNL     1      46.155   1.948   8.055  0.00  0.00    +0.000 A 
ATOM     18  C   UNL     1      45.148   1.630   8.949  0.00  0.00    +0.000 A 
ATOM     19  N   UNL     1      44.343   2.547   9.555  0.00  0.00    +0.000 NA
BRANCH  17  20
ATOM     20  C   UNL     1      47.025   0.942   7.388  0.00  0.00    +0.000 C 
ATOM     21  N   UNL     1      47.897   1.356   6.417  0.00  0.00    +0.000 N 
ATOM     22  O   UNL     1      46.972  -0.244   7.689  0.00  0.00    +0.000 OA
ATOM     23  H   UNL     1      48.024   2.302   6.093  0.00  0.00    +0.000 HD
ATOM     24  H   UNL     1      48.469   0.638   5.992  0.00  0.00    +0.000 HD
ENDBRANCH  17  20
ENDBRANCH  13  14
ENDBRANCH   2  13
TORSDOF 6
ENDMDL
MODEL 4
REMARK VINA RESULT:    -6.477      2.205      2.642
REMARK INTER + INTRA:          -9.238
REMARK INTER:                  -8.625
REMARK INTRA:                  -0.613
REMARK UNBOUND:                -0.678
REMARK  Name = 
REMARK  7 active torsions:
REMARK  status: ('A' for Active; 'I' for Inactive)
REMARK    1  A    between atoms: C_1  and  C_2
REMARK    2  A    between atoms: C_2  and  C_3
REMARK    3  A    between atoms: C_2  and  C_13
REMARK    4  A    between atoms: C_3  and  C_4
REMARK    5  A    between atoms: C_7  and  C_8
REMARK    6  A    between atoms: C_17  and  C_18
REMARK    7  A    between atoms: C_18  and  N_19
REMARK                            x       y       z     vdW  Elec       q    Type
REMARK                         _______ _______ _______ _____ _____    ______ ____
ROOT
ATOM      1  C   UNL     1      44.711   4.239  13.024  0.00  0.00    +0.000 C 
ATOM      2  C   UNL     1      45.255   4.944  11.772  0.00  0.00    +0.000 C 
ENDROOT
BRANCH   2   3
ATOM      3  C   UNL     1      45.441   6.436  12.039  0.00  0.00    +0.000 A 
ATOM      4  C   UNL     1      44.599   7.362  11.407  0.00  0.00    +0.000 A 
ATOM      5  C   UNL     1      44.773   8.735  11.594  0.00  0.00    +0.000 A 
ATOM      6  C   UNL     1      45.776   9.208  12.441  0.00  0.00    +0.000 A 
ATOM      7  C   UNL     1      46.607   8.310  13.117  0.00  0.00    +0.000 A 
ATOM      8  C   UNL     1      46.446   6.928  12.892  0.00  0.00    +0.000 A 
BRANCH   7   9
ATOM      9  C   UNL     1      47.665   8.811  14.072  0.00  0.00    +0.000 C 
BRANCH   9  10
ATOM     10  N   UNL     1      47.960  10.224  13.849  0.00  0.00    +0.000 NA
ATOM     11  H   UNL     1      48.585  10.300  13.048  0.00  0.00    +0.000 HD
ATOM     12  H   UNL     1      48.469  10.591  14.649  0.00  0.00    +0.000 HD
ENDBRANCH   9  10
ENDBRANCH   7   9
ENDBRANCH   2   3
BRANCH   2  13
ATOM     13  C   UNL     1      44.378   4.681  10.527  0.00  0.00    +0.000 C 
BRANCH  13  14
ATOM     14  C   UNL     1      45.135   4.048   9.377  0.00  0.00    +0.000 A 
ATOM     15  C   UNL     1      45.147   2.662   9.213  0.00  0.00    +0.000 A 
ATOM     16  C   UNL     1      45.861   2.111   8.147  0.00  0.00    +0.000 A 
ATOM     17  C   UNL     1      46.544   2.945   7.261  0.00  0.00    +0.000 A 
ATOM     18  C   UNL     1      46.474   4.307   7.493  0.00  0.00    +0.000 A 
ATOM     19  N   UNL     1      45.787   4.874   8.524  0.00  0.00    +0.000 NA
BRANCH  17  20
ATOM     20  C   UNL     1      47.305   2.329   6.140  0.00  0.00    +0.000 C 
ATOM     21  N   UNL     1      48.636   2.060   6.308  0.00  0.00    +0.000 N 
ATOM     22  O   UNL     1      46.762   2.063   5.074  0.00  0.00    +0.000 OA
ATOM     23  H   UNL     1      49.180   2.235   7.139  0.00  0.00    +0.000 HD
ATOM     24  H   UNL     1      49.111   1.640   5.520  0.00  0.00    +0.000 HD
ENDBRANCH  17  20
ENDBRANCH  13  14
ENDBRANCH   2  13
TORSDOF 6
ENDMDL
MODEL 5
REMARK VINA RESULT:    -6.398      2.999      6.826
REMARK INTER + INTRA:          -9.134
REMARK INTER:                  -8.455
REMARK INTRA:                  -0.679
REMARK UNBOUND:                -0.678
REMARK  Name = 
REMARK  7 active torsions:
REMARK  status: ('A' for Active; 'I' for Inactive)
REMARK    1  A    between atoms: C_1  and  C_2
REMARK    2  A    between atoms: C_2  and  C_3
REMARK    3  A    between atoms: C_2  and  C_13
REMARK    4  A    between atoms: C_3  and  C_4
REMARK    5  A    between atoms: C_7  and  C_8
REMARK    6  A    between atoms: C_17  and  C_18
REMARK    7  A    between atoms: C_18  and  N_19
REMARK                            x       y       z     vdW  Elec       q    Type
REMARK                         _______ _______ _______ _____ _____    ______ ____
ROOT
ATOM      1  C   UNL     1      45.774   8.160  12.922  0.00  0.00    +0.000 C 
ATOM      2  C   UNL     1      46.419   7.377  11.769  0.00  0.00    +0.000 C 
ENDROOT
BRANCH   2   3
ATOM      3  C   UNL     1      45.435   6.357  11.201  0.00  0.00    +0.000 A 
ATOM      4  C   UNL     1      44.198   6.163  11.832  0.00  0.00    +0.000 A 
ATOM      5  C   UNL     1      43.296   5.205  11.363  0.00  0.00    +0.000 A 
ATOM      6  C   UNL     1      43.602   4.441  10.237  0.00  0.00    +0.000 A 
ATOM      7  C   UNL     1      44.810   4.637   9.561  0.00  0.00    +0.000 A 
ATOM      8  C   UNL     1      45.728   5.581  10.064  0.00  0.00    +0.000 A 
BRANCH   7   9
ATOM      9  C   UNL     1      45.130   3.849   8.313  0.00  0.00    +0.000 C 
BRANCH   9  10
ATOM     10  N   UNL     1      46.335   4.351   7.659  0.00  0.00    +0.000 NA
ATOM     11  H   UNL     1      46.107   5.230   7.195  0.00  0.00    +0.000 HD
ATOM     12  H   UNL     1      46.616   3.702   6.928  0.00  0.00    +0.000 HD
ENDBRANCH   9  10
ENDBRANCH   7   9
ENDBRANCH   2   3
BRANCH   2  13
ATOM     13  C   UNL     1      47.757   6.725  12.185  0.00  0.00    +0.000 C 
BRANCH  13  14
ATOM     14  C   UNL     1      47.669   5.936  13.476  0.00  0.00    +0.000 A 
ATOM     15  C   UNL     1      46.949   4.741  13.530  0.00  0.00    +0.000 A 
ATOM     16  C   UNL     1      46.883   4.043  14.737  0.00  0.00    +0.000 A 
ATOM     17  C   UNL     1      47.537   4.540  15.866  0.00  0.00    +0.000 A 
ATOM     18  C   UNL     1      48.233   5.726  15.723  0.00  0.00    +0.000 A 
ATOM     19  N   UNL     1      48.316   6.430  14.560  0.00  0.00    +0.000 NA
BRANCH  17  20
ATOM     20  C   UNL     1      47.440   3.779  17.142  0.00  0.00    +0.000 C 
ATOM     21  N   UNL     1      48.455   3.879  18.055  0.00  0.00    +0.000 N 
ATOM     22  O   UNL     1      46.473   3.067  17.386  0.00  0.00    +0.000 OA
ATOM     23  H   UNL     1      49.291   4.434  17.959  0.00  0.00    +0.000 HD
ATOM     24  H   UNL     1      48.345   3.346  18.908  0.00  0.00    +0.000 HD
ENDBRANCH  17  20
ENDBRANCH  13  14
ENDBRANCH   2  13
TORSDOF 6
ENDMDL
MODEL 6
REMARK VINA RESULT:    -5.988      3.231      6.408
REMARK INTER + INTRA:          -8.591
REMARK INTER:                  -7.815
REMARK INTRA:                  -0.777
REMARK UNBOUND:                -0.678
REMARK  Name = 
REMARK  7 active torsions:
REMARK  status: ('A' for Active; 'I' for Inactive)
REMARK    1  A    between atoms: C_1  and  C_2
REMARK    2  A    between atoms: C_2  and  C_3
REMARK    3  A    between atoms: C_2  and  C_13
REMARK    4  A    between atoms: C_3  and  C_4
REMARK    5  A    between atoms: C_7  and  C_8
REMARK    6  A    between atoms: C_17  and  C_18
REMARK    7  A    between atoms: C_18  and  N_19
REMARK                            x       y       z     vdW  Elec       q    Type
REMARK                         _______ _______ _______ _____ _____    ______ ____
ROOT
ATOM      1  C   UNL     1      42.775   5.310  11.762  0.00  0.00    +0.000 C 
ATOM      2  C   UNL     1      44.277   5.321  11.446  0.00  0.00    +0.000 C 
ENDROOT
BRANCH   2   3
ATOM      3  C   UNL     1      44.600   4.302  10.355  0.00  0.00    +0.000 A 
ATOM      4  C   UNL     1      44.081   3.002  10.448  0.00  0.00    +0.000 A 
ATOM      5  C   UNL     1      44.396   2.035   9.492  0.00  0.00    +0.000 A 
ATOM      6  C   UNL     1      45.213   2.356   8.408  0.00  0.00    +0.000 A 
ATOM      7  C   UNL     1      45.715   3.653   8.264  0.00  0.00    +0.000 A 
ATOM      8  C   UNL     1      45.420   4.612   9.255  0.00  0.00    +0.000 A 
BRANCH   7   9
ATOM      9  C   UNL     1      46.562   4.023   7.070  0.00  0.00    +0.000 C 
BRANCH   9  10
ATOM     10  N   UNL     1      47.674   3.093   6.896  0.00  0.00    +0.000 NA
ATOM     11  H   UNL     1      47.799   2.574   7.764  0.00  0.00    +0.000 HD
ATOM     12  H   UNL     1      48.532   3.619   6.747  0.00  0.00    +0.000 HD
ENDBRANCH   9  10
ENDBRANCH   7   9
ENDBRANCH   2   3
BRANCH   2  13
ATOM     13  C   UNL     1      45.141   5.114  12.710  0.00  0.00    +0.000 C 
BRANCH  13  14
ATOM     14  C   UNL     1      46.388   5.976  12.738  0.00  0.00    +0.000 A 
ATOM     15  C   UNL     1      46.579   6.977  11.785  0.00  0.00    +0.000 A 
ATOM     16  C   UNL     1      47.741   7.749  11.836  0.00  0.00    +0.000 A 
ATOM     17  C   UNL     1      48.689   7.516  12.834  0.00  0.00    +0.000 A 
ATOM     18  C   UNL     1      48.417   6.508  13.741  0.00  0.00    +0.000 A 
ATOM     19  N   UNL     1      47.293   5.739  13.718  0.00  0.00    +0.000 NA
BRANCH  17  20
ATOM     20  C   UNL     1      49.924   8.346  12.857  0.00  0.00    +0.000 C 
ATOM     21  N   UNL     1      51.134   7.746  12.638  0.00  0.00    +0.000 N 
ATOM     22  O   UNL     1      49.875   9.553  13.069  0.00  0.00    +0.000 OA
ATOM     23  H   UNL     1      51.290   6.768  12.453  0.00  0.00    +0.000 HD
ATOM     24  H   UNL     1      51.945   8.350  12.662  0.00  0.00    +0.000 HD
ENDBRANCH  17  20
ENDBRANCH  13  14
ENDBRANCH   2  13
TORSDOF 6
ENDMDL
MODEL 7
REMARK VINA RESULT:    -5.897      4.009      5.811
REMARK INTER + INTRA:          -8.471
REMARK INTER:                  -7.762
REMARK INTRA:                  -0.709
REMARK UNBOUND:                -0.678
REMARK  Name = 
REMARK  7 active torsions:
REMARK  status: ('A' for Active; 'I' for Inactive)
REMARK    1  A    between atoms: C_1  and  C_2
REMARK    2  A    between atoms: C_2  and  C_3
REMARK    3  A    between atoms: C_2  and  C_13
REMARK    4  A    between atoms: C_3  and  C_4
REMARK    5  A    between atoms: C_7  and  C_8
REMARK    6  A    between atoms: C_17  and  C_18
REMARK    7  A    between atoms: C_18  and  N_19
REMARK                            x       y       z     vdW  Elec       q    Type
REMARK                         _______ _______ _______ _____ _____    ______ ____
ROOT
ATOM      1  C   UNL     1      49.006   8.542  14.982  0.00  0.00    +0.000 C 
ATOM      2  C   UNL     1      48.311   7.175  14.913  0.00  0.00    +0.000 C 
ENDROOT
BRANCH   2   3
ATOM      3  C   UNL     1      48.931   6.209  15.920  0.00  0.00    +0.000 A 
ATOM      4  C   UNL     1      50.249   6.414  16.353  0.00  0.00    +0.000 A 
ATOM      5  C   UNL     1      50.860   5.523  17.238  0.00  0.00    +0.000 A 
ATOM      6  C   UNL     1      50.155   4.424  17.728  0.00  0.00    +0.000 A 
ATOM      7  C   UNL     1      48.827   4.213  17.348  0.00  0.00    +0.000 A 
ATOM      8  C   UNL     1      48.232   5.098  16.426  0.00  0.00    +0.000 A 
BRANCH   7   9
ATOM      9  C   UNL     1      48.040   3.052  17.910  0.00  0.00    +0.000 C 
BRANCH   9  10
ATOM     10  N   UNL     1      46.624   3.152  17.569  0.00  0.00    +0.000 NA
ATOM     11  H   UNL     1      46.390   4.136  17.445  0.00  0.00    +0.000 HD
ATOM     12  H   UNL     1      46.065   2.818  18.351  0.00  0.00    +0.000 HD
ENDBRANCH   9  10
ENDBRANCH   7   9
ENDBRANCH   2   3
BRANCH   2  13
ATOM     13  C   UNL     1      48.305   6.596  13.480  0.00  0.00    +0.000 C 
BRANCH  13  14
ATOM     14  C   UNL     1      46.930   6.169  13.006  0.00  0.00    +0.000 A 
ATOM     15  C   UNL     1      46.424   4.911  13.340  0.00  0.00    +0.000 A 
ATOM     16  C   UNL     1      45.156   4.548  12.882  0.00  0.00    +0.000 A 
ATOM     17  C   UNL     1      44.412   5.439  12.107  0.00  0.00    +0.000 A 
ATOM     18  C   UNL     1      44.987   6.667  11.829  0.00  0.00    +0.000 A 
ATOM     19  N   UNL     1      46.220   7.051  12.261  0.00  0.00    +0.000 NA
BRANCH  17  20
ATOM     20  C   UNL     1      43.069   5.020  11.624  0.00  0.00    +0.000 C 
ATOM     21  N   UNL     1      42.023   5.899  11.717  0.00  0.00    +0.000 N 
ATOM     22  O   UNL     1      42.883   3.906  11.149  0.00  0.00    +0.000 OA
ATOM     23  H   UNL     1      42.063   6.835  12.087  0.00  0.00    +0.000 HD
ATOM     24  H   UNL     1      41.130   5.570  11.376  0.00  0.00    +0.000 HD
ENDBRANCH  17  20
ENDBRANCH  13  14
ENDBRANCH   2  13
TORSDOF 6
ENDMDL
MODEL 8
REMARK VINA RESULT:    -5.599      4.532      7.551
REMARK INTER + INTRA:          -8.077
REMARK INTER:                  -7.691
REMARK INTRA:                  -0.386
REMARK UNBOUND:                -0.678
REMARK  Name = 
REMARK  7 active torsions:
REMARK  status: ('A' for Active; 'I' for Inactive)
REMARK    1  A    between atoms: C_1  and  C_2
REMARK    2  A    between atoms: C_2  and  C_3
REMARK    3  A    between atoms: C_2  and  C_13
REMARK    4  A    between atoms: C_3  and  C_4
REMARK    5  A    between atoms: C_7  and  C_8
REMARK    6  A    between atoms: C_17  and  C_18
REMARK    7  A    between atoms: C_18  and  N_19
REMARK                            x       y       z     vdW  Elec       q    Type
REMARK                         _______ _______ _______ _____ _____    ______ ____
ROOT
ATOM      1  C   UNL     1      49.699   7.653  11.579  0.00  0.00    +0.000 C 
ATOM      2  C   UNL     1      48.683   7.084  12.580  0.00  0.00    +0.000 C 
ENDROOT
BRANCH   2   3
ATOM      3  C   UNL     1      47.265   7.503  12.197  0.00  0.00    +0.000 A 
ATOM      4  C   UNL     1      46.919   8.861  12.205  0.00  0.00    +0.000 A 
ATOM      5  C   UNL     1      45.618   9.272  11.905  0.00  0.00    +0.000 A 
ATOM      6  C   UNL     1      44.645   8.334  11.562  0.00  0.00    +0.000 A 
ATOM      7  C   UNL     1      44.968   6.975  11.505  0.00  0.00    +0.000 A 
ATOM      8  C   UNL     1      46.273   6.568  11.846  0.00  0.00    +0.000 A 
BRANCH   7   9
ATOM      9  C   UNL     1      43.933   5.955  11.089  0.00  0.00    +0.000 C 
BRANCH   9  10
ATOM     10  N   UNL     1      42.589   6.526  11.097  0.00  0.00    +0.000 NA
ATOM     11  H   UNL     1      42.621   7.435  10.639  0.00  0.00    +0.000 HD
ATOM     12  H   UNL     1      42.302   6.695  12.058  0.00  0.00    +0.000 HD
ENDBRANCH   9  10
ENDBRANCH   7   9
ENDBRANCH   2   3
BRANCH   2  13
ATOM     13  C   UNL     1      49.026   7.461  14.039  0.00  0.00    +0.000 C 
BRANCH  13  14
ATOM     14  C   UNL     1      48.653   6.389  15.043  0.00  0.00    +0.000 A 
ATOM     15  C   UNL     1      49.224   6.381  16.317  0.00  0.00    +0.000 A 
ATOM     16  C   UNL     1      48.863   5.376  17.216  0.00  0.00    +0.000 A 
ATOM     17  C   UNL     1      47.939   4.401  16.837  0.00  0.00    +0.000 A 
ATOM     18  C   UNL     1      47.417   4.488  15.559  0.00  0.00    +0.000 A 
ATOM     19  N   UNL     1      47.749   5.456  14.660  0.00  0.00    +0.000 NA
BRANCH  17  20
ATOM     20  C   UNL     1      47.581   3.336  17.812  0.00  0.00    +0.000 C 
ATOM     21  N   UNL     1      48.341   3.184  18.940  0.00  0.00    +0.000 N 
ATOM     22  O   UNL     1      46.624   2.594  17.621  0.00  0.00    +0.000 OA
ATOM     23  H   UNL     1      49.145   3.735  19.197  0.00  0.00    +0.000 HD
ATOM     24  H   UNL     1      48.060   2.447  19.574  0.00  0.00    +0.000 HD
ENDBRANCH  17  20
ENDBRANCH  13  14
ENDBRANCH   2  13
TORSDOF 6
ENDMDL
MODEL 9
REMARK VINA RESULT:    -5.424      4.072      6.434
REMARK INTER + INTRA:          -7.846
REMARK INTER:                  -7.117
REMARK INTRA:                  -0.729
REMARK UNBOUND:                -0.678
REMARK  Name = 
REMARK  7 active torsions:
REMARK  status: ('A' for Active; 'I' for Inactive)
REMARK    1  A    between atoms: C_1  and  C_2
REMARK    2  A    between atoms: C_2  and  C_3
REMARK    3  A    between atoms: C_2  and  C_13
REMARK    4  A    between atoms: C_3  and  C_4
REMARK    5  A    between atoms: C_7  and  C_8
REMARK    6  A    between atoms: C_17  and  C_18
REMARK    7  A    between atoms: C_18  and  N_19
REMARK                            x       y       z     vdW  Elec       q    Type
REMARK                         _______ _______ _______ _____ _____    ______ ____
ROOT
ATOM      1  C   UNL     1      49.591   8.661  16.620  0.00  0.00    +0.000 C 
ATOM      2  C   UNL     1      48.896   7.468  15.950  0.00  0.00    +0.000 C 
ENDROOT
BRANCH   2   3
ATOM      3  C   UNL     1      49.358   6.157  16.582  0.00  0.00    +0.000 A 
ATOM      4  C   UNL     1      50.713   5.982  16.898  0.00  0.00    +0.000 A 
ATOM      5  C   UNL     1      51.175   4.778  17.434  0.00  0.00    +0.000 A 
ATOM      6  C   UNL     1      50.286   3.735  17.691  0.00  0.00    +0.000 A 
ATOM      7  C   UNL     1      48.922   3.891  17.426  0.00  0.00    +0.000 A 
ATOM      8  C   UNL     1      48.473   5.097  16.851  0.00  0.00    +0.000 A 
BRANCH   7   9
ATOM      9  C   UNL     1      47.944   2.785  17.745  0.00  0.00    +0.000 C 
BRANCH   9  10
ATOM     10  N   UNL     1      46.565   3.214  17.531  0.00  0.00    +0.000 NA
ATOM     11  H   UNL     1      46.085   3.219  18.430  0.00  0.00    +0.000 HD
ATOM     12  H   UNL     1      46.086   2.529  16.951  0.00  0.00    +0.000 HD
ENDBRANCH   9  10
ENDBRANCH   7   9
ENDBRANCH   2   3
BRANCH   2  13
ATOM     13  C   UNL     1      49.082   7.471  14.416  0.00  0.00    +0.000 C 
BRANCH  13  14
ATOM     14  C   UNL     1      47.820   7.119  13.653  0.00  0.00    +0.000 A 
ATOM     15  C   UNL     1      46.896   8.110  13.316  0.00  0.00    +0.000 A 
ATOM     16  C   UNL     1      45.741   7.750  12.619  0.00  0.00    +0.000 A 
ATOM     17  C   UNL     1      45.527   6.417  12.266  0.00  0.00    +0.000 A 
ATOM     18  C   UNL     1      46.496   5.502  12.634  0.00  0.00    +0.000 A 
ATOM     19  N   UNL     1      47.633   5.821  13.313  0.00  0.00    +0.000 NA
BRANCH  17  20
ATOM     20  C   UNL     1      44.281   6.062  11.533  0.00  0.00    +0.000 C 
ATOM     21  N   UNL     1      43.358   7.040  11.275  0.00  0.00    +0.000 N 
ATOM     22  O   UNL     1      44.068   4.914  11.160  0.00  0.00    +0.000 OA
ATOM     23  H   UNL     1      43.432   8.012  11.533  0.00  0.00    +0.000 HD
ATOM     24  H   UNL     1      42.528   6.752  10.774  0.00  0.00    +0.000 HD
ENDBRANCH  17  20
ENDBRANCH  13  14
ENDBRANCH   2  13
TORSDOF 6
ENDMDL
