MODEL 1
REMARK VINA RESULT:    -7.442      0.000      0.000
REMARK INTER + INTRA:          -9.788
REMARK INTER:                  -9.182
REMARK INTRA:                  -0.606
REMARK UNBOUND:                -0.606
REMARK  Name = 
REMARK  4 active torsions:
REMARK  status: ('A' for Active; 'I' for Inactive)
REMARK    1  A    between atoms: C_5  and  O_6
REMARK    2  A    between atoms: O_6  and  C_7
REMARK    3  A    between atoms: C_7  and  C_8
REMARK    4  A    between atoms: C_12  and  C_13
REMARK                            x       y       z     vdW  Elec       q    Type
REMARK                         _______ _______ _______ _____ _____    ______ ____
ROOT
ATOM      1  C   UNL     1      44.226   4.111  10.659  0.00  0.00    +0.000 A 
ATOM      2  C   UNL     1      43.103   4.295  11.471  0.00  0.00    +0.000 A 
ATOM      3  C   UNL     1      43.185   5.092  12.608  0.00  0.00    +0.000 A 
ATOM      4  C   UNL     1      44.391   5.717  12.945  0.00  0.00    +0.000 A 
ATOM      5  C   UNL     1      45.542   5.561  12.154  0.00  0.00    +0.000 A 
ATOM      6  C   UNL     1      45.425   4.761  10.999  0.00  0.00    +0.000 A 
ENDROOT
BRANCH   5   7
ATOM      7  C   UNL     1      46.828   6.193  12.528  0.00  0.00    +0.000 A 
ATOM      8  C   UNL     1      47.466   7.141  11.713  0.00  0.00    +0.000 A 
ATOM      9  C   UNL     1      48.685   7.704  12.092  0.00  0.00    +0.000 A 
ATOM     10  C   UNL     1      49.245   7.312  13.294  0.00  0.00    +0.000 A 
ATOM     11  N   UNL     1      48.682   6.407  14.116  0.00  0.00    +0.000 NA
ATOM     12  C   UNL     1      47.501   5.872  13.712  0.00  0.00    +0.000 A 
ENDBRANCH   5   7
BRANCH   1  13
ATOM     13  C   UNL     1      44.156   3.222   9.437  0.00  0.00    +0.000 C 
BRANCH  13  14
ATOM     14  O   UNL     1      45.194   2.252   9.511  0.00  0.00    +0.000 OA
BRANCH  14  19
ATOM     15  F   UNL     1      47.953   2.036   4.860  0.00  0.00    +0.000 F 
ATOM     16  C   UNL     1      47.278   2.074   6.014  0.00  0.00    +0.000 A 
ATOM     17  C   UNL     1      47.215   0.993   6.856  0.00  0.00    +0.000 A 
ATOM     18  N   UNL     1      46.539   1.001   8.029  0.00  0.00    +0.000 NA
ATOM     19  C   UNL     1      45.912   2.151   8.340  0.00  0.00    +0.000 A 
ATOM     20  N   UNL     1      45.915   3.266   7.587  0.00  0.00    +0.000 NA
ATOM     21  C   UNL     1      46.607   3.198   6.427  0.00  0.00    +0.000 A 
ENDBRANCH  14  19
ENDBRANCH  13  14
ENDBRANCH   1  13
TORSDOF 4
ENDMDL
MODEL 2
REMARK VINA RESULT:    -7.262      1.708      2.173
REMARK INTER + INTRA:          -9.566
REMARK INTER:                  -8.981
REMARK INTRA:                  -0.585
REMARK UNBOUND:                -0.606
REMARK  Name = 
REMARK  4 active torsions:
REMARK  status: ('A' for Active; 'I' for Inactive)
REMARK    1  A    between atoms: C_5  and  O_6
REMARK    2  A    between atoms: O_6  and  C_7
REMARK    3  A    between atoms: C_7  and  C_8
REMARK    4  A    between atoms: C_12  and  C_13
REMARK                            x       y       z     vdW  Elec       q    Type
REMARK                         _______ _______ _______ _____ _____    ______ ____
ROOT
ATOM      1  C   UNL     1      44.975   4.316  11.462  0.00  0.00    +0.000 A 
ATOM      2  C   UNL     1      45.444   3.494  12.490  0.00  0.00    +0.000 A 
ATOM      3  C   UNL     1      46.405   3.965  13.379  0.00  0.00    +0.000 A 
ATOM      4  C   UNL     1      46.904   5.266  13.252  0.00  0.00    +0.000 A 
ATOM      5  C   UNL     1      46.456   6.127  12.235  0.00  0.00    +0.000 A 
ATOM      6  C   UNL     1      45.471   5.627  11.358  0.00  0.00    +0.000 A 
ENDROOT
BRANCH   5   7
ATOM      7  C   UNL     1      47.010   7.491  12.077  0.00  0.00    +0.000 A 
ATOM      8  C   UNL     1      48.363   7.725  11.787  0.00  0.00    +0.000 A 
ATOM      9  C   UNL     1      48.852   9.026  11.661  0.00  0.00    +0.000 A 
ATOM     10  C   UNL     1      47.970  10.078  11.819  0.00  0.00    +0.000 A 
ATOM     11  N   UNL     1      46.663   9.916  12.099  0.00  0.00    +0.000 NA
ATOM     12  C   UNL     1      46.223   8.638  12.225  0.00  0.00    +0.000 A 
ENDBRANCH   5   7
BRANCH   1  13
ATOM     13  C   UNL     1      43.952   3.804  10.472  0.00  0.00    +0.000 C 
BRANCH  13  14
ATOM     14  O   UNL     1      44.291   4.274   9.173  0.00  0.00    +0.000 OA
BRANCH  14  19
ATOM     15  F   UNL     1      47.968   1.270   6.576  0.00  0.00    +0.000 F 
ATOM     16  C   UNL     1      47.056   1.999   7.228  0.00  0.00    +0.000 A 
ATOM     17  C   UNL     1      46.210   1.445   8.155  0.00  0.00    +0.000 A 
ATOM     18  N   UNL     1      45.277   2.157   8.829  0.00  0.00    +0.000 NA
ATOM     19  C   UNL     1      45.214   3.471   8.540  0.00  0.00    +0.000 A 
ATOM     20  N   UNL     1      45.998   4.109   7.653  0.00  0.00    +0.000 NA
ATOM     21  C   UNL     1      46.911   3.347   7.010  0.00  0.00    +0.000 A 
ENDBRANCH  14  19
ENDBRANCH  13  14
ENDBRANCH   1  13
TORSDOF 4
ENDMDL
MODEL 3
REMARK VINA RESULT:    -7.004      1.714      2.736
REMARK INTER + INTRA:          -9.248
REMARK INTER:                  -8.648
REMARK INTRA:                  -0.600
REMARK UNBOUND:                -0.606
REMARK  Name = 
REMARK  4 active torsions:
REMARK  status: ('A' for Active; 'I' for Inactive)
REMARK    1  A    between atoms: C_5  and  O_6
REMARK    2  A    between atoms: O_6  and  C_7
REMARK    3  A    between atoms: C_7  and  C_8
REMARK    4  A    between atoms: C_12  and  C_13
REMARK                            x       y       z     vdW  Elec       q    Type
REMARK                         _______ _______ _______ _____ _____    ______ ____
ROOT
ATOM      1  C   UNL     1      45.092   4.786  11.469  0.00  0.00    +0.000 A 
ATOM      2  C   UNL     1      45.008   6.098  10.994  0.00  0.00    +0.000 A 
ATOM      3  C   UNL     1      45.663   7.127  11.663  0.00  0.00    +0.000 A 
ATOM      4  C   UNL     1      46.413   6.854  12.813  0.00  0.00    +0.000 A 
ATOM      5  C   UNL     1      46.527   5.548  13.321  0.00  0.00    +0.000 A 
ATOM      6  C   UNL     1      45.865   4.524  12.613  0.00  0.00    +0.000 A 
ENDROOT
BRANCH   5   7
ATOM      7  C   UNL     1      47.291   5.264  14.557  0.00  0.00    +0.000 A 
ATOM      8  C   UNL     1      47.037   4.139  15.356  0.00  0.00    +0.000 A 
ATOM      9  C   UNL     1      47.766   3.911  16.523  0.00  0.00    +0.000 A 
ATOM     10  C   UNL     1      48.752   4.817  16.869  0.00  0.00    +0.000 A 
ATOM     11  N   UNL     1      49.040   5.915  16.144  0.00  0.00    +0.000 NA
ATOM     12  C   UNL     1      48.304   6.110  15.021  0.00  0.00    +0.000 A 
ENDBRANCH   5   7
BRANCH   1  13
ATOM     13  C   UNL     1      44.360   3.664  10.766  0.00  0.00    +0.000 C 
BRANCH  13  14
ATOM     14  O   UNL     1      44.233   3.987   9.387  0.00  0.00    +0.000 OA
BRANCH  14  19
ATOM     15  F   UNL     1      47.983   1.439   6.432  0.00  0.00    +0.000 F 
ATOM     16  C   UNL     1      47.058   2.082   7.153  0.00  0.00    +0.000 A 
ATOM     17  C   UNL     1      46.800   3.418   6.978  0.00  0.00    +0.000 A 
ATOM     18  N   UNL     1      45.872   4.096   7.692  0.00  0.00    +0.000 NA
ATOM     19  C   UNL     1      45.193   3.380   8.608  0.00  0.00    +0.000 A 
ATOM     20  N   UNL     1      45.368   2.069   8.854  0.00  0.00    +0.000 NA
ATOM     21  C   UNL     1      46.309   1.445   8.110  0.00  0.00    +0.000 A 
ENDBRANCH  14  19
ENDBRANCH  13  14
ENDBRANCH   1  13
TORSDOF 4
ENDMDL
MODEL 4
REMARK VINA RESULT:    -6.895      2.735      6.450
REMARK INTER + INTRA:          -9.113
REMARK INTER:                  -8.421
REMARK INTRA:                  -0.692
REMARK UNBOUND:                -0.606
REMARK  Name = 
REMARK  4 active torsions:
REMARK  status: ('A' for Active; 'I' for Inactive)
REMARK    1  A    between atoms: C_5  and  O_6
REMARK    2  A    between atoms: O_6  and  C_7
REMARK    3  A    between atoms: C_7  and  C_8
REMARK    4  A    between atoms: C_12  and  C_13
REMARK                            x       y       z     vdW  Elec       q    Type
REMARK                         _______ _______ _______ _____ _____    ______ ____
ROOT
ATOM      1  C   UNL     1      44.160   5.081  11.034  0.00  0.00    +0.000 A 
ATOM      2  C   UNL     1      43.374   4.168  11.744  0.00  0.00    +0.000 A 
ATOM      3  C   UNL     1      43.356   2.826  11.377  0.00  0.00    +0.000 A 
ATOM      4  C   UNL     1      44.128   2.381  10.298  0.00  0.00    +0.000 A 
ATOM      5  C   UNL     1      44.936   3.265   9.561  0.00  0.00    +0.000 A 
ATOM      6  C   UNL     1      44.946   4.615   9.965  0.00  0.00    +0.000 A 
ENDROOT
BRANCH   5   7
ATOM      7  C   UNL     1      45.726   2.801   8.397  0.00  0.00    +0.000 A 
ATOM      8  C   UNL     1      46.024   3.637   7.309  0.00  0.00    +0.000 A 
ATOM      9  C   UNL     1      46.757   3.161   6.223  0.00  0.00    +0.000 A 
ATOM     10  C   UNL     1      47.192   1.849   6.247  0.00  0.00    +0.000 A 
ATOM     11  N   UNL     1      46.935   1.000   7.260  0.00  0.00    +0.000 NA
ATOM     12  C   UNL     1      46.211   1.493   8.296  0.00  0.00    +0.000 A 
ENDBRANCH   5   7
BRANCH   1  13
ATOM     13  C   UNL     1      44.164   6.547  11.405  0.00  0.00    +0.000 C 
BRANCH  13  14
ATOM     14  O   UNL     1      44.739   6.696  12.697  0.00  0.00    +0.000 OA
BRANCH  14  19
ATOM     15  F   UNL     1      50.090   7.500  12.627  0.00  0.00    +0.000 F 
ATOM     16  C   UNL     1      48.766   7.314  12.634  0.00  0.00    +0.000 A 
ATOM     17  C   UNL     1      47.901   8.227  12.085  0.00  0.00    +0.000 A 
ATOM     18  N   UNL     1      46.557   8.068  12.079  0.00  0.00    +0.000 NA
ATOM     19  C   UNL     1      46.093   6.941  12.651  0.00  0.00    +0.000 A 
ATOM     20  N   UNL     1      46.855   5.985  13.212  0.00  0.00    +0.000 NA
ATOM     21  C   UNL     1      48.190   6.199  13.189  0.00  0.00    +0.000 A 
ENDBRANCH  14  19
ENDBRANCH  13  14
ENDBRANCH   1  13
TORSDOF 4
ENDMDL
MODEL 5
REMARK VINA RESULT:    -6.791      4.052      7.562
REMARK INTER + INTRA:          -8.986
REMARK INTER:                  -8.531
REMARK INTRA:                  -0.455
REMARK UNBOUND:                -0.606
REMARK  Name = 
REMARK  4 active torsions:
REMARK  status: ('A' for Active; 'I' for Inactive)
REMARK    1  A    between atoms: C_5  and  O_6
REMARK    2  A    between atoms: O_6  and  C_7
REMARK    3  A    between atoms: C_7  and  C_8
REMARK    4  A    between atoms: C_12  and  C_13
REMARK                            x       y       z     vdW  Elec       q    Type
REMARK                         _______ _______ _______ _____ _____    ______ ____
ROOT
ATOM      1  C   UNL     1      45.239   5.146  12.828  0.00  0.00    +0.000 A 
ATOM      2  C   UNL     1      43.905   5.558  12.897  0.00  0.00    +0.000 A 
ATOM      3  C   UNL     1      43.060   5.377  11.806  0.00  0.00    +0.000 A 
ATOM      4  C   UNL     1      43.540   4.777  10.636  0.00  0.00    +0.000 A 
ATOM      5  C   UNL     1      44.873   4.345  10.527  0.00  0.00    +0.000 A 
ATOM      6  C   UNL     1      45.701   4.527  11.653  0.00  0.00    +0.000 A 
ENDROOT
BRANCH   5   7
ATOM      7  C   UNL     1      45.390   3.743   9.277  0.00  0.00    +0.000 A 
ATOM      8  C   UNL     1      45.489   2.355   9.094  0.00  0.00    +0.000 A 
ATOM      9  C   UNL     1      45.997   1.825   7.908  0.00  0.00    +0.000 A 
ATOM     10  C   UNL     1      46.391   2.700   6.913  0.00  0.00    +0.000 A 
ATOM     11  N   UNL     1      46.323   4.039   7.030  0.00  0.00    +0.000 NA
ATOM     12  C   UNL     1      45.833   4.521   8.202  0.00  0.00    +0.000 A 
ENDBRANCH   5   7
BRANCH   1  13
ATOM     13  C   UNL     1      46.175   5.365  13.996  0.00  0.00    +0.000 C 
BRANCH  13  14
ATOM     14  O   UNL     1      46.461   4.110  14.601  0.00  0.00    +0.000 OA
BRANCH  14  19
ATOM     15  F   UNL     1      49.476   4.435  19.084  0.00  0.00    +0.000 F 
ATOM     16  C   UNL     1      48.741   4.366  17.968  0.00  0.00    +0.000 A 
ATOM     17  C   UNL     1      48.945   5.214  16.910  0.00  0.00    +0.000 A 
ATOM     18  N   UNL     1      48.217   5.169  15.769  0.00  0.00    +0.000 NA
ATOM     19  C   UNL     1      47.257   4.227  15.719  0.00  0.00    +0.000 A 
ATOM     20  N   UNL     1      46.980   3.348  16.698  0.00  0.00    +0.000 NA
ATOM     21  C   UNL     1      47.739   3.440  17.813  0.00  0.00    +0.000 A 
ENDBRANCH  14  19
ENDBRANCH  13  14
ENDBRANCH   1  13
TORSDOF 4
ENDMDL
MODEL 6
REMARK VINA RESULT:    -6.556      2.502      3.662
REMARK INTER + INTRA:          -8.696
REMARK INTER:                  -8.163
REMARK INTRA:                  -0.532
REMARK UNBOUND:                -0.606
REMARK  Name = 
REMARK  4 active torsions:
REMARK  status: ('A' for Active; 'I' for Inactive)
REMARK    1  A    between atoms: C_5  and  O_6
REMARK    2  A    between atoms: O_6  and  C_7
REMARK    3  A    between atoms: C_7  and  C_8
REMARK    4  A    between atoms: C_12  and  C_13
REMARK                            x       y       z     vdW  Elec       q    Type
REMARK                         _______ _______ _______ _____ _____    ______ ____
ROOT
ATOM      1  C   UNL     1      45.810   5.175  12.479  0.00  0.00    +0.000 A 
ATOM      2  C   UNL     1      46.449   6.296  11.942  0.00  0.00    +0.000 A 
ATOM      3  C   UNL     1      47.480   6.916  12.642  0.00  0.00    +0.000 A 
ATOM      4  C   UNL     1      47.885   6.418  13.885  0.00  0.00    +0.000 A 
ATOM      5  C   UNL     1      47.272   5.291  14.459  0.00  0.00    +0.000 A 
ATOM      6  C   UNL     1      46.242   4.675  13.720  0.00  0.00    +0.000 A 
ENDROOT
BRANCH   5   7
ATOM      7  C   UNL     1      47.676   4.785  15.791  0.00  0.00    +0.000 A 
ATOM      8  C   UNL     1      48.512   5.514  16.651  0.00  0.00    +0.000 A 
ATOM      9  C   UNL     1      48.884   4.999  17.893  0.00  0.00    +0.000 A 
ATOM     10  C   UNL     1      48.402   3.756  18.260  0.00  0.00    +0.000 A 
ATOM     11  N   UNL     1      47.599   3.010  17.478  0.00  0.00    +0.000 NA
ATOM     12  C   UNL     1      47.266   3.538  16.272  0.00  0.00    +0.000 A 
ENDBRANCH   5   7
BRANCH   1  13
ATOM     13  C   UNL     1      44.669   4.511  11.741  0.00  0.00    +0.000 C 
BRANCH  13  14
ATOM     14  O   UNL     1      44.633   5.002  10.407  0.00  0.00    +0.000 OA
BRANCH  14  19
ATOM     15  F   UNL     1      46.714   1.637   6.715  0.00  0.00    +0.000 F 
ATOM     16  C   UNL     1      46.197   2.455   7.638  0.00  0.00    +0.000 A 
ATOM     17  C   UNL     1      45.542   1.980   8.745  0.00  0.00    +0.000 A 
ATOM     18  N   UNL     1      45.007   2.784   9.695  0.00  0.00    +0.000 NA
ATOM     19  C   UNL     1      45.150   4.107   9.497  0.00  0.00    +0.000 A 
ATOM     20  N   UNL     1      45.777   4.672   8.450  0.00  0.00    +0.000 NA
ATOM     21  C   UNL     1      46.291   3.821   7.534  0.00  0.00    +0.000 A 
ENDBRANCH  14  19
ENDBRANCH  13  14
ENDBRANCH   1  13
TORSDOF 4
ENDMDL
MODEL 7
REMARK VINA RESULT:    -6.555      2.794      3.698
REMARK INTER + INTRA:          -8.694
REMARK INTER:                  -8.005
REMARK INTRA:                  -0.689
REMARK UNBOUND:                -0.606
REMARK  Name = 
REMARK  4 active torsions:
REMARK  status: ('A' for Active; 'I' for Inactive)
REMARK    1  A    between atoms: C_5  and  O_6
REMARK    2  A    between atoms: O_6  and  C_7
REMARK    3  A    between atoms: C_7  and  C_8
REMARK    4  A    between atoms: C_12  and  C_13
REMARK                            x       y       z     vdW  Elec       q    Type
REMARK                         _______ _______ _______ _____ _____    ______ ____
ROOT
ATOM      1  C   UNL     1      44.745   5.474  12.446  0.00  0.00    +0.000 A 
ATOM      2  C   UNL     1      45.853   4.875  13.051  0.00  0.00    +0.000 A 
ATOM      3  C   UNL     1      46.958   5.644  13.404  0.00  0.00    +0.000 A 
ATOM      4  C   UNL     1      46.964   7.022  13.160  0.00  0.00    +0.000 A 
ATOM      5  C   UNL     1      45.868   7.664  12.558  0.00  0.00    +0.000 A 
ATOM      6  C   UNL     1      44.757   6.862  12.225  0.00  0.00    +0.000 A 
ENDROOT
BRANCH   5   7
ATOM      7  C   UNL     1      45.888   9.116  12.266  0.00  0.00    +0.000 A 
ATOM      8  C   UNL     1      47.082   9.838  12.118  0.00  0.00    +0.000 A 
ATOM      9  C   UNL     1      47.062  11.208  11.859  0.00  0.00    +0.000 A 
ATOM     10  C   UNL     1      45.836  11.836  11.741  0.00  0.00    +0.000 A 
ATOM     11  N   UNL     1      44.658  11.198  11.874  0.00  0.00    +0.000 NA
ATOM     12  C   UNL     1      44.715   9.868  12.136  0.00  0.00    +0.000 A 
ENDBRANCH   5   7
BRANCH   1  13
ATOM     13  C   UNL     1      43.551   4.643  12.031  0.00  0.00    +0.000 C 
BRANCH  13  14
ATOM     14  O   UNL     1      43.308   4.844  10.644  0.00  0.00    +0.000 OA
BRANCH  14  19
ATOM     15  F   UNL     1      46.407   1.615   7.602  0.00  0.00    +0.000 F 
ATOM     16  C   UNL     1      45.646   2.426   8.345  0.00  0.00    +0.000 A 
ATOM     17  C   UNL     1      45.700   3.790   8.218  0.00  0.00    +0.000 A 
ATOM     18  N   UNL     1      44.944   4.637   8.956  0.00  0.00    +0.000 NA
ATOM     19  C   UNL     1      44.112   4.062   9.845  0.00  0.00    +0.000 A 
ATOM     20  N   UNL     1      43.982   2.738  10.043  0.00  0.00    +0.000 NA
ATOM     21  C   UNL     1      44.763   1.943   9.278  0.00  0.00    +0.000 A 
ENDBRANCH  14  19
ENDBRANCH  13  14
ENDBRANCH   1  13
TORSDOF 4
ENDMDL
MODEL 8
REMARK VINA RESULT:    -6.505      2.952      6.624
REMARK INTER + INTRA:          -8.633
REMARK INTER:                  -8.013
REMARK INTRA:                  -0.620
REMARK UNBOUND:                -0.606
REMARK  Name = 
REMARK  4 active torsions:
REMARK  status: ('A' for Active; 'I' for Inactive)
REMARK    1  A    between atoms: C_5  and  O_6
REMARK    2  A    between atoms: O_6  and  C_7
REMARK    3  A    between atoms: C_7  and  C_8
REMARK    4  A    between atoms: C_12  and  C_13
REMARK                            x       y       z     vdW  Elec       q    Type
REMARK                         _______ _______ _______ _____ _____    ______ ____
ROOT
ATOM      1  C   UNL     1      44.375   5.354  11.051  0.00  0.00    +0.000 A 
ATOM      2  C   UNL     1      43.514   4.514  11.764  0.00  0.00    +0.000 A 
ATOM      3  C   UNL     1      43.382   3.177  11.402  0.00  0.00    +0.000 A 
ATOM      4  C   UNL     1      44.114   2.664  10.325  0.00  0.00    +0.000 A 
ATOM      5  C   UNL     1      44.993   3.472   9.584  0.00  0.00    +0.000 A 
ATOM      6  C   UNL     1      45.117   4.819   9.984  0.00  0.00    +0.000 A 
ENDROOT
BRANCH   5   7
ATOM      7  C   UNL     1      45.740   2.939   8.422  0.00  0.00    +0.000 A 
ATOM      8  C   UNL     1      46.176   1.607   8.355  0.00  0.00    +0.000 A 
ATOM      9  C   UNL     1      46.891   1.144   7.250  0.00  0.00    +0.000 A 
ATOM     10  C   UNL     1      47.152   2.027   6.219  0.00  0.00    +0.000 A 
ATOM     11  N   UNL     1      46.762   3.316   6.228  0.00  0.00    +0.000 NA
ATOM     12  C   UNL     1      46.077   3.735   7.322  0.00  0.00    +0.000 A 
ENDBRANCH   5   7
BRANCH   1  13
ATOM     13  C   UNL     1      44.503   6.816  11.416  0.00  0.00    +0.000 C 
BRANCH  13  14
ATOM     14  O   UNL     1      45.347   6.936  12.554  0.00  0.00    +0.000 OA
BRANCH  14  19
ATOM     15  F   UNL     1      49.825   9.786  11.500  0.00  0.00    +0.000 F 
ATOM     16  C   UNL     1      48.727   9.067  11.760  0.00  0.00    +0.000 A 
ATOM     17  C   UNL     1      48.730   7.696  11.717  0.00  0.00    +0.000 A 
ATOM     18  N   UNL     1      47.635   6.942  11.975  0.00  0.00    +0.000 NA
ATOM     19  C   UNL     1      46.512   7.618  12.283  0.00  0.00    +0.000 A 
ATOM     20  N   UNL     1      46.407   8.957  12.355  0.00  0.00    +0.000 NA
ATOM     21  C   UNL     1      47.532   9.658  12.088  0.00  0.00    +0.000 A 
ENDBRANCH  14  19
ENDBRANCH  13  14
ENDBRANCH   1  13
TORSDOF 4
ENDMDL
MODEL 9
REMARK VINA RESULT:    -6.310      4.303      7.810
REMARK INTER + INTRA:          -8.392
REMARK INTER:                  -7.801
REMARK INTRA:                  -0.591
REMARK UNBOUND:                -0.606
REMARK  Name = 
REMARK  4 active torsions:
REMARK  status: ('A' for Active; 'I' for Inactive)
REMARK    1  A    between atoms: C_5  and  O_6
REMARK    2  A    between atoms: O_6  and  C_7
REMARK    3  A    between atoms: C_7  and  C_8
REMARK    4  A    between atoms: C_12  and  C_13
REMARK                            x       y       z     vdW  Elec       q    Type
REMARK                         _______ _______ _______ _____ _____    ______ ____
ROOT
ATOM      1  C   UNL     1      47.015   7.182  13.045  0.00  0.00    +0.000 A 
ATOM      2  C   UNL     1      46.255   8.354  12.999  0.00  0.00    +0.000 A 
ATOM      3  C   UNL     1      45.147   8.437  12.160  0.00  0.00    +0.000 A 
ATOM      4  C   UNL     1      44.786   7.346  11.362  0.00  0.00    +0.000 A 
ATOM      5  C   UNL     1      45.521   6.148  11.381  0.00  0.00    +0.000 A 
ATOM      6  C   UNL     1      46.629   6.088  12.252  0.00  0.00    +0.000 A 
ENDROOT
BRANCH   5   7
ATOM      7  C   UNL     1      45.161   5.006  10.510  0.00  0.00    +0.000 A 
ATOM      8  C   UNL     1      45.567   4.925   9.169  0.00  0.00    +0.000 A 
ATOM      9  C   UNL     1      45.196   3.841   8.374  0.00  0.00    +0.000 A 
ATOM     10  C   UNL     1      44.425   2.843   8.942  0.00  0.00    +0.000 A 
ATOM     11  N   UNL     1      44.004   2.866  10.220  0.00  0.00    +0.000 NA
ATOM     12  C   UNL     1      44.375   3.941  10.962  0.00  0.00    +0.000 A 
ENDBRANCH   5   7
BRANCH   1  13
ATOM     13  C   UNL     1      48.239   7.092  13.930  0.00  0.00    +0.000 C 
BRANCH  13  14
ATOM     14  O   UNL     1      48.407   5.744  14.350  0.00  0.00    +0.000 OA
BRANCH  14  19
ATOM     15  F   UNL     1      47.593   5.220  19.675  0.00  0.00    +0.000 F 
ATOM     16  C   UNL     1      47.782   5.337  18.356  0.00  0.00    +0.000 A 
ATOM     17  C   UNL     1      47.242   4.448  17.463  0.00  0.00    +0.000 A 
ATOM     18  N   UNL     1      47.418   4.540  16.123  0.00  0.00    +0.000 NA
ATOM     19  C   UNL     1      48.168   5.573  15.696  0.00  0.00    +0.000 A 
ATOM     20  N   UNL     1      48.737   6.499  16.488  0.00  0.00    +0.000 NA
ATOM     21  C   UNL     1      48.528   6.355  17.817  0.00  0.00    +0.000 A 
ENDBRANCH  14  19
ENDBRANCH  13  14
ENDBRANCH   1  13
TORSDOF 4
ENDMDL
