MODEL 1
REMARK VINA RESULT:    -8.001      0.000      0.000
REMARK INTER + INTRA:         -12.256
REMARK INTER:                 -11.275
REMARK INTRA:                  -0.982
REMARK UNBOUND:                -0.982
REMARK  Name = 
REMARK  8 active torsions:
REMARK  status: ('A' for Active; 'I' for Inactive)
REMARK    1  A    between atoms: C_1  and  O_2
REMARK    2  A    between atoms: O_2  and  C_3
REMARK    3  A    between atoms: C_8  and  C_9
REMARK    4  A    between atoms: N_11  and  C_12
REMARK    5  A    between atoms: C_12  and  C_13
REMARK    6  A    between atoms: C_16  and  C_17
REMARK    7  A    between atoms: C_17  and  N_18
REMARK    8  A    between atoms: C_19  and  C_21
REMARK                            x       y       z     vdW  Elec       q    Type
REMARK                         _______ _______ _______ _____ _____    ______ ____
ROOT
ATOM      1  C   UNL     1      44.780   5.312  10.727  0.00  0.00    +0.000 A 
ATOM      2  C   UNL     1      44.266   5.687  11.975  0.00  0.00    +0.000 A 
ATOM      3  C   UNL     1      44.965   6.584  12.793  0.00  0.00    +0.000 A 
ATOM      4  C   UNL     1      46.181   7.138  12.371  0.00  0.00    +0.000 A 
ATOM      5  C   UNL     1      46.684   6.772  11.115  0.00  0.00    +0.000 A 
ATOM      6  C   UNL     1      45.988   5.877  10.298  0.00  0.00    +0.000 A 
ENDROOT
BRANCH   1   7
ATOM      7  C   UNL     1      44.058   4.310   9.864  0.00  0.00    +0.000 C 
BRANCH   7  10
ATOM      8  C   UNL     1      45.472   2.732   8.633  0.00  0.00    +0.000 C 
ATOM      9  O   UNL     1      45.417   1.919   9.553  0.00  0.00    +0.000 OA
ATOM     10  N   UNL     1      44.816   3.940   8.694  0.00  0.00    +0.000 N 
ATOM     11  H   UNL     1      44.920   4.604   7.933  0.00  0.00    +0.000 HD
BRANCH   8  17
ATOM     12  C   UNL     1      46.874   1.178   7.129  0.00  0.00    +0.000 A 
ATOM     13  C   UNL     1      47.568   1.070   5.924  0.00  0.00    +0.000 A 
ATOM     14  N   UNL     1      47.739   2.077   5.035  0.00  0.00    +0.000 NA
ATOM     15  C   UNL     1      47.175   3.259   5.343  0.00  0.00    +0.000 A 
ATOM     16  C   UNL     1      46.443   3.471   6.497  0.00  0.00    +0.000 A 
ATOM     17  C   UNL     1      46.277   2.415   7.409  0.00  0.00    +0.000 A 
BRANCH  12  19
ATOM     18  C   UNL     1      46.753  -1.168   7.417  0.00  0.00    +0.000 C 
ATOM     19  O   UNL     1      46.717   0.134   8.002  0.00  0.00    +0.000 OA
ENDBRANCH  12  19
ENDBRANCH   8  17
ENDBRANCH   7  10
ENDBRANCH   1   7
BRANCH   4  20
ATOM     20  C   UNL     1      46.965   8.070  13.259  0.00  0.00    +0.000 C 
BRANCH  20  21
ATOM     21  N   UNL     1      47.391   7.411  14.469  0.00  0.00    +0.000 N 
ATOM     22  C   UNL     1      48.642   6.860  14.569  0.00  0.00    +0.000 C 
ATOM     23  O   UNL     1      49.468   6.954  13.664  0.00  0.00    +0.000 OA
ATOM     24  H   UNL     1      46.667   7.135  15.126  0.00  0.00    +0.000 HD
BRANCH  22  25
ATOM     25  C   UNL     1      48.975   6.193  15.836  0.00  0.00    +0.000 A 
ATOM     26  C   UNL     1      50.041   6.659  16.596  0.00  0.00    +0.000 A 
ATOM     27  S   UNL     1      50.274   5.799  18.051  0.00  0.00    +0.000 S 
ATOM     28  C   UNL     1      48.992   4.740  17.693  0.00  0.00    +0.000 A 
ATOM     29  N   UNL     1      48.675   3.719  18.536  0.00  0.00    +0.000 NA
ATOM     30  C   UNL     1      47.704   2.973  18.126  0.00  0.00    +0.000 A 
ATOM     31  N   UNL     1      47.017   3.158  16.954  0.00  0.00    +0.000 N 
ATOM     32  C   UNL     1      47.280   4.196  16.090  0.00  0.00    +0.000 A 
ATOM     33  O   UNL     1      46.615   4.363  15.074  0.00  0.00    +0.000 OA
ATOM     34  C   UNL     1      48.378   5.052  16.494  0.00  0.00    +0.000 A 
ATOM     35  H   UNL     1      46.258   2.545  16.697  0.00  0.00    +0.000 HD
ENDBRANCH  22  25
ENDBRANCH  20  21
ENDBRANCH   4  20
TORSDOF 7
ENDMDL
MODEL 2
REMARK VINA RESULT:    -7.346      3.356      9.011
REMARK INTER + INTRA:         -11.333
REMARK INTER:                 -10.122
REMARK INTRA:                  -1.211
REMARK UNBOUND:                -0.982
REMARK  Name = 
REMARK  8 active torsions:
REMARK  status: ('A' for Active; 'I' for Inactive)
REMARK    1  A    between atoms: C_1  and  O_2
REMARK    2  A    between atoms: O_2  and  C_3
REMARK    3  A    between atoms: C_8  and  C_9
REMARK    4  A    between atoms: N_11  and  C_12
REMARK    5  A    between atoms: C_12  and  C_13
REMARK    6  A    between atoms: C_16  and  C_17
REMARK    7  A    between atoms: C_17  and  N_18
REMARK    8  A    between atoms: C_19  and  C_21
REMARK                            x       y       z     vdW  Elec       q    Type
REMARK                         _______ _______ _______ _____ _____    ______ ____
ROOT
ATOM      1  C   UNL     1      50.567   7.417  15.332  0.00  0.00    +0.000 A 
ATOM      2  C   UNL     1      50.961   8.075  14.160  0.00  0.00    +0.000 A 
ATOM      3  C   UNL     1      50.063   8.241  13.098  0.00  0.00    +0.000 A 
ATOM      4  C   UNL     1      48.747   7.769  13.195  0.00  0.00    +0.000 A 
ATOM      5  C   UNL     1      48.351   7.125  14.375  0.00  0.00    +0.000 A 
ATOM      6  C   UNL     1      49.247   6.958  15.435  0.00  0.00    +0.000 A 
ENDROOT
BRANCH   1   7
ATOM      7  C   UNL     1      51.542   7.191  16.457  0.00  0.00    +0.000 C 
BRANCH   7  10
ATOM      8  C   UNL     1      51.367   5.064  17.660  0.00  0.00    +0.000 C 
ATOM      9  O   UNL     1      50.579   5.551  18.467  0.00  0.00    +0.000 OA
ATOM     10  N   UNL     1      51.887   5.800  16.620  0.00  0.00    +0.000 N 
ATOM     11  H   UNL     1      52.568   5.375  15.999  0.00  0.00    +0.000 HD
BRANCH   8  17
ATOM     12  C   UNL     1      51.078   2.525  17.320  0.00  0.00    +0.000 A 
ATOM     13  C   UNL     1      51.644   1.269  17.533  0.00  0.00    +0.000 A 
ATOM     14  N   UNL     1      52.798   1.042  18.204  0.00  0.00    +0.000 NA
ATOM     15  C   UNL     1      53.444   2.123  18.678  0.00  0.00    +0.000 A 
ATOM     16  C   UNL     1      52.989   3.416  18.501  0.00  0.00    +0.000 A 
ATOM     17  C   UNL     1      51.789   3.633  17.804  0.00  0.00    +0.000 A 
BRANCH  12  19
ATOM     18  C   UNL     1      48.719   2.686  17.418  0.00  0.00    +0.000 C 
ATOM     19  O   UNL     1      49.909   2.717  16.630  0.00  0.00    +0.000 OA
ENDBRANCH  12  19
ENDBRANCH   8  17
ENDBRANCH   7  10
ENDBRANCH   1   7
BRANCH   4  20
ATOM     20  C   UNL     1      47.783   7.902  12.044  0.00  0.00    +0.000 C 
BRANCH  20  21
ATOM     21  N   UNL     1      47.043   6.682  11.833  0.00  0.00    +0.000 N 
ATOM     22  C   UNL     1      45.676   6.661  11.933  0.00  0.00    +0.000 C 
ATOM     23  O   UNL     1      45.023   7.680  12.146  0.00  0.00    +0.000 OA
ATOM     24  H   UNL     1      47.563   5.811  11.876  0.00  0.00    +0.000 HD
BRANCH  22  25
ATOM     25  C   UNL     1      45.014   5.365  11.720  0.00  0.00    +0.000 A 
ATOM     26  C   UNL     1      44.316   4.771  12.765  0.00  0.00    +0.000 A 
ATOM     27  S   UNL     1      43.581   3.291  12.346  0.00  0.00    +0.000 S 
ATOM     28  C   UNL     1      44.210   3.363  10.767  0.00  0.00    +0.000 A 
ATOM     29  N   UNL     1      43.978   2.360   9.877  0.00  0.00    +0.000 NA
ATOM     30  C   UNL     1      44.543   2.527   8.728  0.00  0.00    +0.000 A 
ATOM     31  N   UNL     1      45.313   3.608   8.386  0.00  0.00    +0.000 N 
ATOM     32  C   UNL     1      45.546   4.660   9.241  0.00  0.00    +0.000 A 
ATOM     33  O   UNL     1      46.199   5.636   8.887  0.00  0.00    +0.000 OA
ATOM     34  C   UNL     1      44.951   4.512  10.554  0.00  0.00    +0.000 A 
ATOM     35  H   UNL     1      45.717   3.684   7.464  0.00  0.00    +0.000 HD
ENDBRANCH  22  25
ENDBRANCH  20  21
ENDBRANCH   4  20
TORSDOF 7
ENDMDL
MODEL 3
REMARK VINA RESULT:    -7.114      4.005      8.811
REMARK INTER + INTRA:         -11.007
REMARK INTER:                  -9.720
REMARK INTRA:                  -1.287
REMARK UNBOUND:                -0.982
REMARK  Name = 
REMARK  8 active torsions:
REMARK  status: ('A' for Active; 'I' for Inactive)
REMARK    1  A    between atoms: C_1  and  O_2
REMARK    2  A    between atoms: O_2  and  C_3
REMARK    3  A    between atoms: C_8  and  C_9
REMARK    4  A    between atoms: N_11  and  C_12
REMARK    5  A    between atoms: C_12  and  C_13
REMARK    6  A    between atoms: C_16  and  C_17
REMARK    7  A    between atoms: C_17  and  N_18
REMARK    8  A    between atoms: C_19  and  C_21
REMARK                            x       y       z     vdW  Elec       q    Type
REMARK                         _______ _______ _______ _____ _____    ______ ____
ROOT
ATOM      1  C   UNL     1      50.228   7.166  15.771  0.00  0.00    +0.000 A 
ATOM      2  C   UNL     1      48.944   6.674  15.501  0.00  0.00    +0.000 A 
ATOM      3  C   UNL     1      48.302   6.980  14.294  0.00  0.00    +0.000 A 
ATOM      4  C   UNL     1      48.939   7.767  13.326  0.00  0.00    +0.000 A 
ATOM      5  C   UNL     1      50.229   8.245  13.592  0.00  0.00    +0.000 A 
ATOM      6  C   UNL     1      50.871   7.941  14.796  0.00  0.00    +0.000 A 
ENDROOT
BRANCH   1   7
ATOM      7  C   UNL     1      50.903   6.881  17.087  0.00  0.00    +0.000 C 
BRANCH   7  10
ATOM      8  C   UNL     1      52.239   4.850  17.398  0.00  0.00    +0.000 C 
ATOM      9  O   UNL     1      53.283   5.475  17.227  0.00  0.00    +0.000 OA
ATOM     10  N   UNL     1      51.010   5.469  17.360  0.00  0.00    +0.000 N 
ATOM     11  H   UNL     1      50.167   4.913  17.463  0.00  0.00    +0.000 HD
BRANCH   8  17
ATOM     12  C   UNL     1      51.277   2.460  17.313  0.00  0.00    +0.000 A 
ATOM     13  C   UNL     1      51.517   1.119  17.607  0.00  0.00    +0.000 A 
ATOM     14  N   UNL     1      52.627   0.645  18.223  0.00  0.00    +0.000 NA
ATOM     15  C   UNL     1      53.567   1.549  18.553  0.00  0.00    +0.000 A 
ATOM     16  C   UNL     1      53.447   2.900  18.285  0.00  0.00    +0.000 A 
ATOM     17  C   UNL     1      52.288   3.373  17.647  0.00  0.00    +0.000 A 
BRANCH  12  19
ATOM     18  C   UNL     1      48.912   2.473  17.264  0.00  0.00    +0.000 C 
ATOM     19  O   UNL     1      50.143   2.902  16.684  0.00  0.00    +0.000 OA
ENDBRANCH  12  19
ENDBRANCH   8  17
ENDBRANCH   7  10
ENDBRANCH   1   7
BRANCH   4  20
ATOM     20  C   UNL     1      48.243   8.141  12.041  0.00  0.00    +0.000 C 
BRANCH  20  21
ATOM     21  N   UNL     1      47.572   7.006  11.457  0.00  0.00    +0.000 N 
ATOM     22  C   UNL     1      46.204   6.955  11.388  0.00  0.00    +0.000 C 
ATOM     23  O   UNL     1      45.498   7.888  11.763  0.00  0.00    +0.000 OA
ATOM     24  H   UNL     1      48.112   6.153  11.349  0.00  0.00    +0.000 HD
BRANCH  22  25
ATOM     25  C   UNL     1      45.613   5.747  10.792  0.00  0.00    +0.000 A 
ATOM     26  C   UNL     1      45.762   5.511   9.431  0.00  0.00    +0.000 A 
ATOM     27  S   UNL     1      45.049   4.054   8.904  0.00  0.00    +0.000 S 
ATOM     28  C   UNL     1      44.472   3.709  10.466  0.00  0.00    +0.000 A 
ATOM     29  N   UNL     1      43.731   2.593  10.705  0.00  0.00    +0.000 NA
ATOM     30  C   UNL     1      43.329   2.472  11.926  0.00  0.00    +0.000 A 
ATOM     31  N   UNL     1      43.606   3.362  12.931  0.00  0.00    +0.000 N 
ATOM     32  C   UNL     1      44.378   4.485  12.744  0.00  0.00    +0.000 A 
ATOM     33  O   UNL     1      44.649   5.236  13.675  0.00  0.00    +0.000 OA
ATOM     34  C   UNL     1      44.838   4.679  11.382  0.00  0.00    +0.000 A 
ATOM     35  H   UNL     1      43.271   3.203  13.870  0.00  0.00    +0.000 HD
ENDBRANCH  22  25
ENDBRANCH  20  21
ENDBRANCH   4  20
TORSDOF 7
ENDMDL
MODEL 4
REMARK VINA RESULT:    -6.992      3.027      4.871
REMARK INTER + INTRA:         -10.834
REMARK INTER:                  -9.475
REMARK INTRA:                  -1.360
REMARK UNBOUND:                -0.982
REMARK  Name = 
REMARK  8 active torsions:
REMARK  status: ('A' for Active; 'I' for Inactive)
REMARK    1  A    between atoms: C_1  and  O_2
REMARK    2  A    between atoms: O_2  and  C_3
REMARK    3  A    between atoms: C_8  and  C_9
REMARK    4  A    between atoms: N_11  and  C_12
REMARK    5  A    between atoms: C_12  and  C_13
REMARK    6  A    between atoms: C_16  and  C_17
REMARK    7  A    between atoms: C_17  and  N_18
REMARK    8  A    between atoms: C_19  and  C_21
REMARK                            x       y       z     vdW  Elec       q    Type
REMARK                         _______ _______ _______ _____ _____    ______ ____
ROOT
ATOM      1  C   UNL     1      47.831   7.761  13.180  0.00  0.00    +0.000 A 
ATOM      2  C   UNL     1      47.881   8.930  13.949  0.00  0.00    +0.000 A 
ATOM      3  C   UNL     1      48.367   8.900  15.262  0.00  0.00    +0.000 A 
ATOM      4  C   UNL     1      48.831   7.703  15.825  0.00  0.00    +0.000 A 
ATOM      5  C   UNL     1      48.794   6.538  15.048  0.00  0.00    +0.000 A 
ATOM      6  C   UNL     1      48.309   6.567  13.737  0.00  0.00    +0.000 A 
ENDROOT
BRANCH   1   7
ATOM      7  C   UNL     1      47.263   7.777  11.785  0.00  0.00    +0.000 C 
BRANCH   7  10
ATOM      8  C   UNL     1      45.317   6.337  11.401  0.00  0.00    +0.000 C 
ATOM      9  O   UNL     1      44.547   7.252  11.685  0.00  0.00    +0.000 OA
ATOM     10  N   UNL     1      46.683   6.511  11.409  0.00  0.00    +0.000 N 
ATOM     11  H   UNL     1      47.288   5.721  11.210  0.00  0.00    +0.000 HD
BRANCH   8  17
ATOM     12  C   UNL     1      44.901   4.370   9.788  0.00  0.00    +0.000 A 
ATOM     13  C   UNL     1      44.340   3.101   9.650  0.00  0.00    +0.000 A 
ATOM     14  N   UNL     1      43.649   2.450  10.616  0.00  0.00    +0.000 NA
ATOM     15  C   UNL     1      43.519   3.080  11.797  0.00  0.00    +0.000 A 
ATOM     16  C   UNL     1      44.058   4.327  12.053  0.00  0.00    +0.000 A 
ATOM     17  C   UNL     1      44.770   4.989  11.039  0.00  0.00    +0.000 A 
BRANCH  12  19
ATOM     18  C   UNL     1      46.277   4.133   7.878  0.00  0.00    +0.000 C 
ATOM     19  O   UNL     1      45.598   4.997   8.789  0.00  0.00    +0.000 OA
ENDBRANCH  12  19
ENDBRANCH   8  17
ENDBRANCH   7  10
ENDBRANCH   1   7
BRANCH   4  20
ATOM     20  C   UNL     1      49.317   7.647  17.252  0.00  0.00    +0.000 C 
BRANCH  20  21
ATOM     21  N   UNL     1      50.252   6.568  17.448  0.00  0.00    +0.000 N 
ATOM     22  C   UNL     1      50.420   5.996  18.683  0.00  0.00    +0.000 C 
ATOM     23  O   UNL     1      49.746   6.334  19.652  0.00  0.00    +0.000 OA
ATOM     24  H   UNL     1      50.959   6.430  16.731  0.00  0.00    +0.000 HD
BRANCH  22  25
ATOM     25  C   UNL     1      51.412   4.915  18.785  0.00  0.00    +0.000 A 
ATOM     26  C   UNL     1      52.585   5.127  19.500  0.00  0.00    +0.000 A 
ATOM     27  S   UNL     1      53.613   3.767  19.551  0.00  0.00    +0.000 S 
ATOM     28  C   UNL     1      52.552   2.862  18.577  0.00  0.00    +0.000 A 
ATOM     29  N   UNL     1      52.860   1.589  18.207  0.00  0.00    +0.000 NA
ATOM     30  C   UNL     1      51.984   1.031  17.440  0.00  0.00    +0.000 A 
ATOM     31  N   UNL     1      50.825   1.627  17.016  0.00  0.00    +0.000 N 
ATOM     32  C   UNL     1      50.457   2.897  17.392  0.00  0.00    +0.000 A 
ATOM     33  O   UNL     1      49.389   3.384  17.035  0.00  0.00    +0.000 OA
ATOM     34  C   UNL     1      51.418   3.577  18.237  0.00  0.00    +0.000 A 
ATOM     35  H   UNL     1      50.174   1.130  16.425  0.00  0.00    +0.000 HD
ENDBRANCH  22  25
ENDBRANCH  20  21
ENDBRANCH   4  20
TORSDOF 7
ENDMDL
MODEL 5
REMARK VINA RESULT:    -6.819      3.259      9.692
REMARK INTER + INTRA:         -10.591
REMARK INTER:                  -9.098
REMARK INTRA:                  -1.493
REMARK UNBOUND:                -0.982
REMARK  Name = 
REMARK  8 active torsions:
REMARK  status: ('A' for Active; 'I' for Inactive)
REMARK    1  A    between atoms: C_1  and  O_2
REMARK    2  A    between atoms: O_2  and  C_3
REMARK    3  A    between atoms: C_8  and  C_9
REMARK    4  A    between atoms: N_11  and  C_12
REMARK    5  A    between atoms: C_12  and  C_13
REMARK    6  A    between atoms: C_16  and  C_17
REMARK    7  A    between atoms: C_17  and  N_18
REMARK    8  A    between atoms: C_19  and  C_21
REMARK                            x       y       z     vdW  Elec       q    Type
REMARK                         _______ _______ _______ _____ _____    ______ ____
ROOT
ATOM      1  C   UNL     1      49.070   8.946  15.797  0.00  0.00    +0.000 A 
ATOM      2  C   UNL     1      48.741   9.951  14.879  0.00  0.00    +0.000 A 
ATOM      3  C   UNL     1      48.416   9.629  13.555  0.00  0.00    +0.000 A 
ATOM      4  C   UNL     1      48.396   8.293  13.129  0.00  0.00    +0.000 A 
ATOM      5  C   UNL     1      48.710   7.289  14.054  0.00  0.00    +0.000 A 
ATOM      6  C   UNL     1      49.035   7.610  15.376  0.00  0.00    +0.000 A 
ENDROOT
BRANCH   1   7
ATOM      7  C   UNL     1      49.468   9.290  17.209  0.00  0.00    +0.000 C 
BRANCH   7  10
ATOM      8  C   UNL     1      48.283   7.887  18.832  0.00  0.00    +0.000 C 
ATOM      9  O   UNL     1      47.279   8.590  18.751  0.00  0.00    +0.000 OA
ATOM     10  N   UNL     1      49.414   8.150  18.092  0.00  0.00    +0.000 N 
ATOM     11  H   UNL     1      50.238   7.572  18.216  0.00  0.00    +0.000 HD
BRANCH   8  17
ATOM     12  C   UNL     1      48.695   5.411  19.419  0.00  0.00    +0.000 A 
ATOM     13  C   UNL     1      48.657   4.452  20.431  0.00  0.00    +0.000 A 
ATOM     14  N   UNL     1      48.226   4.676  21.695  0.00  0.00    +0.000 NA
ATOM     15  C   UNL     1      47.826   5.926  21.986  0.00  0.00    +0.000 A 
ATOM     16  C   UNL     1      47.847   6.961  21.069  0.00  0.00    +0.000 A 
ATOM     17  C   UNL     1      48.295   6.711  19.761  0.00  0.00    +0.000 A 
BRANCH  12  19
ATOM     18  C   UNL     1      48.188   4.553  17.273  0.00  0.00    +0.000 C 
ATOM     19  O   UNL     1      49.143   5.149  18.151  0.00  0.00    +0.000 OA
ENDBRANCH  12  19
ENDBRANCH   8  17
ENDBRANCH   7  10
ENDBRANCH   1   7
BRANCH   4  20
ATOM     20  C   UNL     1      48.091   7.935  11.696  0.00  0.00    +0.000 C 
BRANCH  20  21
ATOM     21  N   UNL     1      47.290   6.739  11.611  0.00  0.00    +0.000 N 
ATOM     22  C   UNL     1      45.926   6.795  11.727  0.00  0.00    +0.000 C 
ATOM     23  O   UNL     1      45.326   7.860  11.847  0.00  0.00    +0.000 OA
ATOM     24  H   UNL     1      47.769   5.852  11.732  0.00  0.00    +0.000 HD
BRANCH  22  25
ATOM     25  C   UNL     1      45.199   5.518  11.646  0.00  0.00    +0.000 A 
ATOM     26  C   UNL     1      44.534   5.036  12.766  0.00  0.00    +0.000 A 
ATOM     27  S   UNL     1      43.715   3.565  12.498  0.00  0.00    +0.000 S 
ATOM     28  C   UNL     1      44.262   3.491  10.889  0.00  0.00    +0.000 A 
ATOM     29  N   UNL     1      43.940   2.437  10.090  0.00  0.00    +0.000 NA
ATOM     30  C   UNL     1      44.450   2.493   8.905  0.00  0.00    +0.000 A 
ATOM     31  N   UNL     1      45.245   3.509   8.444  0.00  0.00    +0.000 N 
ATOM     32  C   UNL     1      45.569   4.609   9.204  0.00  0.00    +0.000 A 
ATOM     33  O   UNL     1      46.242   5.525   8.745  0.00  0.00    +0.000 OA
ATOM     34  C   UNL     1      45.038   4.586  10.553  0.00  0.00    +0.000 A 
ATOM     35  H   UNL     1      45.603   3.499   7.500  0.00  0.00    +0.000 HD
ENDBRANCH  22  25
ENDBRANCH  20  21
ENDBRANCH   4  20
TORSDOF 7
ENDMDL
MODEL 6
REMARK VINA RESULT:    -6.551      5.369      8.425
REMARK INTER + INTRA:         -10.213
REMARK INTER:                  -9.051
REMARK INTRA:                  -1.163
REMARK UNBOUND:                -0.982
REMARK  Name = 
REMARK  8 active torsions:
REMARK  status: ('A' for Active; 'I' for Inactive)
REMARK    1  A    between atoms: C_1  and  O_2
REMARK    2  A    between atoms: O_2  and  C_3
REMARK    3  A    between atoms: C_8  and  C_9
REMARK    4  A    between atoms: N_11  and  C_12
REMARK    5  A    between atoms: C_12  and  C_13
REMARK    6  A    between atoms: C_16  and  C_17
REMARK    7  A    between atoms: C_17  and  N_18
REMARK    8  A    between atoms: C_19  and  C_21
REMARK                            x       y       z     vdW  Elec       q    Type
REMARK                         _______ _______ _______ _____ _____    ______ ____
ROOT
ATOM      1  C   UNL     1      49.113   7.240  13.572  0.00  0.00    +0.000 A 
ATOM      2  C   UNL     1      49.169   7.154  12.175  0.00  0.00    +0.000 A 
ATOM      3  C   UNL     1      50.087   7.923  11.449  0.00  0.00    +0.000 A 
ATOM      4  C   UNL     1      50.981   8.779  12.108  0.00  0.00    +0.000 A 
ATOM      5  C   UNL     1      50.933   8.850  13.506  0.00  0.00    +0.000 A 
ATOM      6  C   UNL     1      50.017   8.083  14.232  0.00  0.00    +0.000 A 
ENDROOT
BRANCH   1   7
ATOM      7  C   UNL     1      48.095   6.452  14.355  0.00  0.00    +0.000 C 
BRANCH   7  10
ATOM      8  C   UNL     1      46.295   4.910  13.732  0.00  0.00    +0.000 C 
ATOM      9  O   UNL     1      46.676   4.085  14.559  0.00  0.00    +0.000 OA
ATOM     10  N   UNL     1      46.931   6.120  13.570  0.00  0.00    +0.000 N 
ATOM     11  H   UNL     1      46.613   6.759  12.848  0.00  0.00    +0.000 HD
BRANCH   8  17
ATOM     12  C   UNL     1      44.214   5.550  12.352  0.00  0.00    +0.000 A 
ATOM     13  C   UNL     1      43.185   5.070  11.543  0.00  0.00    +0.000 A 
ATOM     14  N   UNL     1      42.970   3.764  11.253  0.00  0.00    +0.000 NA
ATOM     15  C   UNL     1      43.834   2.878  11.779  0.00  0.00    +0.000 A 
ATOM     16  C   UNL     1      44.906   3.244  12.572  0.00  0.00    +0.000 A 
ATOM     17  C   UNL     1      45.113   4.602  12.863  0.00  0.00    +0.000 A 
BRANCH  12  19
ATOM     18  C   UNL     1      44.652   7.705  11.481  0.00  0.00    +0.000 C 
ATOM     19  O   UNL     1      44.403   6.880  12.619  0.00  0.00    +0.000 OA
ENDBRANCH  12  19
ENDBRANCH   8  17
ENDBRANCH   7  10
ENDBRANCH   1   7
BRANCH   4  20
ATOM     20  C   UNL     1      51.944   9.645  11.337  0.00  0.00    +0.000 C 
BRANCH  20  21
ATOM     21  N   UNL     1      52.195   9.112  10.020  0.00  0.00    +0.000 N 
ATOM     22  C   UNL     1      53.423   8.603   9.688  0.00  0.00    +0.000 C 
ATOM     23  O   UNL     1      54.337   8.523  10.505  0.00  0.00    +0.000 OA
ATOM     24  H   UNL     1      51.541   9.366   9.286  0.00  0.00    +0.000 HD
BRANCH  22  25
ATOM     25  C   UNL     1      53.585   8.101   8.315  0.00  0.00    +0.000 A 
ATOM     26  C   UNL     1      53.613   9.000   7.256  0.00  0.00    +0.000 A 
ATOM     27  S   UNL     1      53.840   8.263   5.735  0.00  0.00    +0.000 S 
ATOM     28  C   UNL     1      53.858   6.711   6.430  0.00  0.00    +0.000 A 
ATOM     29  N   UNL     1      53.987   5.600   5.654  0.00  0.00    +0.000 NA
ATOM     30  C   UNL     1      53.950   4.487   6.307  0.00  0.00    +0.000 A 
ATOM     31  N   UNL     1      53.803   4.383   7.666  0.00  0.00    +0.000 N 
ATOM     32  C   UNL     1      53.703   5.478   8.493  0.00  0.00    +0.000 A 
ATOM     33  O   UNL     1      53.621   5.353   9.710  0.00  0.00    +0.000 OA
ATOM     34  C   UNL     1      53.717   6.755   7.805  0.00  0.00    +0.000 A 
ATOM     35  H   UNL     1      53.794   3.481   8.118  0.00  0.00    +0.000 HD
ENDBRANCH  22  25
ENDBRANCH  20  21
ENDBRANCH   4  20
TORSDOF 7
ENDMDL
MODEL 7
REMARK VINA RESULT:    -6.524      5.340      7.868
REMARK INTER + INTRA:         -10.175
REMARK INTER:                  -8.932
REMARK INTRA:                  -1.242
REMARK UNBOUND:                -0.982
REMARK  Name = 
REMARK  8 active torsions:
REMARK  status: ('A' for Active; 'I' for Inactive)
REMARK    1  A    between atoms: C_1  and  O_2
REMARK    2  A    between atoms: O_2  and  C_3
REMARK    3  A    between atoms: C_8  and  C_9
REMARK    4  A    between atoms: N_11  and  C_12
REMARK    5  A    between atoms: C_12  and  C_13
REMARK    6  A    between atoms: C_16  and  C_17
REMARK    7  A    between atoms: C_17  and  N_18
REMARK    8  A    between atoms: C_19  and  C_21
REMARK                            x       y       z     vdW  Elec       q    Type
REMARK                         _______ _______ _______ _____ _____    ______ ____
ROOT
ATOM      1  C   UNL     1      50.816   8.886  11.425  0.00  0.00    +0.000 A 
ATOM      2  C   UNL     1      50.221   7.622  11.335  0.00  0.00    +0.000 A 
ATOM      3  C   UNL     1      48.872   7.443  11.665  0.00  0.00    +0.000 A 
ATOM      4  C   UNL     1      48.086   8.530  12.073  0.00  0.00    +0.000 A 
ATOM      5  C   UNL     1      48.680   9.797  12.147  0.00  0.00    +0.000 A 
ATOM      6  C   UNL     1      50.027   9.976  11.818  0.00  0.00    +0.000 A 
ENDROOT
BRANCH   1   7
ATOM      7  C   UNL     1      52.279   9.076  11.120  0.00  0.00    +0.000 C 
BRANCH   7  10
ATOM      8  C   UNL     1      53.053   9.199   8.798  0.00  0.00    +0.000 C 
ATOM      9  O   UNL     1      53.098  10.426   8.847  0.00  0.00    +0.000 OA
ATOM     10  N   UNL     1      52.672   8.444   9.884  0.00  0.00    +0.000 N 
ATOM     11  H   UNL     1      52.607   7.435   9.793  0.00  0.00    +0.000 HD
BRANCH   8  17
ATOM     12  C   UNL     1      54.190   7.326   7.440  0.00  0.00    +0.000 A 
ATOM     13  C   UNL     1      54.401   6.802   6.165  0.00  0.00    +0.000 A 
ATOM     14  N   UNL     1      53.951   7.357   5.015  0.00  0.00    +0.000 NA
ATOM     15  C   UNL     1      53.231   8.487   5.129  0.00  0.00    +0.000 A 
ATOM     16  C   UNL     1      52.938   9.079   6.343  0.00  0.00    +0.000 A 
ATOM     17  C   UNL     1      53.415   8.491   7.527  0.00  0.00    +0.000 A 
BRANCH  12  19
ATOM     18  C   UNL     1      54.199   5.402   8.818  0.00  0.00    +0.000 C 
ATOM     19  O   UNL     1      54.658   6.734   8.584  0.00  0.00    +0.000 OA
ENDBRANCH  12  19
ENDBRANCH   8  17
ENDBRANCH   7  10
ENDBRANCH   1   7
BRANCH   4  20
ATOM     20  C   UNL     1      46.644   8.344  12.473  0.00  0.00    +0.000 C 
BRANCH  20  21
ATOM     21  N   UNL     1      46.198   6.995  12.226  0.00  0.00    +0.000 N 
ATOM     22  C   UNL     1      44.999   6.751  11.608  0.00  0.00    +0.000 C 
ATOM     23  O   UNL     1      44.287   7.660  11.188  0.00  0.00    +0.000 OA
ATOM     24  H   UNL     1      46.653   6.254  12.750  0.00  0.00    +0.000 HD
BRANCH  22  25
ATOM     25  C   UNL     1      44.624   5.341  11.420  0.00  0.00    +0.000 A 
ATOM     26  C   UNL     1      43.903   4.686  12.411  0.00  0.00    +0.000 A 
ATOM     27  S   UNL     1      43.519   3.070  12.025  0.00  0.00    +0.000 S 
ATOM     28  C   UNL     1      44.346   3.171  10.542  0.00  0.00    +0.000 A 
ATOM     29  N   UNL     1      44.431   2.092   9.716  0.00  0.00    +0.000 NA
ATOM     30  C   UNL     1      45.116   2.298   8.641  0.00  0.00    +0.000 A 
ATOM     31  N   UNL     1      45.716   3.486   8.313  0.00  0.00    +0.000 N 
ATOM     32  C   UNL     1      45.627   4.611   9.099  0.00  0.00    +0.000 A 
ATOM     33  O   UNL     1      46.134   5.673   8.753  0.00  0.00    +0.000 OA
ATOM     34  C   UNL     1      44.886   4.427  10.332  0.00  0.00    +0.000 A 
ATOM     35  H   UNL     1      46.227   3.586   7.448  0.00  0.00    +0.000 HD
ENDBRANCH  22  25
ENDBRANCH  20  21
ENDBRANCH   4  20
TORSDOF 7
ENDMDL
MODEL 8
REMARK VINA RESULT:    -6.206      5.273      8.123
REMARK INTER + INTRA:          -9.727
REMARK INTER:                  -8.337
REMARK INTRA:                  -1.390
REMARK UNBOUND:                -0.982
REMARK  Name = 
REMARK  8 active torsions:
REMARK  status: ('A' for Active; 'I' for Inactive)
REMARK    1  A    between atoms: C_1  and  O_2
REMARK    2  A    between atoms: O_2  and  C_3
REMARK    3  A    between atoms: C_8  and  C_9
REMARK    4  A    between atoms: N_11  and  C_12
REMARK    5  A    between atoms: C_12  and  C_13
REMARK    6  A    between atoms: C_16  and  C_17
REMARK    7  A    between atoms: C_17  and  N_18
REMARK    8  A    between atoms: C_19  and  C_21
REMARK                            x       y       z     vdW  Elec       q    Type
REMARK                         _______ _______ _______ _____ _____    ______ ____
ROOT
ATOM      1  C   UNL     1      47.691   8.107  12.907  0.00  0.00    +0.000 A 
ATOM      2  C   UNL     1      48.623   8.376  13.917  0.00  0.00    +0.000 A 
ATOM      3  C   UNL     1      49.995   8.396  13.635  0.00  0.00    +0.000 A 
ATOM      4  C   UNL     1      50.460   8.167  12.333  0.00  0.00    +0.000 A 
ATOM      5  C   UNL     1      49.524   7.913  11.321  0.00  0.00    +0.000 A 
ATOM      6  C   UNL     1      48.154   7.893  11.602  0.00  0.00    +0.000 A 
ENDROOT
BRANCH   1   7
ATOM      7  C   UNL     1      46.218   8.036  13.214  0.00  0.00    +0.000 C 
BRANCH   7  10
ATOM      8  C   UNL     1      45.556   5.696  12.907  0.00  0.00    +0.000 C 
ATOM      9  O   UNL     1      46.109   5.371  13.956  0.00  0.00    +0.000 OA
ATOM     10  N   UNL     1      45.547   7.000  12.467  0.00  0.00    +0.000 N 
ATOM     11  H   UNL     1      45.117   7.223  11.575  0.00  0.00    +0.000 HD
BRANCH   8  17
ATOM     12  C   UNL     1      44.963   4.551  10.675  0.00  0.00    +0.000 A 
ATOM     13  C   UNL     1      44.274   3.497  10.076  0.00  0.00    +0.000 A 
ATOM     14  N   UNL     1      43.502   2.601  10.736  0.00  0.00    +0.000 NA
ATOM     15  C   UNL     1      43.418   2.741  12.071  0.00  0.00    +0.000 A 
ATOM     16  C   UNL     1      44.081   3.732  12.771  0.00  0.00    +0.000 A 
ATOM     17  C   UNL     1      44.876   4.654  12.071  0.00  0.00    +0.000 A 
BRANCH  12  19
ATOM     18  C   UNL     1      46.054   5.053   8.636  0.00  0.00    +0.000 C 
ATOM     19  O   UNL     1      45.741   5.436   9.975  0.00  0.00    +0.000 OA
ENDBRANCH  12  19
ENDBRANCH   8  17
ENDBRANCH   7  10
ENDBRANCH   1   7
BRANCH   4  20
ATOM     20  C   UNL     1      51.935   8.141  12.023  0.00  0.00    +0.000 C 
BRANCH  20  21
ATOM     21  N   UNL     1      52.183   7.700  10.673  0.00  0.00    +0.000 N 
ATOM     22  C   UNL     1      53.374   7.115  10.330  0.00  0.00    +0.000 C 
ATOM     23  O   UNL     1      54.251   6.889  11.161  0.00  0.00    +0.000 OA
ATOM     24  H   UNL     1      51.578   8.070   9.946  0.00  0.00    +0.000 HD
BRANCH  22  25
ATOM     25  C   UNL     1      53.539   6.717   8.923  0.00  0.00    +0.000 A 
ATOM     26  C   UNL     1      53.839   5.396   8.616  0.00  0.00    +0.000 A 
ATOM     27  S   UNL     1      53.963   5.092   6.942  0.00  0.00    +0.000 S 
ATOM     28  C   UNL     1      53.670   6.725   6.569  0.00  0.00    +0.000 A 
ATOM     29  N   UNL     1      53.675   7.158   5.278  0.00  0.00    +0.000 NA
ATOM     30  C   UNL     1      53.473   8.426   5.142  0.00  0.00    +0.000 A 
ATOM     31  N   UNL     1      53.261   9.299   6.177  0.00  0.00    +0.000 N 
ATOM     32  C   UNL     1      53.214   8.902   7.493  0.00  0.00    +0.000 A 
ATOM     33  O   UNL     1      52.973   9.700   8.392  0.00  0.00    +0.000 OA
ATOM     34  C   UNL     1      53.457   7.488   7.703  0.00  0.00    +0.000 A 
ATOM     35  H   UNL     1      53.097  10.279   6.001  0.00  0.00    +0.000 HD
ENDBRANCH  22  25
ENDBRANCH  20  21
ENDBRANCH   4  20
TORSDOF 7
ENDMDL
MODEL 9
REMARK VINA RESULT:    -6.154      2.752      4.190
REMARK INTER + INTRA:          -9.653
REMARK INTER:                  -8.455
REMARK INTRA:                  -1.198
REMARK UNBOUND:                -0.982
REMARK  Name = 
REMARK  8 active torsions:
REMARK  status: ('A' for Active; 'I' for Inactive)
REMARK    1  A    between atoms: C_1  and  O_2
REMARK    2  A    between atoms: O_2  and  C_3
REMARK    3  A    between atoms: C_8  and  C_9
REMARK    4  A    between atoms: N_11  and  C_12
REMARK    5  A    between atoms: C_12  and  C_13
REMARK    6  A    between atoms: C_16  and  C_17
REMARK    7  A    between atoms: C_17  and  N_18
REMARK    8  A    between atoms: C_19  and  C_21
REMARK                            x       y       z     vdW  Elec       q    Type
REMARK                         _______ _______ _______ _____ _____    ______ ____
ROOT
ATOM      1  C   UNL     1      46.843   8.222  12.273  0.00  0.00    +0.000 A 
ATOM      2  C   UNL     1      47.020   8.734  13.565  0.00  0.00    +0.000 A 
ATOM      3  C   UNL     1      48.274   8.684  14.187  0.00  0.00    +0.000 A 
ATOM      4  C   UNL     1      49.380   8.137  13.521  0.00  0.00    +0.000 A 
ATOM      5  C   UNL     1      49.204   7.640  12.223  0.00  0.00    +0.000 A 
ATOM      6  C   UNL     1      47.952   7.689  11.602  0.00  0.00    +0.000 A 
ENDROOT
BRANCH   1   7
ATOM      7  C   UNL     1      45.486   8.228  11.619  0.00  0.00    +0.000 C 
BRANCH   7  10
ATOM      8  C   UNL     1      44.726   5.921  11.942  0.00  0.00    +0.000 C 
ATOM      9  O   UNL     1      44.651   6.085  13.158  0.00  0.00    +0.000 OA
ATOM     10  N   UNL     1      45.118   6.934  11.097  0.00  0.00    +0.000 N 
ATOM     11  H   UNL     1      45.209   6.749  10.104  0.00  0.00    +0.000 HD
BRANCH   8  17
ATOM     12  C   UNL     1      44.800   4.134  10.087  0.00  0.00    +0.000 A 
ATOM     13  C   UNL     1      44.405   2.848   9.719  0.00  0.00    +0.000 A 
ATOM     14  N   UNL     1      43.629   2.030  10.469  0.00  0.00    +0.000 NA
ATOM     15  C   UNL     1      43.232   2.502  11.665  0.00  0.00    +0.000 A 
ATOM     16  C   UNL     1      43.587   3.750  12.142  0.00  0.00    +0.000 A 
ATOM     17  C   UNL     1      44.391   4.585  11.350  0.00  0.00    +0.000 A 
BRANCH  12  19
ATOM     18  C   UNL     1      46.055   4.335   8.091  0.00  0.00    +0.000 C 
ATOM     19  O   UNL     1      45.591   4.931   9.303  0.00  0.00    +0.000 OA
ENDBRANCH  12  19
ENDBRANCH   8  17
ENDBRANCH   7  10
ENDBRANCH   1   7
BRANCH   4  20
ATOM     20  C   UNL     1      50.726   8.037  14.195  0.00  0.00    +0.000 C 
BRANCH  20  21
ATOM     21  N   UNL     1      50.606   7.523  15.537  0.00  0.00    +0.000 N 
ATOM     22  C   UNL     1      51.677   6.949  16.170  0.00  0.00    +0.000 C 
ATOM     23  O   UNL     1      52.790   6.901  15.651  0.00  0.00    +0.000 OA
ATOM     24  H   UNL     1      49.667   7.356  15.887  0.00  0.00    +0.000 HD
BRANCH  22  25
ATOM     25  C   UNL     1      51.449   6.437  17.530  0.00  0.00    +0.000 A 
ATOM     26  C   UNL     1      52.398   6.669  18.518  0.00  0.00    +0.000 A 
ATOM     27  S   UNL     1      51.969   6.041  20.044  0.00  0.00    +0.000 S 
ATOM     28  C   UNL     1      50.523   5.390  19.428  0.00  0.00    +0.000 A 
ATOM     29  N   UNL     1      49.682   4.678  20.229  0.00  0.00    +0.000 NA
ATOM     30  C   UNL     1      48.640   4.213  19.625  0.00  0.00    +0.000 A 
ATOM     31  N   UNL     1      48.357   4.402  18.297  0.00  0.00    +0.000 N 
ATOM     32  C   UNL     1      49.159   5.142  17.460  0.00  0.00    +0.000 A 
ATOM     33  O   UNL     1      48.853   5.333  16.288  0.00  0.00    +0.000 OA
ATOM     34  C   UNL     1      50.357   5.669  18.084  0.00  0.00    +0.000 A 
ATOM     35  H   UNL     1      47.517   4.021  17.888  0.00  0.00    +0.000 HD
ENDBRANCH  22  25
ENDBRANCH  20  21
ENDBRANCH   4  20
TORSDOF 7
ENDMDL
