MODEL 1
REMARK VINA RESULT:    -6.934      0.000      0.000
REMARK INTER + INTRA:         -10.786
REMARK INTER:                  -9.772
REMARK INTRA:                  -1.014
REMARK UNBOUND:                -1.014
REMARK  Name = 
REMARK  8 active torsions:
REMARK  status: ('A' for Active; 'I' for Inactive)
REMARK    1  A    between atoms: C_1  and  C_2
REMARK    2  A    between atoms: C_2  and  O_3
REMARK    3  A    between atoms: O_3  and  N_4
REMARK    4  A    between atoms: C_5  and  C_6
REMARK    5  A    between atoms: C_5  and  C_20
REMARK    6  A    between atoms: C_6  and  C_7
REMARK    7  A    between atoms: C_10  and  C_11
REMARK    8  A    between atoms: C_11  and  N_12
REMARK                            x       y       z     vdW  Elec       q    Type
REMARK                         _______ _______ _______ _____ _____    ______ ____
ROOT
ATOM      1  N   UNL     1      45.370   7.804  11.781  0.00  0.00    +0.000 NA
ATOM      2  C   UNL     1      46.203   6.813  11.629  0.00  0.00    +0.000 C 
ENDROOT
BRANCH   2   3
ATOM      3  C   UNL     1      45.630   5.716  10.826  0.00  0.00    +0.000 A 
ATOM      4  C   UNL     1      45.889   5.524   9.479  0.00  0.00    +0.000 A 
ATOM      5  S   UNL     1      45.153   4.112   8.849  0.00  0.00    +0.000 S 
ATOM      6  C   UNL     1      44.460   3.718  10.352  0.00  0.00    +0.000 A 
ATOM      7  N   UNL     1      43.714   2.590  10.512  0.00  0.00    +0.000 NA
ATOM      8  C   UNL     1      43.289   2.398  11.715  0.00  0.00    +0.000 A 
ATOM      9  N   UNL     1      43.522   3.244  12.770  0.00  0.00    +0.000 N 
ATOM     10  C   UNL     1      44.141   4.467  12.624  0.00  0.00    +0.000 A 
ATOM     11  O   UNL     1      44.067   5.300  13.520  0.00  0.00    +0.000 OA
ATOM     12  C   UNL     1      44.750   4.667  11.314  0.00  0.00    +0.000 A 
ATOM     13  H   UNL     1      43.098   3.084  13.668  0.00  0.00    +0.000 HD
ENDBRANCH   2   3
BRANCH   1  14
ATOM     14  O   UNL     1      45.969   8.950  12.283  0.00  0.00    +0.000 OA
BRANCH  14  16
ATOM     15  C   UNL     1      44.140   9.722  10.958  0.00  0.00    +0.000 C 
ATOM     16  C   UNL     1      45.092  10.055  12.087  0.00  0.00    +0.000 C 
ENDBRANCH  14  16
ENDBRANCH   1  14
BRANCH   2  17
ATOM     17  C   UNL     1      47.655   6.741  12.128  0.00  0.00    +0.000 C 
BRANCH  17  18
ATOM     18  C   UNL     1      47.869   6.260  13.554  0.00  0.00    +0.000 A 
ATOM     19  C   UNL     1      47.260   5.085  14.012  0.00  0.00    +0.000 A 
ATOM     20  C   UNL     1      47.330   4.722  15.364  0.00  0.00    +0.000 A 
ATOM     21  C   UNL     1      48.008   5.518  16.297  0.00  0.00    +0.000 A 
ATOM     22  C   UNL     1      48.676   6.660  15.825  0.00  0.00    +0.000 A 
ATOM     23  C   UNL     1      48.616   7.017  14.470  0.00  0.00    +0.000 A 
BRANCH  21  24
ATOM     24  C   UNL     1      47.883   5.247  17.783  0.00  0.00    +0.000 C 
BRANCH  24  25
ATOM     25  N   UNL     1      48.800   4.330  18.457  0.00  0.00    +0.000 NA
ATOM     26  C   UNL     1      50.199   4.749  18.559  0.00  0.00    +0.000 C 
ATOM     27  C   UNL     1      51.076   4.289  17.385  0.00  0.00    +0.000 C 
ATOM     28  O   UNL     1      50.983   2.873  17.183  0.00  0.00    +0.000 OA
ATOM     29  C   UNL     1      49.626   2.474  16.956  0.00  0.00    +0.000 C 
ATOM     30  C   UNL     1      48.705   2.910  18.105  0.00  0.00    +0.000 C 
ENDBRANCH  24  25
ENDBRANCH  21  24
ENDBRANCH  17  18
ENDBRANCH   2  17
TORSDOF 7
ENDMDL
MODEL 2
REMARK VINA RESULT:    -6.303      1.962      2.686
REMARK INTER + INTRA:          -9.897
REMARK INTER:                  -9.125
REMARK INTRA:                  -0.771
REMARK UNBOUND:                -1.014
REMARK  Name = 
REMARK  8 active torsions:
REMARK  status: ('A' for Active; 'I' for Inactive)
REMARK    1  A    between atoms: C_1  and  C_2
REMARK    2  A    between atoms: C_2  and  O_3
REMARK    3  A    between atoms: O_3  and  N_4
REMARK    4  A    between atoms: C_5  and  C_6
REMARK    5  A    between atoms: C_5  and  C_20
REMARK    6  A    between atoms: C_6  and  C_7
REMARK    7  A    between atoms: C_10  and  C_11
REMARK    8  A    between atoms: C_11  and  N_12
REMARK                            x       y       z     vdW  Elec       q    Type
REMARK                         _______ _______ _______ _____ _____    ______ ____
ROOT
ATOM      1  N   UNL     1      44.697   7.600  11.590  0.00  0.00    +0.000 NA
ATOM      2  C   UNL     1      45.596   6.661  11.686  0.00  0.00    +0.000 C 
ENDROOT
BRANCH   2   3
ATOM      3  C   UNL     1      45.011   5.311  11.576  0.00  0.00    +0.000 A 
ATOM      4  C   UNL     1      44.370   4.657  12.613  0.00  0.00    +0.000 A 
ATOM      5  S   UNL     1      43.717   3.143  12.151  0.00  0.00    +0.000 S 
ATOM      6  C   UNL     1      44.277   3.311  10.552  0.00  0.00    +0.000 A 
ATOM      7  N   UNL     1      44.026   2.359   9.613  0.00  0.00    +0.000 NA
ATOM      8  C   UNL     1      44.474   2.641   8.435  0.00  0.00    +0.000 A 
ATOM      9  N   UNL     1      45.173   3.778   8.117  0.00  0.00    +0.000 N 
ATOM     10  C   UNL     1      45.579   4.694   9.064  0.00  0.00    +0.000 A 
ATOM     11  O   UNL     1      46.435   5.526   8.782  0.00  0.00    +0.000 OA
ATOM     12  C   UNL     1      44.987   4.484  10.380  0.00  0.00    +0.000 A 
ATOM     13  H   UNL     1      45.567   3.907   7.201  0.00  0.00    +0.000 HD
ENDBRANCH   2   3
BRANCH   1  14
ATOM     14  O   UNL     1      45.242   8.863  11.409  0.00  0.00    +0.000 OA
BRANCH  14  16
ATOM     15  C   UNL     1      43.364   9.960  10.424  0.00  0.00    +0.000 C 
ATOM     16  C   UNL     1      44.236   9.841  11.656  0.00  0.00    +0.000 C 
ENDBRANCH  14  16
ENDBRANCH   1  14
BRANCH   2  17
ATOM     17  C   UNL     1      47.115   6.847  11.824  0.00  0.00    +0.000 C 
BRANCH  17  18
ATOM     18  C   UNL     1      47.716   6.601  13.200  0.00  0.00    +0.000 A 
ATOM     19  C   UNL     1      47.341   5.483  13.954  0.00  0.00    +0.000 A 
ATOM     20  C   UNL     1      47.774   5.335  15.279  0.00  0.00    +0.000 A 
ATOM     21  C   UNL     1      48.592   6.295  15.889  0.00  0.00    +0.000 A 
ATOM     22  C   UNL     1      49.022   7.382  15.110  0.00  0.00    +0.000 A 
ATOM     23  C   UNL     1      48.599   7.524  13.780  0.00  0.00    +0.000 A 
BRANCH  21  24
ATOM     24  C   UNL     1      48.862   6.250  17.380  0.00  0.00    +0.000 C 
BRANCH  24  25
ATOM     25  N   UNL     1      48.196   5.268  18.232  0.00  0.00    +0.000 NA
ATOM     26  C   UNL     1      47.064   5.743  19.029  0.00  0.00    +0.000 C 
ATOM     27  C   UNL     1      47.453   6.250  20.427  0.00  0.00    +0.000 C 
ATOM     28  O   UNL     1      48.208   5.268  21.149  0.00  0.00    +0.000 OA
ATOM     29  C   UNL     1      49.386   4.891  20.427  0.00  0.00    +0.000 C 
ATOM     30  C   UNL     1      49.052   4.376  19.020  0.00  0.00    +0.000 C 
ENDBRANCH  24  25
ENDBRANCH  21  24
ENDBRANCH  17  18
ENDBRANCH   2  17
TORSDOF 7
ENDMDL
MODEL 3
REMARK VINA RESULT:    -6.167      3.239      8.447
REMARK INTER + INTRA:          -9.704
REMARK INTER:                  -8.793
REMARK INTRA:                  -0.911
REMARK UNBOUND:                -1.014
REMARK  Name = 
REMARK  8 active torsions:
REMARK  status: ('A' for Active; 'I' for Inactive)
REMARK    1  A    between atoms: C_1  and  C_2
REMARK    2  A    between atoms: C_2  and  O_3
REMARK    3  A    between atoms: O_3  and  N_4
REMARK    4  A    between atoms: C_5  and  C_6
REMARK    5  A    between atoms: C_5  and  C_20
REMARK    6  A    between atoms: C_6  and  C_7
REMARK    7  A    between atoms: C_10  and  C_11
REMARK    8  A    between atoms: C_11  and  N_12
REMARK                            x       y       z     vdW  Elec       q    Type
REMARK                         _______ _______ _______ _____ _____    ______ ____
ROOT
ATOM      1  N   UNL     1      49.252   5.074  19.534  0.00  0.00    +0.000 NA
ATOM      2  C   UNL     1      49.812   5.521  18.445  0.00  0.00    +0.000 C 
ENDROOT
BRANCH   2   3
ATOM      3  C   UNL     1      51.141   4.924  18.211  0.00  0.00    +0.000 A 
ATOM      4  C   UNL     1      52.330   5.629  18.280  0.00  0.00    +0.000 A 
ATOM      5  S   UNL     1      53.710   4.641  18.052  0.00  0.00    +0.000 S 
ATOM      6  C   UNL     1      52.762   3.242  17.847  0.00  0.00    +0.000 A 
ATOM      7  N   UNL     1      53.335   2.025  17.641  0.00  0.00    +0.000 NA
ATOM      8  C   UNL     1      52.494   1.050  17.546  0.00  0.00    +0.000 A 
ATOM      9  N   UNL     1      51.130   1.185  17.615  0.00  0.00    +0.000 N 
ATOM     10  C   UNL     1      50.503   2.410  17.672  0.00  0.00    +0.000 A 
ATOM     11  O   UNL     1      49.302   2.494  17.440  0.00  0.00    +0.000 OA
ATOM     12  C   UNL     1      51.411   3.527  17.911  0.00  0.00    +0.000 A 
ATOM     13  H   UNL     1      50.522   0.400  17.454  0.00  0.00    +0.000 HD
ENDBRANCH   2   3
BRANCH   1  14
ATOM     14  O   UNL     1      47.906   5.398  19.630  0.00  0.00    +0.000 OA
BRANCH  14  16
ATOM     15  C   UNL     1      47.635   7.468  20.788  0.00  0.00    +0.000 C 
ATOM     16  C   UNL     1      47.656   5.959  20.914  0.00  0.00    +0.000 C 
ENDBRANCH  14  16
ENDBRANCH   1  14
BRANCH   2  17
ATOM     17  C   UNL     1      49.203   6.497  17.426  0.00  0.00    +0.000 C 
BRANCH  17  18
ATOM     18  C   UNL     1      48.522   5.886  16.211  0.00  0.00    +0.000 A 
ATOM     19  C   UNL     1      48.542   6.543  14.975  0.00  0.00    +0.000 A 
ATOM     20  C   UNL     1      47.788   6.061  13.895  0.00  0.00    +0.000 A 
ATOM     21  C   UNL     1      46.994   4.912  14.017  0.00  0.00    +0.000 A 
ATOM     22  C   UNL     1      47.028   4.216  15.237  0.00  0.00    +0.000 A 
ATOM     23  C   UNL     1      47.792   4.692  16.314  0.00  0.00    +0.000 A 
BRANCH  21  24
ATOM     24  C   UNL     1      46.008   4.532  12.931  0.00  0.00    +0.000 C 
BRANCH  24  25
ATOM     25  N   UNL     1      45.332   5.558  12.141  0.00  0.00    +0.000 NA
ATOM     26  C   UNL     1      44.057   6.058  12.659  0.00  0.00    +0.000 C 
ATOM     27  C   UNL     1      42.830   5.283  12.153  0.00  0.00    +0.000 C 
ATOM     28  O   UNL     1      42.806   5.216  10.721  0.00  0.00    +0.000 OA
ATOM     29  C   UNL     1      44.002   4.610  10.215  0.00  0.00    +0.000 C 
ATOM     30  C   UNL     1      45.261   5.349  10.692  0.00  0.00    +0.000 C 
ENDBRANCH  24  25
ENDBRANCH  21  24
ENDBRANCH  17  18
ENDBRANCH   2  17
TORSDOF 7
ENDMDL
MODEL 4
REMARK VINA RESULT:    -6.089      4.025      7.537
REMARK INTER + INTRA:          -9.595
REMARK INTER:                  -7.802
REMARK INTRA:                  -1.793
REMARK UNBOUND:                -1.014
REMARK  Name = 
REMARK  8 active torsions:
REMARK  status: ('A' for Active; 'I' for Inactive)
REMARK    1  A    between atoms: C_1  and  C_2
REMARK    2  A    between atoms: C_2  and  O_3
REMARK    3  A    between atoms: O_3  and  N_4
REMARK    4  A    between atoms: C_5  and  C_6
REMARK    5  A    between atoms: C_5  and  C_20
REMARK    6  A    between atoms: C_6  and  C_7
REMARK    7  A    between atoms: C_10  and  C_11
REMARK    8  A    between atoms: C_11  and  N_12
REMARK                            x       y       z     vdW  Elec       q    Type
REMARK                         _______ _______ _______ _____ _____    ______ ____
ROOT
ATOM      1  N   UNL     1      51.425   9.825  12.756  0.00  0.00    +0.000 NA
ATOM      2  C   UNL     1      50.143  10.039  12.851  0.00  0.00    +0.000 C 
ENDROOT
BRANCH   2   3
ATOM      3  C   UNL     1      49.755  10.543  14.183  0.00  0.00    +0.000 A 
ATOM      4  C   UNL     1      49.764  11.881  14.537  0.00  0.00    +0.000 A 
ATOM      5  S   UNL     1      49.173  12.161  16.120  0.00  0.00    +0.000 S 
ATOM      6  C   UNL     1      48.895  10.502  16.384  0.00  0.00    +0.000 A 
ATOM      7  N   UNL     1      48.360  10.053  17.552  0.00  0.00    +0.000 NA
ATOM      8  C   UNL     1      48.166   8.778  17.594  0.00  0.00    +0.000 A 
ATOM      9  N   UNL     1      48.481   7.906  16.582  0.00  0.00    +0.000 N 
ATOM     10  C   UNL     1      49.159   8.294  15.447  0.00  0.00    +0.000 A 
ATOM     11  O   UNL     1      49.668   7.448  14.720  0.00  0.00    +0.000 OA
ATOM     12  C   UNL     1      49.283   9.740  15.298  0.00  0.00    +0.000 A 
ATOM     13  H   UNL     1      48.381   6.913  16.702  0.00  0.00    +0.000 HD
ENDBRANCH   2   3
BRANCH   1  14
ATOM     14  O   UNL     1      51.850   9.623  11.450  0.00  0.00    +0.000 OA
BRANCH  14  16
ATOM     15  C   UNL     1      51.797   7.483  10.393  0.00  0.00    +0.000 C 
ATOM     16  C   UNL     1      52.530   8.374  11.374  0.00  0.00    +0.000 C 
ENDBRANCH  14  16
ENDBRANCH   1  14
BRANCH   2  17
ATOM     17  C   UNL     1      49.094   9.883  11.738  0.00  0.00    +0.000 C 
BRANCH  17  18
ATOM     18  C   UNL     1      48.009   8.840  11.956  0.00  0.00    +0.000 A 
ATOM     19  C   UNL     1      46.798   9.184  12.567  0.00  0.00    +0.000 A 
ATOM     20  C   UNL     1      45.862   8.198  12.907  0.00  0.00    +0.000 A 
ATOM     21  C   UNL     1      46.106   6.843  12.649  0.00  0.00    +0.000 A 
ATOM     22  C   UNL     1      47.291   6.505  11.976  0.00  0.00    +0.000 A 
ATOM     23  C   UNL     1      48.223   7.493  11.624  0.00  0.00    +0.000 A 
BRANCH  21  24
ATOM     24  C   UNL     1      45.204   5.769  13.225  0.00  0.00    +0.000 C 
BRANCH  24  25
ATOM     25  N   UNL     1      43.886   5.512  12.652  0.00  0.00    +0.000 NA
ATOM     26  C   UNL     1      43.202   4.292  13.087  0.00  0.00    +0.000 C 
ATOM     27  C   UNL     1      43.493   3.065  12.209  0.00  0.00    +0.000 C 
ATOM     28  O   UNL     1      43.224   3.333  10.827  0.00  0.00    +0.000 OA
ATOM     29  C   UNL     1      43.990   4.452  10.362  0.00  0.00    +0.000 C 
ATOM     30  C   UNL     1      43.734   5.708  11.207  0.00  0.00    +0.000 C 
ENDBRANCH  24  25
ENDBRANCH  21  24
ENDBRANCH  17  18
ENDBRANCH   2  17
TORSDOF 7
ENDMDL
MODEL 5
REMARK VINA RESULT:    -6.042      3.251      7.274
REMARK INTER + INTRA:          -9.529
REMARK INTER:                  -7.874
REMARK INTRA:                  -1.655
REMARK UNBOUND:                -1.014
REMARK  Name = 
REMARK  8 active torsions:
REMARK  status: ('A' for Active; 'I' for Inactive)
REMARK    1  A    between atoms: C_1  and  C_2
REMARK    2  A    between atoms: C_2  and  O_3
REMARK    3  A    between atoms: O_3  and  N_4
REMARK    4  A    between atoms: C_5  and  C_6
REMARK    5  A    between atoms: C_5  and  C_20
REMARK    6  A    between atoms: C_6  and  C_7
REMARK    7  A    between atoms: C_10  and  C_11
REMARK    8  A    between atoms: C_11  and  N_12
REMARK                            x       y       z     vdW  Elec       q    Type
REMARK                         _______ _______ _______ _____ _____    ______ ____
ROOT
ATOM      1  N   UNL     1      48.677   7.891  18.132  0.00  0.00    +0.000 NA
ATOM      2  C   UNL     1      49.485   7.749  17.119  0.00  0.00    +0.000 C 
ENDROOT
BRANCH   2   3
ATOM      3  C   UNL     1      50.320   6.538  17.232  0.00  0.00    +0.000 A 
ATOM      4  C   UNL     1      51.672   6.553  17.529  0.00  0.00    +0.000 A 
ATOM      5  S   UNL     1      52.343   4.985  17.683  0.00  0.00    +0.000 S 
ATOM      6  C   UNL     1      50.851   4.237  17.350  0.00  0.00    +0.000 A 
ATOM      7  N   UNL     1      50.724   2.882  17.354  0.00  0.00    +0.000 NA
ATOM      8  C   UNL     1      49.525   2.459  17.128  0.00  0.00    +0.000 A 
ATOM      9  N   UNL     1      48.446   3.267  16.875  0.00  0.00    +0.000 N 
ATOM     10  C   UNL     1      48.557   4.631  16.713  0.00  0.00    +0.000 A 
ATOM     11  O   UNL     1      47.635   5.264  16.208  0.00  0.00    +0.000 OA
ATOM     12  C   UNL     1      49.861   5.166  17.086  0.00  0.00    +0.000 A 
ATOM     13  H   UNL     1      47.553   2.878  16.626  0.00  0.00    +0.000 HD
ENDBRANCH   2   3
BRANCH   1  14
ATOM     14  O   UNL     1      47.698   8.851  17.920  0.00  0.00    +0.000 OA
BRANCH  14  16
ATOM     15  C   UNL     1      47.920  11.202  18.274  0.00  0.00    +0.000 C 
ATOM     16  C   UNL     1      47.798   9.845  18.935  0.00  0.00    +0.000 C 
ENDBRANCH  14  16
ENDBRANCH   1  14
BRANCH   2  17
ATOM     17  C   UNL     1      49.574   8.647  15.875  0.00  0.00    +0.000 C 
BRANCH  17  18
ATOM     18  C   UNL     1      48.780   8.209  14.653  0.00  0.00    +0.000 A 
ATOM     19  C   UNL     1      47.540   8.790  14.360  0.00  0.00    +0.000 A 
ATOM     20  C   UNL     1      46.739   8.284  13.328  0.00  0.00    +0.000 A 
ATOM     21  C   UNL     1      47.149   7.187  12.559  0.00  0.00    +0.000 A 
ATOM     22  C   UNL     1      48.422   6.648  12.809  0.00  0.00    +0.000 A 
ATOM     23  C   UNL     1      49.230   7.162  13.835  0.00  0.00    +0.000 A 
BRANCH  21  24
ATOM     24  C   UNL     1      46.187   6.502  11.608  0.00  0.00    +0.000 C 
BRANCH  24  25
ATOM     25  N   UNL     1      45.659   5.173  11.906  0.00  0.00    +0.000 NA
ATOM     26  C   UNL     1      45.096   4.418  10.785  0.00  0.00    +0.000 C 
ATOM     27  C   UNL     1      43.591   4.642  10.574  0.00  0.00    +0.000 C 
ATOM     28  O   UNL     1      42.850   4.395  11.775  0.00  0.00    +0.000 OA
ATOM     29  C   UNL     1      43.316   5.226  12.846  0.00  0.00    +0.000 C 
ATOM     30  C   UNL     1      44.819   5.039  13.100  0.00  0.00    +0.000 C 
ENDBRANCH  24  25
ENDBRANCH  21  24
ENDBRANCH  17  18
ENDBRANCH   2  17
TORSDOF 7
ENDMDL
MODEL 6
REMARK VINA RESULT:    -6.039      1.866      2.793
REMARK INTER + INTRA:          -9.524
REMARK INTER:                  -8.596
REMARK INTRA:                  -0.928
REMARK UNBOUND:                -1.014
REMARK  Name = 
REMARK  8 active torsions:
REMARK  status: ('A' for Active; 'I' for Inactive)
REMARK    1  A    between atoms: C_1  and  C_2
REMARK    2  A    between atoms: C_2  and  O_3
REMARK    3  A    between atoms: O_3  and  N_4
REMARK    4  A    between atoms: C_5  and  C_6
REMARK    5  A    between atoms: C_5  and  C_20
REMARK    6  A    between atoms: C_6  and  C_7
REMARK    7  A    between atoms: C_10  and  C_11
REMARK    8  A    between atoms: C_11  and  N_12
REMARK                            x       y       z     vdW  Elec       q    Type
REMARK                         _______ _______ _______ _____ _____    ______ ____
ROOT
ATOM      1  N   UNL     1      44.950   7.668  11.739  0.00  0.00    +0.000 NA
ATOM      2  C   UNL     1      45.846   6.721  11.722  0.00  0.00    +0.000 C 
ENDROOT
BRANCH   2   3
ATOM      3  C   UNL     1      45.240   5.377  11.669  0.00  0.00    +0.000 A 
ATOM      4  C   UNL     1      44.694   4.729  12.764  0.00  0.00    +0.000 A 
ATOM      5  S   UNL     1      43.985   3.221  12.367  0.00  0.00    +0.000 S 
ATOM      6  C   UNL     1      44.393   3.383  10.722  0.00  0.00    +0.000 A 
ATOM      7  N   UNL     1      44.044   2.434   9.812  0.00  0.00    +0.000 NA
ATOM      8  C   UNL     1      44.381   2.711   8.597  0.00  0.00    +0.000 A 
ATOM      9  N   UNL     1      45.058   3.842   8.213  0.00  0.00    +0.000 N 
ATOM     10  C   UNL     1      45.561   4.753   9.115  0.00  0.00    +0.000 A 
ATOM     11  O   UNL     1      46.394   5.577   8.753  0.00  0.00    +0.000 OA
ATOM     12  C   UNL     1      45.095   4.550  10.482  0.00  0.00    +0.000 A 
ATOM     13  H   UNL     1      45.365   3.966   7.263  0.00  0.00    +0.000 HD
ENDBRANCH   2   3
BRANCH   1  14
ATOM     14  O   UNL     1      45.483   8.928  11.507  0.00  0.00    +0.000 OA
BRANCH  14  16
ATOM     15  C   UNL     1      44.282  10.968  11.196  0.00  0.00    +0.000 C 
ATOM     16  C   UNL     1      44.689   9.897  12.185  0.00  0.00    +0.000 C 
ENDBRANCH  14  16
ENDBRANCH   1  14
BRANCH   2  17
ATOM     17  C   UNL     1      47.373   6.893  11.684  0.00  0.00    +0.000 C 
BRANCH  17  18
ATOM     18  C   UNL     1      48.088   6.990  13.024  0.00  0.00    +0.000 A 
ATOM     19  C   UNL     1      49.281   7.710  13.146  0.00  0.00    +0.000 A 
ATOM     20  C   UNL     1      50.021   7.673  14.337  0.00  0.00    +0.000 A 
ATOM     21  C   UNL     1      49.591   6.919  15.437  0.00  0.00    +0.000 A 
ATOM     22  C   UNL     1      48.359   6.252  15.336  0.00  0.00    +0.000 A 
ATOM     23  C   UNL     1      47.613   6.298  14.148  0.00  0.00    +0.000 A 
BRANCH  21  24
ATOM     24  C   UNL     1      50.502   6.696  16.628  0.00  0.00    +0.000 C 
BRANCH  24  25
ATOM     25  N   UNL     1      51.143   5.402  16.848  0.00  0.00    +0.000 NA
ATOM     26  C   UNL     1      50.480   4.486  17.778  0.00  0.00    +0.000 C 
ATOM     27  C   UNL     1      50.947   4.629  19.235  0.00  0.00    +0.000 C 
ATOM     28  O   UNL     1      52.373   4.520  19.343  0.00  0.00    +0.000 OA
ATOM     29  C   UNL     1      53.026   5.501  18.528  0.00  0.00    +0.000 C 
ATOM     30  C   UNL     1      52.593   5.400  17.058  0.00  0.00    +0.000 C 
ENDBRANCH  24  25
ENDBRANCH  21  24
ENDBRANCH  17  18
ENDBRANCH   2  17
TORSDOF 7
ENDMDL
MODEL 7
REMARK VINA RESULT:    -6.035      2.938      6.795
REMARK INTER + INTRA:          -9.518
REMARK INTER:                  -8.778
REMARK INTRA:                  -0.740
REMARK UNBOUND:                -1.014
REMARK  Name = 
REMARK  8 active torsions:
REMARK  status: ('A' for Active; 'I' for Inactive)
REMARK    1  A    between atoms: C_1  and  C_2
REMARK    2  A    between atoms: C_2  and  O_3
REMARK    3  A    between atoms: O_3  and  N_4
REMARK    4  A    between atoms: C_5  and  C_6
REMARK    5  A    between atoms: C_5  and  C_20
REMARK    6  A    between atoms: C_6  and  C_7
REMARK    7  A    between atoms: C_10  and  C_11
REMARK    8  A    between atoms: C_11  and  N_12
REMARK                            x       y       z     vdW  Elec       q    Type
REMARK                         _______ _______ _______ _____ _____    ______ ____
ROOT
ATOM      1  N   UNL     1      49.960   7.341  13.954  0.00  0.00    +0.000 NA
ATOM      2  C   UNL     1      48.838   7.532  14.589  0.00  0.00    +0.000 C 
ENDROOT
BRANCH   2   3
ATOM      3  C   UNL     1      48.827   6.886  15.916  0.00  0.00    +0.000 A 
ATOM      4  C   UNL     1      49.357   7.456  17.060  0.00  0.00    +0.000 A 
ATOM      5  S   UNL     1      49.109   6.504  18.462  0.00  0.00    +0.000 S 
ATOM      6  C   UNL     1      48.293   5.296  17.582  0.00  0.00    +0.000 A 
ATOM      7  N   UNL     1      47.784   4.195  18.199  0.00  0.00    +0.000 NA
ATOM      8  C   UNL     1      47.154   3.387  17.414  0.00  0.00    +0.000 A 
ATOM      9  N   UNL     1      47.008   3.568  16.061  0.00  0.00    +0.000 N 
ATOM     10  C   UNL     1      47.631   4.586  15.372  0.00  0.00    +0.000 A 
ATOM     11  O   UNL     1      47.709   4.538  14.150  0.00  0.00    +0.000 OA
ATOM     12  C   UNL     1      48.243   5.592  16.232  0.00  0.00    +0.000 A 
ATOM     13  H   UNL     1      46.576   2.865  15.487  0.00  0.00    +0.000 HD
ENDBRANCH   2   3
BRANCH   1  14
ATOM     14  O   UNL     1      50.106   8.159  12.843  0.00  0.00    +0.000 OA
BRANCH  14  16
ATOM     15  C   UNL     1      52.337   8.463  13.637  0.00  0.00    +0.000 C 
ATOM     16  C   UNL     1      51.089   9.150  13.124  0.00  0.00    +0.000 C 
ENDBRANCH  14  16
ENDBRANCH   1  14
BRANCH   2  17
ATOM     17  C   UNL     1      47.644   8.378  14.121  0.00  0.00    +0.000 C 
BRANCH  17  18
ATOM     18  C   UNL     1      46.812   7.821  12.976  0.00  0.00    +0.000 A 
ATOM     19  C   UNL     1      45.525   8.308  12.724  0.00  0.00    +0.000 A 
ATOM     20  C   UNL     1      44.700   7.694  11.772  0.00  0.00    +0.000 A 
ATOM     21  C   UNL     1      45.134   6.577  11.045  0.00  0.00    +0.000 A 
ATOM     22  C   UNL     1      46.450   6.130  11.251  0.00  0.00    +0.000 A 
ATOM     23  C   UNL     1      47.280   6.753  12.195  0.00  0.00    +0.000 A 
BRANCH  21  24
ATOM     24  C   UNL     1      44.165   5.780  10.194  0.00  0.00    +0.000 C 
BRANCH  24  25
ATOM     25  N   UNL     1      43.356   4.715  10.781  0.00  0.00    +0.000 NA
ATOM     26  C   UNL     1      42.589   5.051  11.982  0.00  0.00    +0.000 C 
ATOM     27  C   UNL     1      43.343   4.794  13.296  0.00  0.00    +0.000 C 
ATOM     28  O   UNL     1      43.833   3.449  13.366  0.00  0.00    +0.000 OA
ATOM     29  C   UNL     1      44.688   3.155  12.254  0.00  0.00    +0.000 C 
ATOM     30  C   UNL     1      43.980   3.396  10.912  0.00  0.00    +0.000 C 
ENDBRANCH  24  25
ENDBRANCH  21  24
ENDBRANCH  17  18
ENDBRANCH   2  17
TORSDOF 7
ENDMDL
MODEL 8
REMARK VINA RESULT:    -5.960      3.189      7.197
REMARK INTER + INTRA:          -9.413
REMARK INTER:                  -8.065
REMARK INTRA:                  -1.348
REMARK UNBOUND:                -1.014
REMARK  Name = 
REMARK  8 active torsions:
REMARK  status: ('A' for Active; 'I' for Inactive)
REMARK    1  A    between atoms: C_1  and  C_2
REMARK    2  A    between atoms: C_2  and  O_3
REMARK    3  A    between atoms: O_3  and  N_4
REMARK    4  A    between atoms: C_5  and  C_6
REMARK    5  A    between atoms: C_5  and  C_20
REMARK    6  A    between atoms: C_6  and  C_7
REMARK    7  A    between atoms: C_10  and  C_11
REMARK    8  A    between atoms: C_11  and  N_12
REMARK                            x       y       z     vdW  Elec       q    Type
REMARK                         _______ _______ _______ _____ _____    ______ ____
ROOT
ATOM      1  N   UNL     1      50.048   8.762  14.937  0.00  0.00    +0.000 NA
ATOM      2  C   UNL     1      48.788   8.934  15.221  0.00  0.00    +0.000 C 
ENDROOT
BRANCH   2   3
ATOM      3  C   UNL     1      48.481   8.624  16.630  0.00  0.00    +0.000 A 
ATOM      4  C   UNL     1      48.194   9.580  17.589  0.00  0.00    +0.000 A 
ATOM      5  S   UNL     1      47.789   8.904  19.110  0.00  0.00    +0.000 S 
ATOM      6  C   UNL     1      47.993   7.314  18.536  0.00  0.00    +0.000 A 
ATOM      7  N   UNL     1      47.770   6.239  19.341  0.00  0.00    +0.000 NA
ATOM      8  C   UNL     1      47.922   5.097  18.758  0.00  0.00    +0.000 A 
ATOM      9  N   UNL     1      48.301   4.932  17.450  0.00  0.00    +0.000 N 
ATOM     10  C   UNL     1      48.682   5.983  16.644  0.00  0.00    +0.000 A 
ATOM     11  O   UNL     1      49.280   5.765  15.597  0.00  0.00    +0.000 OA
ATOM     12  C   UNL     1      48.403   7.296  17.216  0.00  0.00    +0.000 A 
ATOM     13  H   UNL     1      48.481   4.017  17.073  0.00  0.00    +0.000 HD
ENDBRANCH   2   3
BRANCH   1  14
ATOM     14  O   UNL     1      50.413   9.308  13.715  0.00  0.00    +0.000 OA
BRANCH  14  16
ATOM     15  C   UNL     1      50.474   8.040  11.693  0.00  0.00    +0.000 C 
ATOM     16  C   UNL     1      51.183   8.351  12.993  0.00  0.00    +0.000 C 
ENDBRANCH  14  16
ENDBRANCH   1  14
BRANCH   2  17
ATOM     17  C   UNL     1      47.693   9.467  14.282  0.00  0.00    +0.000 C 
BRANCH  17  18
ATOM     18  C   UNL     1      46.967   8.444  13.421  0.00  0.00    +0.000 A 
ATOM     19  C   UNL     1      47.460   7.140  13.292  0.00  0.00    +0.000 A 
ATOM     20  C   UNL     1      46.883   6.243  12.383  0.00  0.00    +0.000 A 
ATOM     21  C   UNL     1      45.799   6.620  11.578  0.00  0.00    +0.000 A 
ATOM     22  C   UNL     1      45.263   7.906  11.757  0.00  0.00    +0.000 A 
ATOM     23  C   UNL     1      45.834   8.799  12.676  0.00  0.00    +0.000 A 
BRANCH  21  24
ATOM     24  C   UNL     1      45.333   5.733  10.440  0.00  0.00    +0.000 C 
BRANCH  24  25
ATOM     25  N   UNL     1      44.279   4.743  10.646  0.00  0.00    +0.000 NA
ATOM     26  C   UNL     1      43.099   5.179  11.395  0.00  0.00    +0.000 C 
ATOM     27  C   UNL     1      43.200   4.947  12.911  0.00  0.00    +0.000 C 
ATOM     28  O   UNL     1      43.519   3.583  13.214  0.00  0.00    +0.000 OA
ATOM     29  C   UNL     1      44.743   3.189  12.582  0.00  0.00    +0.000 C 
ATOM     30  C   UNL     1      44.694   3.400  11.062  0.00  0.00    +0.000 C 
ENDBRANCH  24  25
ENDBRANCH  21  24
ENDBRANCH  17  18
ENDBRANCH   2  17
TORSDOF 7
ENDMDL
MODEL 9
REMARK VINA RESULT:    -5.920      2.733      7.335
REMARK INTER + INTRA:          -9.356
REMARK INTER:                  -8.181
REMARK INTRA:                  -1.175
REMARK UNBOUND:                -1.014
REMARK  Name = 
REMARK  8 active torsions:
REMARK  status: ('A' for Active; 'I' for Inactive)
REMARK    1  A    between atoms: C_1  and  C_2
REMARK    2  A    between atoms: C_2  and  O_3
REMARK    3  A    between atoms: O_3  and  N_4
REMARK    4  A    between atoms: C_5  and  C_6
REMARK    5  A    between atoms: C_5  and  C_20
REMARK    6  A    between atoms: C_6  and  C_7
REMARK    7  A    between atoms: C_10  and  C_11
REMARK    8  A    between atoms: C_11  and  N_12
REMARK                            x       y       z     vdW  Elec       q    Type
REMARK                         _______ _______ _______ _____ _____    ______ ____
ROOT
ATOM      1  N   UNL     1      48.476   7.771  17.569  0.00  0.00    +0.000 NA
ATOM      2  C   UNL     1      48.871   7.094  16.527  0.00  0.00    +0.000 C 
ENDROOT
BRANCH   2   3
ATOM      3  C   UNL     1      48.800   5.637  16.745  0.00  0.00    +0.000 A 
ATOM      4  C   UNL     1      47.663   4.876  16.536  0.00  0.00    +0.000 A 
ATOM      5  S   UNL     1      47.919   3.201  16.785  0.00  0.00    +0.000 S 
ATOM      6  C   UNL     1      49.556   3.441  17.187  0.00  0.00    +0.000 A 
ATOM      7  N   UNL     1      50.370   2.392  17.485  0.00  0.00    +0.000 NA
ATOM      8  C   UNL     1      51.595   2.721  17.728  0.00  0.00    +0.000 A 
ATOM      9  N   UNL     1      52.074   4.007  17.725  0.00  0.00    +0.000 N 
ATOM     10  C   UNL     1      51.258   5.107  17.577  0.00  0.00    +0.000 A 
ATOM     11  O   UNL     1      51.677   6.222  17.867  0.00  0.00    +0.000 OA
ATOM     12  C   UNL     1      49.895   4.781  17.172  0.00  0.00    +0.000 A 
ATOM     13  H   UNL     1      53.020   4.210  18.000  0.00  0.00    +0.000 HD
ENDBRANCH   2   3
BRANCH   1  14
ATOM     14  O   UNL     1      48.267   9.116  17.300  0.00  0.00    +0.000 OA
BRANCH  14  16
ATOM     15  C   UNL     1      47.372   8.770  19.486  0.00  0.00    +0.000 C 
ATOM     16  C   UNL     1      47.935   9.784  18.514  0.00  0.00    +0.000 C 
ENDBRANCH  14  16
ENDBRANCH   1  14
BRANCH   2  17
ATOM     17  C   UNL     1      49.304   7.662  15.166  0.00  0.00    +0.000 C 
BRANCH  17  18
ATOM     18  C   UNL     1      48.283   7.602  14.040  0.00  0.00    +0.000 A 
ATOM     19  C   UNL     1      47.209   8.499  13.999  0.00  0.00    +0.000 A 
ATOM     20  C   UNL     1      46.186   8.349  13.053  0.00  0.00    +0.000 A 
ATOM     21  C   UNL     1      46.204   7.303  12.121  0.00  0.00    +0.000 A 
ATOM     22  C   UNL     1      47.315   6.444  12.120  0.00  0.00    +0.000 A 
ATOM     23  C   UNL     1      48.346   6.601  13.059  0.00  0.00    +0.000 A 
BRANCH  21  24
ATOM     24  C   UNL     1      44.991   7.009  11.262  0.00  0.00    +0.000 C 
BRANCH  24  25
ATOM     25  N   UNL     1      43.949   6.096  11.724  0.00  0.00    +0.000 NA
ATOM     26  C   UNL     1      44.154   5.465  13.030  0.00  0.00    +0.000 C 
ATOM     27  C   UNL     1      44.889   4.117  12.963  0.00  0.00    +0.000 C 
ATOM     28  O   UNL     1      44.246   3.212  12.057  0.00  0.00    +0.000 OA
ATOM     29  C   UNL     1      44.156   3.778  10.743  0.00  0.00    +0.000 C 
ATOM     30  C   UNL     1      43.427   5.129  10.754  0.00  0.00    +0.000 C 
ENDBRANCH  24  25
ENDBRANCH  21  24
ENDBRANCH  17  18
ENDBRANCH   2  17
TORSDOF 7
ENDMDL
