MODEL 1
REMARK VINA RESULT:    -8.056      0.000      0.000
REMARK INTER + INTRA:         -11.263
REMARK INTER:                 -10.411
REMARK INTRA:                  -0.852
REMARK UNBOUND:                -0.852
REMARK  Name = 
REMARK  5 active torsions:
REMARK  status: ('A' for Active; 'I' for Inactive)
REMARK    1  A    between atoms: C_2  and  C_19
REMARK    2  A    between atoms: N_3  and  C_4
REMARK    3  A    between atoms: C_4  and  C_5
REMARK    4  A    between atoms: C_8  and  C_9
REMARK    5  A    between atoms: C_9  and  N_10
REMARK                            x       y       z     vdW  Elec       q    Type
REMARK                         _______ _______ _______ _____ _____    ______ ____
ROOT
ATOM      1  C   UNL     1      46.315   7.278  12.618  0.00  0.00    +0.000 C 
ENDROOT
BRANCH   1   2
ATOM      2  C   UNL     1      45.752   6.160  11.776  0.00  0.00    +0.000 A 
ATOM      3  C   UNL     1      45.943   6.152  10.399  0.00  0.00    +0.000 A 
ATOM      4  N   UNL     1      45.530   5.137   9.601  0.00  0.00    +0.000 NA
ATOM      5  C   UNL     1      44.889   4.111  10.219  0.00  0.00    +0.000 A 
ATOM      6  C   UNL     1      44.678   4.131  11.595  0.00  0.00    +0.000 A 
ATOM      7  N   UNL     1      45.096   5.143  12.398  0.00  0.00    +0.000 NA
BRANCH   5   8
ATOM      8  C   UNL     1      44.426   2.931   9.386  0.00  0.00    +0.000 C 
BRANCH   8   9
ATOM      9  N   UNL     1      45.510   1.965   9.185  0.00  0.00    +0.000 N 
ATOM     10  C   UNL     1      46.189   2.102   7.964  0.00  0.00    +0.000 A 
ATOM     11  C   UNL     1      47.263   1.253   7.664  0.00  0.00    +0.000 A 
ATOM     12  N   UNL     1      47.964   1.295   6.501  0.00  0.00    +0.000 NA
ATOM     13  C   UNL     1      47.566   2.246   5.636  0.00  0.00    +0.000 A 
ATOM     14  C   UNL     1      46.524   3.109   5.922  0.00  0.00    +0.000 A 
ATOM     15  N   UNL     1      45.823   3.055   7.080  0.00  0.00    +0.000 NA
ATOM     16  H   UNL     1      45.208   1.003   9.302  0.00  0.00    +0.000 HD
ENDBRANCH   8   9
ENDBRANCH   5   8
ENDBRANCH   1   2
BRANCH   1  19
ATOM     17  O   UNL     1      48.980   6.544  13.098  0.00  0.00    +0.000 OA
ATOM     18  C   UNL     1      48.192   6.538  14.039  0.00  0.00    +0.000 C 
ATOM     19  N   UNL     1      46.863   6.834  13.876  0.00  0.00    +0.000 N 
ATOM     20  H   UNL     1      46.280   6.998  14.692  0.00  0.00    +0.000 HD
BRANCH  18  21
ATOM     21  C   UNL     1      48.607   6.177  15.391  0.00  0.00    +0.000 A 
ATOM     22  C   UNL     1      49.479   6.987  16.112  0.00  0.00    +0.000 A 
ATOM     23  S   UNL     1      49.838   6.382  17.667  0.00  0.00    +0.000 S 
ATOM     24  C   UNL     1      48.815   5.040  17.443  0.00  0.00    +0.000 A 
ATOM     25  N   UNL     1      48.645   4.108  18.424  0.00  0.00    +0.000 NA
ATOM     26  C   UNL     1      47.807   3.175  18.126  0.00  0.00    +0.000 A 
ATOM     27  N   UNL     1      47.127   3.075  16.938  0.00  0.00    +0.000 N 
ATOM     28  C   UNL     1      47.327   3.940  15.896  0.00  0.00    +0.000 A 
ATOM     29  O   UNL     1      46.816   3.740  14.803  0.00  0.00    +0.000 OA
ATOM     30  C   UNL     1      48.225   5.039  16.191  0.00  0.00    +0.000 A 
ATOM     31  H   UNL     1      46.510   2.297  16.754  0.00  0.00    +0.000 HD
ENDBRANCH  18  21
ENDBRANCH   1  19
TORSDOF 5
ENDMDL
MODEL 2
REMARK VINA RESULT:    -7.461      1.755      2.274
REMARK INTER + INTRA:         -10.494
REMARK INTER:                  -9.902
REMARK INTRA:                  -0.592
REMARK UNBOUND:                -0.852
REMARK  Name = 
REMARK  5 active torsions:
REMARK  status: ('A' for Active; 'I' for Inactive)
REMARK    1  A    between atoms: C_2  and  C_19
REMARK    2  A    between atoms: N_3  and  C_4
REMARK    3  A    between atoms: C_4  and  C_5
REMARK    4  A    between atoms: C_8  and  C_9
REMARK    5  A    between atoms: C_9  and  N_10
REMARK                            x       y       z     vdW  Elec       q    Type
REMARK                         _______ _______ _______ _____ _____    ______ ____
ROOT
ATOM      1  C   UNL     1      46.718   6.204  13.449  0.00  0.00    +0.000 C 
ENDROOT
BRANCH   1   2
ATOM      2  C   UNL     1      46.028   5.323  12.437  0.00  0.00    +0.000 A 
ATOM      3  C   UNL     1      45.803   5.781  11.144  0.00  0.00    +0.000 A 
ATOM      4  N   UNL     1      45.261   5.009  10.171  0.00  0.00    +0.000 NA
ATOM      5  C   UNL     1      44.922   3.742  10.528  0.00  0.00    +0.000 A 
ATOM      6  C   UNL     1      45.127   3.294  11.829  0.00  0.00    +0.000 A 
ATOM      7  N   UNL     1      45.675   4.062  12.805  0.00  0.00    +0.000 NA
BRANCH   5   8
ATOM      8  C   UNL     1      44.336   2.820   9.477  0.00  0.00    +0.000 C 
BRANCH   8   9
ATOM      9  N   UNL     1      45.273   1.746   9.131  0.00  0.00    +0.000 N 
ATOM     10  C   UNL     1      46.046   2.000   7.987  0.00  0.00    +0.000 A 
ATOM     11  C   UNL     1      46.998   1.061   7.566  0.00  0.00    +0.000 A 
ATOM     12  N   UNL     1      47.775   1.208   6.462  0.00  0.00    +0.000 NA
ATOM     13  C   UNL     1      47.584   2.357   5.786  0.00  0.00    +0.000 A 
ATOM     14  C   UNL     1      46.667   3.307   6.197  0.00  0.00    +0.000 A 
ATOM     15  N   UNL     1      45.889   3.149   7.295  0.00  0.00    +0.000 NA
ATOM     16  H   UNL     1      44.822   0.841   9.045  0.00  0.00    +0.000 HD
ENDBRANCH   8   9
ENDBRANCH   5   8
ENDBRANCH   1   2
BRANCH   1  19
ATOM     17  O   UNL     1      49.108   6.375  14.908  0.00  0.00    +0.000 OA
ATOM     18  C   UNL     1      48.185   5.713  15.372  0.00  0.00    +0.000 C 
ATOM     19  N   UNL     1      47.004   5.539  14.696  0.00  0.00    +0.000 N 
ATOM     20  H   UNL     1      46.202   5.144  15.178  0.00  0.00    +0.000 HD
BRANCH  18  21
ATOM     21  C   UNL     1      48.293   5.033  16.658  0.00  0.00    +0.000 A 
ATOM     22  C   UNL     1      48.234   3.645  16.741  0.00  0.00    +0.000 A 
ATOM     23  S   UNL     1      48.375   3.055  18.337  0.00  0.00    +0.000 S 
ATOM     24  C   UNL     1      48.556   4.627  18.963  0.00  0.00    +0.000 A 
ATOM     25  N   UNL     1      48.741   4.840  20.298  0.00  0.00    +0.000 NA
ATOM     26  C   UNL     1      48.906   6.079  20.616  0.00  0.00    +0.000 A 
ATOM     27  N   UNL     1      48.896   7.129  19.732  0.00  0.00    +0.000 N 
ATOM     28  C   UNL     1      48.633   6.970  18.398  0.00  0.00    +0.000 A 
ATOM     29  O   UNL     1      48.488   7.938  17.664  0.00  0.00    +0.000 OA
ATOM     30  C   UNL     1      48.486   5.593  17.974  0.00  0.00    +0.000 A 
ATOM     31  H   UNL     1      48.997   8.081  20.053  0.00  0.00    +0.000 HD
ENDBRANCH  18  21
ENDBRANCH   1  19
TORSDOF 5
ENDMDL
MODEL 3
REMARK VINA RESULT:    -7.245      2.503      4.193
REMARK INTER + INTRA:         -10.215
REMARK INTER:                  -9.271
REMARK INTRA:                  -0.943
REMARK UNBOUND:                -0.852
REMARK  Name = 
REMARK  5 active torsions:
REMARK  status: ('A' for Active; 'I' for Inactive)
REMARK    1  A    between atoms: C_2  and  C_19
REMARK    2  A    between atoms: N_3  and  C_4
REMARK    3  A    between atoms: C_4  and  C_5
REMARK    4  A    between atoms: C_8  and  C_9
REMARK    5  A    between atoms: C_9  and  N_10
REMARK                            x       y       z     vdW  Elec       q    Type
REMARK                         _______ _______ _______ _____ _____    ______ ____
ROOT
ATOM      1  C   UNL     1      46.974   5.087  14.377  0.00  0.00    +0.000 C 
ENDROOT
BRANCH   1   2
ATOM      2  C   UNL     1      46.170   4.733  13.151  0.00  0.00    +0.000 A 
ATOM      3  C   UNL     1      45.893   5.698  12.189  0.00  0.00    +0.000 A 
ATOM      4  N   UNL     1      45.245   5.422  11.030  0.00  0.00    +0.000 NA
ATOM      5  C   UNL     1      44.852   4.134  10.854  0.00  0.00    +0.000 A 
ATOM      6  C   UNL     1      45.110   3.174  11.828  0.00  0.00    +0.000 A 
ATOM      7  N   UNL     1      45.764   3.445  12.987  0.00  0.00    +0.000 NA
BRANCH   5   8
ATOM      8  C   UNL     1      44.147   3.755   9.566  0.00  0.00    +0.000 C 
BRANCH   8   9
ATOM      9  N   UNL     1      44.917   4.182   8.394  0.00  0.00    +0.000 N 
ATOM     10  C   UNL     1      45.758   3.191   7.862  0.00  0.00    +0.000 A 
ATOM     11  C   UNL     1      46.528   3.466   6.724  0.00  0.00    +0.000 A 
ATOM     12  N   UNL     1      47.385   2.581   6.152  0.00  0.00    +0.000 NA
ATOM     13  C   UNL     1      47.436   1.377   6.752  0.00  0.00    +0.000 A 
ATOM     14  C   UNL     1      46.667   1.076   7.862  0.00  0.00    +0.000 A 
ATOM     15  N   UNL     1      45.821   1.968   8.432  0.00  0.00    +0.000 NA
ATOM     16  H   UNL     1      45.450   5.029   8.558  0.00  0.00    +0.000 HD
ENDBRANCH   8   9
ENDBRANCH   5   8
ENDBRANCH   1   2
BRANCH   1  19
ATOM     17  O   UNL     1      49.343   6.069  15.513  0.00  0.00    +0.000 OA
ATOM     18  C   UNL     1      48.590   6.860  14.952  0.00  0.00    +0.000 C 
ATOM     19  N   UNL     1      47.390   6.467  14.417  0.00  0.00    +0.000 N 
ATOM     20  H   UNL     1      46.881   7.098  13.806  0.00  0.00    +0.000 HD
BRANCH  18  21
ATOM     21  C   UNL     1      48.903   8.281  14.848  0.00  0.00    +0.000 A 
ATOM     22  C   UNL     1      49.060   9.065  15.987  0.00  0.00    +0.000 A 
ATOM     23  S   UNL     1      49.417  10.698  15.642  0.00  0.00    +0.000 S 
ATOM     24  C   UNL     1      49.410  10.405  13.966  0.00  0.00    +0.000 A 
ATOM     25  N   UNL     1      49.668  11.403  13.072  0.00  0.00    +0.000 NA
ATOM     26  C   UNL     1      49.670  11.021  11.841  0.00  0.00    +0.000 A 
ATOM     27  N   UNL     1      49.431   9.739  11.412  0.00  0.00    +0.000 N 
ATOM     28  C   UNL     1      49.088   8.726  12.266  0.00  0.00    +0.000 A 
ATOM     29  O   UNL     1      48.740   7.633  11.840  0.00  0.00    +0.000 OA
ATOM     30  C   UNL     1      49.115   9.086  13.669  0.00  0.00    +0.000 A 
ATOM     31  H   UNL     1      49.412   9.514  10.428  0.00  0.00    +0.000 HD
ENDBRANCH  18  21
ENDBRANCH   1  19
TORSDOF 5
ENDMDL
MODEL 4
REMARK VINA RESULT:    -7.141      4.374      8.959
REMARK INTER + INTRA:         -10.080
REMARK INTER:                  -9.391
REMARK INTRA:                  -0.689
REMARK UNBOUND:                -0.852
REMARK  Name = 
REMARK  5 active torsions:
REMARK  status: ('A' for Active; 'I' for Inactive)
REMARK    1  A    between atoms: C_2  and  C_19
REMARK    2  A    between atoms: N_3  and  C_4
REMARK    3  A    between atoms: C_4  and  C_5
REMARK    4  A    between atoms: C_8  and  C_9
REMARK    5  A    between atoms: C_9  and  N_10
REMARK                            x       y       z     vdW  Elec       q    Type
REMARK                         _______ _______ _______ _____ _____    ______ ____
ROOT
ATOM      1  C   UNL     1      47.391   3.442  16.889  0.00  0.00    +0.000 C 
ENDROOT
BRANCH   1   2
ATOM      2  C   UNL     1      48.853   3.203  17.176  0.00  0.00    +0.000 A 
ATOM      3  C   UNL     1      49.575   4.108  17.945  0.00  0.00    +0.000 A 
ATOM      4  N   UNL     1      50.868   3.908  18.302  0.00  0.00    +0.000 NA
ATOM      5  C   UNL     1      51.446   2.765  17.849  0.00  0.00    +0.000 A 
ATOM      6  C   UNL     1      50.728   1.872  17.060  0.00  0.00    +0.000 A 
ATOM      7  N   UNL     1      49.431   2.065  16.706  0.00  0.00    +0.000 NA
BRANCH   5   8
ATOM      8  C   UNL     1      52.882   2.470  18.237  0.00  0.00    +0.000 C 
BRANCH   8   9
ATOM      9  N   UNL     1      53.604   1.815  17.142  0.00  0.00    +0.000 N 
ATOM     10  C   UNL     1      53.997   0.495  17.414  0.00  0.00    +0.000 A 
ATOM     11  C   UNL     1      54.673  -0.247  16.437  0.00  0.00    +0.000 A 
ATOM     12  N   UNL     1      55.112  -1.520  16.617  0.00  0.00    +0.000 NA
ATOM     13  C   UNL     1      54.829  -2.050  17.822  0.00  0.00    +0.000 A 
ATOM     14  C   UNL     1      54.143  -1.343  18.792  0.00  0.00    +0.000 A 
ATOM     15  N   UNL     1      53.717  -0.069  18.609  0.00  0.00    +0.000 NA
ATOM     16  H   UNL     1      54.404   2.351  16.821  0.00  0.00    +0.000 HD
ENDBRANCH   8   9
ENDBRANCH   5   8
ENDBRANCH   1   2
BRANCH   1  19
ATOM     17  O   UNL     1      47.287   3.046  14.114  0.00  0.00    +0.000 OA
ATOM     18  C   UNL     1      47.073   4.172  14.554  0.00  0.00    +0.000 C 
ATOM     19  N   UNL     1      47.156   4.457  15.893  0.00  0.00    +0.000 N 
ATOM     20  H   UNL     1      46.800   5.342  16.241  0.00  0.00    +0.000 HD
BRANCH  18  21
ATOM     21  C   UNL     1      46.753   5.294  13.678  0.00  0.00    +0.000 A 
ATOM     22  C   UNL     1      47.690   6.290  13.419  0.00  0.00    +0.000 A 
ATOM     23  S   UNL     1      47.111   7.510  12.376  0.00  0.00    +0.000 S 
ATOM     24  C   UNL     1      45.607   6.732  12.206  0.00  0.00    +0.000 A 
ATOM     25  N   UNL     1      44.627   7.251  11.412  0.00  0.00    +0.000 NA
ATOM     26  C   UNL     1      43.561   6.529  11.349  0.00  0.00    +0.000 A 
ATOM     27  N   UNL     1      43.374   5.340  12.009  0.00  0.00    +0.000 N 
ATOM     28  C   UNL     1      44.296   4.823  12.878  0.00  0.00    +0.000 A 
ATOM     29  O   UNL     1      44.040   3.839  13.558  0.00  0.00    +0.000 OA
ATOM     30  C   UNL     1      45.536   5.569  12.954  0.00  0.00    +0.000 A 
ATOM     31  H   UNL     1      42.499   4.840  11.943  0.00  0.00    +0.000 HD
ENDBRANCH  18  21
ENDBRANCH   1  19
TORSDOF 5
ENDMDL
MODEL 5
REMARK VINA RESULT:    -7.094      4.067      9.814
REMARK INTER + INTRA:         -10.020
REMARK INTER:                  -9.314
REMARK INTRA:                  -0.706
REMARK UNBOUND:                -0.852
REMARK  Name = 
REMARK  5 active torsions:
REMARK  status: ('A' for Active; 'I' for Inactive)
REMARK    1  A    between atoms: C_2  and  C_19
REMARK    2  A    between atoms: N_3  and  C_4
REMARK    3  A    between atoms: C_4  and  C_5
REMARK    4  A    between atoms: C_8  and  C_9
REMARK    5  A    between atoms: C_9  and  N_10
REMARK                            x       y       z     vdW  Elec       q    Type
REMARK                         _______ _______ _______ _____ _____    ______ ____
ROOT
ATOM      1  C   UNL     1      47.288   3.351  16.838  0.00  0.00    +0.000 C 
ENDROOT
BRANCH   1   2
ATOM      2  C   UNL     1      48.770   3.185  17.061  0.00  0.00    +0.000 A 
ATOM      3  C   UNL     1      49.492   4.159  17.740  0.00  0.00    +0.000 A 
ATOM      4  N   UNL     1      50.808   4.030  18.041  0.00  0.00    +0.000 NA
ATOM      5  C   UNL     1      51.409   2.885  17.623  0.00  0.00    +0.000 A 
ATOM      6  C   UNL     1      50.690   1.921  16.923  0.00  0.00    +0.000 A 
ATOM      7  N   UNL     1      49.371   2.045  16.626  0.00  0.00    +0.000 NA
BRANCH   5   8
ATOM      8  C   UNL     1      52.873   2.667  17.952  0.00  0.00    +0.000 C 
BRANCH   8   9
ATOM      9  N   UNL     1      53.078   2.529  19.397  0.00  0.00    +0.000 N 
ATOM     10  C   UNL     1      53.779   3.593  19.986  0.00  0.00    +0.000 A 
ATOM     11  C   UNL     1      54.017   3.591  21.367  0.00  0.00    +0.000 A 
ATOM     12  N   UNL     1      54.704   4.563  22.022  0.00  0.00    +0.000 NA
ATOM     13  C   UNL     1      55.137   5.572  21.242  0.00  0.00    +0.000 A 
ATOM     14  C   UNL     1      54.893   5.604  19.882  0.00  0.00    +0.000 A 
ATOM     15  N   UNL     1      54.215   4.626  19.234  0.00  0.00    +0.000 NA
ATOM     16  H   UNL     1      53.515   1.649  19.651  0.00  0.00    +0.000 HD
ENDBRANCH   8   9
ENDBRANCH   5   8
ENDBRANCH   1   2
BRANCH   1  19
ATOM     17  O   UNL     1      47.264   3.068  14.047  0.00  0.00    +0.000 OA
ATOM     18  C   UNL     1      46.925   4.145  14.529  0.00  0.00    +0.000 C 
ATOM     19  N   UNL     1      46.959   4.379  15.881  0.00  0.00    +0.000 N 
ATOM     20  H   UNL     1      46.505   5.205  16.259  0.00  0.00    +0.000 HD
BRANCH  18  21
ATOM     21  C   UNL     1      46.499   5.264  13.696  0.00  0.00    +0.000 A 
ATOM     22  C   UNL     1      47.322   6.370  13.508  0.00  0.00    +0.000 A 
ATOM     23  S   UNL     1      46.631   7.566  12.504  0.00  0.00    +0.000 S 
ATOM     24  C   UNL     1      45.230   6.632  12.259  0.00  0.00    +0.000 A 
ATOM     25  N   UNL     1      44.215   7.075  11.462  0.00  0.00    +0.000 NA
ATOM     26  C   UNL     1      43.240   6.240  11.337  0.00  0.00    +0.000 A 
ATOM     27  N   UNL     1      43.175   5.008  11.938  0.00  0.00    +0.000 N 
ATOM     28  C   UNL     1      44.130   4.558  12.808  0.00  0.00    +0.000 A 
ATOM     29  O   UNL     1      43.972   3.520  13.437  0.00  0.00    +0.000 OA
ATOM     30  C   UNL     1      45.275   5.435  12.952  0.00  0.00    +0.000 A 
ATOM     31  H   UNL     1      42.364   4.416  11.826  0.00  0.00    +0.000 HD
ENDBRANCH  18  21
ENDBRANCH   1  19
TORSDOF 5
ENDMDL
MODEL 6
REMARK VINA RESULT:    -7.009      2.642      4.483
REMARK INTER + INTRA:          -9.910
REMARK INTER:                  -9.437
REMARK INTRA:                  -0.472
REMARK UNBOUND:                -0.852
REMARK  Name = 
REMARK  5 active torsions:
REMARK  status: ('A' for Active; 'I' for Inactive)
REMARK    1  A    between atoms: C_2  and  C_19
REMARK    2  A    between atoms: N_3  and  C_4
REMARK    3  A    between atoms: C_4  and  C_5
REMARK    4  A    between atoms: C_8  and  C_9
REMARK    5  A    between atoms: C_9  and  N_10
REMARK                            x       y       z     vdW  Elec       q    Type
REMARK                         _______ _______ _______ _____ _____    ______ ____
ROOT
ATOM      1  C   UNL     1      46.909   5.439  14.591  0.00  0.00    +0.000 C 
ENDROOT
BRANCH   1   2
ATOM      2  C   UNL     1      46.097   4.815  13.483  0.00  0.00    +0.000 A 
ATOM      3  C   UNL     1      45.305   5.608  12.660  0.00  0.00    +0.000 A 
ATOM      4  N   UNL     1      44.617   5.116  11.601  0.00  0.00    +0.000 NA
ATOM      5  C   UNL     1      44.722   3.779  11.384  0.00  0.00    +0.000 A 
ATOM      6  C   UNL     1      45.497   2.984  12.223  0.00  0.00    +0.000 A 
ATOM      7  N   UNL     1      46.193   3.473  13.281  0.00  0.00    +0.000 NA
BRANCH   5   8
ATOM      8  C   UNL     1      43.998   3.172  10.198  0.00  0.00    +0.000 C 
BRANCH   8   9
ATOM      9  N   UNL     1      44.704   1.990   9.693  0.00  0.00    +0.000 N 
ATOM     10  C   UNL     1      45.591   2.254   8.637  0.00  0.00    +0.000 A 
ATOM     11  C   UNL     1      46.345   1.211   8.083  0.00  0.00    +0.000 A 
ATOM     12  N   UNL     1      47.210   1.364   7.047  0.00  0.00    +0.000 NA
ATOM     13  C   UNL     1      47.319   2.624   6.584  0.00  0.00    +0.000 A 
ATOM     14  C   UNL     1      46.601   3.671   7.131  0.00  0.00    +0.000 A 
ATOM     15  N   UNL     1      45.733   3.509   8.159  0.00  0.00    +0.000 NA
ATOM     16  H   UNL     1      44.076   1.237   9.432  0.00  0.00    +0.000 HD
ENDBRANCH   8   9
ENDBRANCH   5   8
ENDBRANCH   1   2
BRANCH   1  19
ATOM     17  O   UNL     1      48.984   6.138  12.837  0.00  0.00    +0.000 OA
ATOM     18  C   UNL     1      48.353   7.036  13.386  0.00  0.00    +0.000 C 
ATOM     19  N   UNL     1      47.359   6.777  14.295  0.00  0.00    +0.000 N 
ATOM     20  H   UNL     1      46.740   7.525  14.590  0.00  0.00    +0.000 HD
BRANCH  18  21
ATOM     21  C   UNL     1      48.642   8.445  13.139  0.00  0.00    +0.000 A 
ATOM     22  C   UNL     1      49.939   8.938  13.244  0.00  0.00    +0.000 A 
ATOM     23  S   UNL     1      50.057  10.610  12.919  0.00  0.00    +0.000 S 
ATOM     24  C   UNL     1      48.390  10.722  12.593  0.00  0.00    +0.000 A 
ATOM     25  N   UNL     1      47.819  11.905  12.225  0.00  0.00    +0.000 NA
ATOM     26  C   UNL     1      46.558  11.824  11.969  0.00  0.00    +0.000 A 
ATOM     27  N   UNL     1      45.807  10.678  12.051  0.00  0.00    +0.000 N 
ATOM     28  C   UNL     1      46.320   9.489  12.493  0.00  0.00    +0.000 A 
ATOM     29  O   UNL     1      45.595   8.524  12.693  0.00  0.00    +0.000 OA
ATOM     30  C   UNL     1      47.746   9.507  12.752  0.00  0.00    +0.000 A 
ATOM     31  H   UNL     1      44.814  10.692  11.870  0.00  0.00    +0.000 HD
ENDBRANCH  18  21
ENDBRANCH   1  19
TORSDOF 5
ENDMDL
MODEL 7
REMARK VINA RESULT:    -7.005      2.638      3.487
REMARK INTER + INTRA:          -9.904
REMARK INTER:                  -9.425
REMARK INTRA:                  -0.480
REMARK UNBOUND:                -0.852
REMARK  Name = 
REMARK  5 active torsions:
REMARK  status: ('A' for Active; 'I' for Inactive)
REMARK    1  A    between atoms: C_2  and  C_19
REMARK    2  A    between atoms: N_3  and  C_4
REMARK    3  A    between atoms: C_4  and  C_5
REMARK    4  A    between atoms: C_8  and  C_9
REMARK    5  A    between atoms: C_9  and  N_10
REMARK                            x       y       z     vdW  Elec       q    Type
REMARK                         _______ _______ _______ _____ _____    ______ ____
ROOT
ATOM      1  C   UNL     1      48.076   6.274  14.501  0.00  0.00    +0.000 C 
ENDROOT
BRANCH   1   2
ATOM      2  C   UNL     1      47.004   5.582  13.697  0.00  0.00    +0.000 A 
ATOM      3  C   UNL     1      46.865   4.200  13.754  0.00  0.00    +0.000 A 
ATOM      4  N   UNL     1      45.873   3.530  13.117  0.00  0.00    +0.000 NA
ATOM      5  C   UNL     1      45.009   4.286  12.390  0.00  0.00    +0.000 A 
ATOM      6  C   UNL     1      45.164   5.667  12.316  0.00  0.00    +0.000 A 
ATOM      7  N   UNL     1      46.152   6.342  12.957  0.00  0.00    +0.000 NA
BRANCH   5   8
ATOM      8  C   UNL     1      43.861   3.599  11.677  0.00  0.00    +0.000 C 
BRANCH   8   9
ATOM      9  N   UNL     1      44.331   2.450  10.896  0.00  0.00    +0.000 N 
ATOM     10  C   UNL     1      44.981   2.790   9.699  0.00  0.00    +0.000 A 
ATOM     11  C   UNL     1      45.500   1.782   8.876  0.00  0.00    +0.000 A 
ATOM     12  N   UNL     1      46.123   2.012   7.691  0.00  0.00    +0.000 NA
ATOM     13  C   UNL     1      46.235   3.311   7.356  0.00  0.00    +0.000 A 
ATOM     14  C   UNL     1      45.751   4.323   8.165  0.00  0.00    +0.000 A 
ATOM     15  N   UNL     1      45.122   4.085   9.341  0.00  0.00    +0.000 NA
ATOM     16  H   UNL     1      43.597   1.775  10.706  0.00  0.00    +0.000 HD
ENDBRANCH   8   9
ENDBRANCH   5   8
ENDBRANCH   1   2
BRANCH   1  19
ATOM     17  O   UNL     1      50.200   5.948  16.305  0.00  0.00    +0.000 OA
ATOM     18  C   UNL     1      49.054   5.958  16.744  0.00  0.00    +0.000 C 
ATOM     19  N   UNL     1      47.960   6.062  15.923  0.00  0.00    +0.000 N 
ATOM     20  H   UNL     1      47.047   6.249  16.324  0.00  0.00    +0.000 HD
BRANCH  18  21
ATOM     21  C   UNL     1      48.774   5.822  18.170  0.00  0.00    +0.000 A 
ATOM     22  C   UNL     1      49.042   4.633  18.842  0.00  0.00    +0.000 A 
ATOM     23  S   UNL     1      48.636   4.685  20.499  0.00  0.00    +0.000 S 
ATOM     24  C   UNL     1      48.123   6.304  20.381  0.00  0.00    +0.000 A 
ATOM     25  N   UNL     1      47.660   6.981  21.472  0.00  0.00    +0.000 NA
ATOM     26  C   UNL     1      47.351   8.210  21.237  0.00  0.00    +0.000 A 
ATOM     27  N   UNL     1      47.450   8.829  20.016  0.00  0.00    +0.000 N 
ATOM     28  C   UNL     1      47.830   8.168  18.880  0.00  0.00    +0.000 A 
ATOM     29  O   UNL     1      47.770   8.709  17.785  0.00  0.00    +0.000 OA
ATOM     30  C   UNL     1      48.236   6.793  19.092  0.00  0.00    +0.000 A 
ATOM     31  H   UNL     1      47.156   9.788  19.893  0.00  0.00    +0.000 HD
ENDBRANCH  18  21
ENDBRANCH   1  19
TORSDOF 5
ENDMDL
MODEL 8
REMARK VINA RESULT:    -6.937      4.229      6.208
REMARK INTER + INTRA:          -9.816
REMARK INTER:                  -9.176
REMARK INTRA:                  -0.641
REMARK UNBOUND:                -0.852
REMARK  Name = 
REMARK  5 active torsions:
REMARK  status: ('A' for Active; 'I' for Inactive)
REMARK    1  A    between atoms: C_2  and  C_19
REMARK    2  A    between atoms: N_3  and  C_4
REMARK    3  A    between atoms: C_4  and  C_5
REMARK    4  A    between atoms: C_8  and  C_9
REMARK    5  A    between atoms: C_9  and  N_10
REMARK                            x       y       z     vdW  Elec       q    Type
REMARK                         _______ _______ _______ _____ _____    ______ ____
ROOT
ATOM      1  C   UNL     1      46.449   4.236  14.331  0.00  0.00    +0.000 C 
ENDROOT
BRANCH   1   2
ATOM      2  C   UNL     1      46.044   5.414  13.481  0.00  0.00    +0.000 A 
ATOM      3  C   UNL     1      44.758   5.496  12.960  0.00  0.00    +0.000 A 
ATOM      4  N   UNL     1      44.312   6.566  12.256  0.00  0.00    +0.000 NA
ATOM      5  C   UNL     1      45.205   7.572  12.064  0.00  0.00    +0.000 A 
ATOM      6  C   UNL     1      46.499   7.478  12.567  0.00  0.00    +0.000 A 
ATOM      7  N   UNL     1      46.947   6.411  13.277  0.00  0.00    +0.000 NA
BRANCH   5   8
ATOM      8  C   UNL     1      44.759   8.809  11.309  0.00  0.00    +0.000 C 
BRANCH   8   9
ATOM      9  N   UNL     1      43.325   8.759  11.007  0.00  0.00    +0.000 N 
ATOM     10  C   UNL     1      42.706  10.017  10.932  0.00  0.00    +0.000 A 
ATOM     11  C   UNL     1      41.341  10.106  10.625  0.00  0.00    +0.000 A 
ATOM     12  N   UNL     1      40.652  11.273  10.553  0.00  0.00    +0.000 NA
ATOM     13  C   UNL     1      41.387  12.378  10.781  0.00  0.00    +0.000 A 
ATOM     14  C   UNL     1      42.739  12.315  11.063  0.00  0.00    +0.000 A 
ATOM     15  N   UNL     1      43.418  11.145  11.142  0.00  0.00    +0.000 NA
ATOM     16  H   UNL     1      42.808   8.161  11.643  0.00  0.00    +0.000 HD
ENDBRANCH   8   9
ENDBRANCH   5   8
ENDBRANCH   1   2
BRANCH   1  19
ATOM     17  O   UNL     1      46.601   3.454  17.021  0.00  0.00    +0.000 OA
ATOM     18  C   UNL     1      47.549   4.063  16.533  0.00  0.00    +0.000 C 
ATOM     19  N   UNL     1      47.530   4.523  15.241  0.00  0.00    +0.000 N 
ATOM     20  H   UNL     1      48.388   4.857  14.814  0.00  0.00    +0.000 HD
BRANCH  18  21
ATOM     21  C   UNL     1      48.747   4.372  17.305  0.00  0.00    +0.000 A 
ATOM     22  C   UNL     1      48.857   5.567  18.009  0.00  0.00    +0.000 A 
ATOM     23  S   UNL     1      50.339   5.731  18.840  0.00  0.00    +0.000 S 
ATOM     24  C   UNL     1      50.866   4.200  18.319  0.00  0.00    +0.000 A 
ATOM     25  N   UNL     1      52.079   3.702  18.696  0.00  0.00    +0.000 NA
ATOM     26  C   UNL     1      52.321   2.514  18.260  0.00  0.00    +0.000 A 
ATOM     27  N   UNL     1      51.473   1.773  17.474  0.00  0.00    +0.000 N 
ATOM     28  C   UNL     1      50.284   2.263  17.005  0.00  0.00    +0.000 A 
ATOM     29  O   UNL     1      49.620   1.635  16.192  0.00  0.00    +0.000 OA
ATOM     30  C   UNL     1      49.937   3.579  17.502  0.00  0.00    +0.000 A 
ATOM     31  H   UNL     1      51.740   0.860  17.137  0.00  0.00    +0.000 HD
ENDBRANCH  18  21
ENDBRANCH   1  19
TORSDOF 5
ENDMDL
MODEL 9
REMARK VINA RESULT:    -6.920      1.516      1.824
REMARK INTER + INTRA:          -9.794
REMARK INTER:                  -9.304
REMARK INTRA:                  -0.491
REMARK UNBOUND:                -0.852
REMARK  Name = 
REMARK  5 active torsions:
REMARK  status: ('A' for Active; 'I' for Inactive)
REMARK    1  A    between atoms: C_2  and  C_19
REMARK    2  A    between atoms: N_3  and  C_4
REMARK    3  A    between atoms: C_4  and  C_5
REMARK    4  A    between atoms: C_8  and  C_9
REMARK    5  A    between atoms: C_9  and  N_10
REMARK                            x       y       z     vdW  Elec       q    Type
REMARK                         _______ _______ _______ _____ _____    ______ ____
ROOT
ATOM      1  C   UNL     1      47.922   6.716  13.467  0.00  0.00    +0.000 C 
ENDROOT
BRANCH   1   2
ATOM      2  C   UNL     1      46.805   5.936  12.820  0.00  0.00    +0.000 A 
ATOM      3  C   UNL     1      46.018   6.521  11.835  0.00  0.00    +0.000 A 
ATOM      4  N   UNL     1      45.053   5.847  11.162  0.00  0.00    +0.000 NA
ATOM      5  C   UNL     1      44.873   4.548  11.513  0.00  0.00    +0.000 A 
ATOM      6  C   UNL     1      45.646   3.970  12.515  0.00  0.00    +0.000 A 
ATOM      7  N   UNL     1      46.618   4.640  13.187  0.00  0.00    +0.000 NA
BRANCH   5   8
ATOM      8  C   UNL     1      43.827   3.731  10.779  0.00  0.00    +0.000 C 
BRANCH   8   9
ATOM      9  N   UNL     1      44.386   2.464  10.297  0.00  0.00    +0.000 N 
ATOM     10  C   UNL     1      45.195   2.585   9.155  0.00  0.00    +0.000 A 
ATOM     11  C   UNL     1      45.808   1.448   8.611  0.00  0.00    +0.000 A 
ATOM     12  N   UNL     1      46.587   1.463   7.499  0.00  0.00    +0.000 NA
ATOM     13  C   UNL     1      46.758   2.678   6.945  0.00  0.00    +0.000 A 
ATOM     14  C   UNL     1      46.181   3.815   7.479  0.00  0.00    +0.000 A 
ATOM     15  N   UNL     1      45.396   3.791   8.584  0.00  0.00    +0.000 NA
ATOM     16  H   UNL     1      43.677   1.755  10.139  0.00  0.00    +0.000 HD
ENDBRANCH   8   9
ENDBRANCH   5   8
ENDBRANCH   1   2
BRANCH   1  19
ATOM     17  O   UNL     1      50.217   6.921  15.069  0.00  0.00    +0.000 OA
ATOM     18  C   UNL     1      49.134   6.731  15.616  0.00  0.00    +0.000 C 
ATOM     19  N   UNL     1      47.976   6.569  14.900  0.00  0.00    +0.000 N 
ATOM     20  H   UNL     1      47.081   6.596  15.379  0.00  0.00    +0.000 HD
BRANCH  18  21
ATOM     21  C   UNL     1      49.011   6.626  17.066  0.00  0.00    +0.000 A 
ATOM     22  C   UNL     1      49.108   7.754  17.876  0.00  0.00    +0.000 A 
ATOM     23  S   UNL     1      48.941   7.410  19.539  0.00  0.00    +0.000 S 
ATOM     24  C   UNL     1      48.698   5.754  19.231  0.00  0.00    +0.000 A 
ATOM     25  N   UNL     1      48.471   4.871  20.246  0.00  0.00    +0.000 NA
ATOM     26  C   UNL     1      48.261   3.661  19.855  0.00  0.00    +0.000 A 
ATOM     27  N   UNL     1      48.265   3.242  18.548  0.00  0.00    +0.000 N 
ATOM     28  C   UNL     1      48.568   4.075  17.506  0.00  0.00    +0.000 A 
ATOM     29  O   UNL     1      48.705   3.641  16.370  0.00  0.00    +0.000 OA
ATOM     30  C   UNL     1      48.767   5.460  17.880  0.00  0.00    +0.000 A 
ATOM     31  H   UNL     1      48.128   2.269  18.312  0.00  0.00    +0.000 HD
ENDBRANCH  18  21
ENDBRANCH   1  19
TORSDOF 5
ENDMDL
