MODEL 1
REMARK VINA RESULT:    -8.178      0.000      0.000
REMARK INTER + INTRA:         -12.764
REMARK INTER:                 -11.525
REMARK INTRA:                  -1.239
REMARK UNBOUND:                -1.239
REMARK  Name = 
REMARK  8 active torsions:
REMARK  status: ('A' for Active; 'I' for Inactive)
REMARK    1  A    between atoms: C_1  and  N_2
REMARK    2  A    between atoms: C_4  and  C_5
REMARK    3  A    between atoms: N_7  and  C_8
REMARK    4  A    between atoms: C_8  and  C_9
REMARK    5  A    between atoms: C_12  and  N_13
REMARK    6  A    between atoms: N_13  and  C_14
REMARK    7  A    between atoms: C_14  and  C_15
REMARK    8  A    between atoms: C_15  and  C_16
REMARK                            x       y       z     vdW  Elec       q    Type
REMARK                         _______ _______ _______ _____ _____    ______ ____
ROOT
ATOM      1  C   UNL     1      47.339   8.437  13.447  0.00  0.00    +0.000 C 
ENDROOT
BRANCH   1   2
ATOM      2  C   UNL     1      46.445   7.613  12.555  0.00  0.00    +0.000 A 
ATOM      3  C   UNL     1      46.986   6.611  11.744  0.00  0.00    +0.000 A 
ATOM      4  C   UNL     1      46.157   5.797  10.963  0.00  0.00    +0.000 A 
ATOM      5  C   UNL     1      44.773   5.973  10.950  0.00  0.00    +0.000 A 
ATOM      6  C   UNL     1      44.239   7.012  11.725  0.00  0.00    +0.000 A 
ATOM      7  C   UNL     1      45.058   7.811  12.527  0.00  0.00    +0.000 A 
BRANCH   5   8
ATOM      8  N   UNL     1      43.890   5.146  10.261  0.00  0.00    +0.000 N 
ATOM      9  H   UNL     1      43.138   5.629   9.776  0.00  0.00    +0.000 HD
BRANCH   8  10
ATOM     10  C   UNL     1      44.350   3.864   9.745  0.00  0.00    +0.000 C 
BRANCH  10  11
ATOM     11  C   UNL     1      44.616   3.947   8.239  0.00  0.00    +0.000 C 
BRANCH  11  12
ATOM     12  C   UNL     1      45.767   3.065   7.825  0.00  0.00    +0.000 A 
ATOM     13  C   UNL     1      46.820   3.559   7.048  0.00  0.00    +0.000 A 
ATOM     14  C   UNL     1      47.848   2.695   6.696  0.00  0.00    +0.000 A 
ATOM     15  N   UNL     1      47.890   1.393   7.049  0.00  0.00    +0.000 NA
ATOM     16  C   UNL     1      46.860   0.933   7.789  0.00  0.00    +0.000 A 
ATOM     17  C   UNL     1      45.789   1.717   8.191  0.00  0.00    +0.000 A 
ENDBRANCH  11  12
ENDBRANCH  10  11
ENDBRANCH   8  10
ENDBRANCH   5   8
ENDBRANCH   1   2
BRANCH   1  20
ATOM     18  C   UNL     1      48.856   7.058  14.790  0.00  0.00    +0.000 C 
ATOM     19  O   UNL     1      49.677   6.996  13.885  0.00  0.00    +0.000 OA
ATOM     20  N   UNL     1      47.680   7.758  14.675  0.00  0.00    +0.000 N 
ATOM     21  H   UNL     1      46.997   7.714  15.414  0.00  0.00    +0.000 HD
BRANCH  18  25
ATOM     22  C   UNL     1      50.728   5.990  19.294  0.00  0.00    +0.000 C 
ATOM     23  N   UNL     1      49.928   5.927  18.093  0.00  0.00    +0.000 N 
ATOM     24  C   UNL     1      49.973   6.811  17.051  0.00  0.00    +0.000 A 
ATOM     25  C   UNL     1      49.067   6.398  16.078  0.00  0.00    +0.000 A 
ATOM     26  C   UNL     1      48.441   5.199  16.579  0.00  0.00    +0.000 A 
ATOM     27  C   UNL     1      47.477   4.267  16.202  0.00  0.00    +0.000 A 
ATOM     28 CL   UNL     1      46.626   4.403  14.746  0.00  0.00    +0.000 Cl
ATOM     29  N   UNL     1      47.134   3.234  16.987  0.00  0.00    +0.000 NA
ATOM     30  C   UNL     1      47.764   3.122  18.161  0.00  0.00    +0.000 A 
ATOM     31  N   UNL     1      48.710   3.934  18.661  0.00  0.00    +0.000 NA
ATOM     32  C   UNL     1      49.005   4.950  17.829  0.00  0.00    +0.000 A 
ENDBRANCH  18  25
ENDBRANCH   1  20
TORSDOF 7
ENDMDL
MODEL 2
REMARK VINA RESULT:    -7.572      2.022      2.504
REMARK INTER + INTRA:         -11.910
REMARK INTER:                 -11.057
REMARK INTRA:                  -0.853
REMARK UNBOUND:                -1.239
REMARK  Name = 
REMARK  8 active torsions:
REMARK  status: ('A' for Active; 'I' for Inactive)
REMARK    1  A    between atoms: C_1  and  N_2
REMARK    2  A    between atoms: C_4  and  C_5
REMARK    3  A    between atoms: N_7  and  C_8
REMARK    4  A    between atoms: C_8  and  C_9
REMARK    5  A    between atoms: C_12  and  N_13
REMARK    6  A    between atoms: N_13  and  C_14
REMARK    7  A    between atoms: C_14  and  C_15
REMARK    8  A    between atoms: C_15  and  C_16
REMARK                            x       y       z     vdW  Elec       q    Type
REMARK                         _______ _______ _______ _____ _____    ______ ____
ROOT
ATOM      1  C   UNL     1      48.600   6.937  13.821  0.00  0.00    +0.000 C 
ENDROOT
BRANCH   1   2
ATOM      2  C   UNL     1      47.506   6.238  13.055  0.00  0.00    +0.000 A 
ATOM      3  C   UNL     1      46.910   5.083  13.569  0.00  0.00    +0.000 A 
ATOM      4  C   UNL     1      45.849   4.465  12.896  0.00  0.00    +0.000 A 
ATOM      5  C   UNL     1      45.369   4.966  11.685  0.00  0.00    +0.000 A 
ATOM      6  C   UNL     1      46.003   6.094  11.148  0.00  0.00    +0.000 A 
ATOM      7  C   UNL     1      47.045   6.730  11.826  0.00  0.00    +0.000 A 
BRANCH   5   8
ATOM      8  N   UNL     1      44.266   4.447  11.012  0.00  0.00    +0.000 N 
ATOM      9  H   UNL     1      43.544   5.125  10.784  0.00  0.00    +0.000 HD
BRANCH   8  10
ATOM     10  C   UNL     1      44.421   3.272  10.164  0.00  0.00    +0.000 C 
BRANCH  10  11
ATOM     11  C   UNL     1      44.661   3.680   8.708  0.00  0.00    +0.000 C 
BRANCH  11  12
ATOM     12  C   UNL     1      45.768   2.874   8.076  0.00  0.00    +0.000 A 
ATOM     13  C   UNL     1      45.883   1.497   8.297  0.00  0.00    +0.000 A 
ATOM     14  C   UNL     1      46.927   0.812   7.690  0.00  0.00    +0.000 A 
ATOM     15  N   UNL     1      47.854   1.399   6.903  0.00  0.00    +0.000 NA
ATOM     16  C   UNL     1      47.732   2.729   6.712  0.00  0.00    +0.000 A 
ATOM     17  C   UNL     1      46.725   3.499   7.272  0.00  0.00    +0.000 A 
ENDBRANCH  11  12
ENDBRANCH  10  11
ENDBRANCH   8  10
ENDBRANCH   5   8
ENDBRANCH   1   2
BRANCH   1  20
ATOM     18  C   UNL     1      49.096   6.748  16.214  0.00  0.00    +0.000 C 
ATOM     19  O   UNL     1      50.172   6.210  15.996  0.00  0.00    +0.000 OA
ATOM     20  N   UNL     1      48.256   7.158  15.207  0.00  0.00    +0.000 N 
ATOM     21  H   UNL     1      47.345   7.522  15.431  0.00  0.00    +0.000 HD
BRANCH  18  25
ATOM     22  C   UNL     1      47.289   9.163  20.194  0.00  0.00    +0.000 C 
ATOM     23  N   UNL     1      47.816   8.116  19.350  0.00  0.00    +0.000 N 
ATOM     24  C   UNL     1      48.117   8.232  18.021  0.00  0.00    +0.000 A 
ATOM     25  C   UNL     1      48.617   7.012  17.571  0.00  0.00    +0.000 A 
ATOM     26  C   UNL     1      48.603   6.117  18.702  0.00  0.00    +0.000 A 
ATOM     27  C   UNL     1      48.921   4.799  19.016  0.00  0.00    +0.000 A 
ATOM     28 CL   UNL     1      49.502   3.718  17.850  0.00  0.00    +0.000 Cl
ATOM     29  N   UNL     1      48.746   4.293  20.247  0.00  0.00    +0.000 NA
ATOM     30  C   UNL     1      48.253   5.113  21.181  0.00  0.00    +0.000 A 
ATOM     31  N   UNL     1      47.900   6.402  21.033  0.00  0.00    +0.000 NA
ATOM     32  C   UNL     1      48.097   6.845  19.777  0.00  0.00    +0.000 A 
ENDBRANCH  18  25
ENDBRANCH   1  20
TORSDOF 7
ENDMDL
MODEL 3
REMARK VINA RESULT:    -7.464      2.335      3.223
REMARK INTER + INTRA:         -11.758
REMARK INTER:                 -10.842
REMARK INTRA:                  -0.916
REMARK UNBOUND:                -1.239
REMARK  Name = 
REMARK  8 active torsions:
REMARK  status: ('A' for Active; 'I' for Inactive)
REMARK    1  A    between atoms: C_1  and  N_2
REMARK    2  A    between atoms: C_4  and  C_5
REMARK    3  A    between atoms: N_7  and  C_8
REMARK    4  A    between atoms: C_8  and  C_9
REMARK    5  A    between atoms: C_12  and  N_13
REMARK    6  A    between atoms: N_13  and  C_14
REMARK    7  A    between atoms: C_14  and  C_15
REMARK    8  A    between atoms: C_15  and  C_16
REMARK                            x       y       z     vdW  Elec       q    Type
REMARK                         _______ _______ _______ _____ _____    ______ ____
ROOT
ATOM      1  C   UNL     1      46.927   4.250  14.607  0.00  0.00    +0.000 C 
ENDROOT
BRANCH   1   2
ATOM      2  C   UNL     1      46.202   4.431  13.297  0.00  0.00    +0.000 A 
ATOM      3  C   UNL     1      46.170   5.681  12.674  0.00  0.00    +0.000 A 
ATOM      4  C   UNL     1      45.556   5.844  11.427  0.00  0.00    +0.000 A 
ATOM      5  C   UNL     1      44.939   4.773  10.778  0.00  0.00    +0.000 A 
ATOM      6  C   UNL     1      44.929   3.532  11.429  0.00  0.00    +0.000 A 
ATOM      7  C   UNL     1      45.562   3.357  12.662  0.00  0.00    +0.000 A 
BRANCH   5   8
ATOM      8  N   UNL     1      44.386   4.851   9.502  0.00  0.00    +0.000 N 
ATOM      9  H   UNL     1      44.147   5.791   9.195  0.00  0.00    +0.000 HD
BRANCH   8  10
ATOM     10  C   UNL     1      44.725   3.848   8.502  0.00  0.00    +0.000 C 
BRANCH  10  11
ATOM     11  C   UNL     1      46.047   4.195   7.811  0.00  0.00    +0.000 C 
BRANCH  11  12
ATOM     12  C   UNL     1      46.607   3.018   7.052  0.00  0.00    +0.000 A 
ATOM     13  C   UNL     1      46.942   3.117   5.697  0.00  0.00    +0.000 A 
ATOM     14  C   UNL     1      47.449   1.996   5.054  0.00  0.00    +0.000 A 
ATOM     15  N   UNL     1      47.630   0.802   5.657  0.00  0.00    +0.000 NA
ATOM     16  C   UNL     1      47.292   0.723   6.961  0.00  0.00    +0.000 A 
ATOM     17  C   UNL     1      46.779   1.786   7.689  0.00  0.00    +0.000 A 
ENDBRANCH  11  12
ENDBRANCH  10  11
ENDBRANCH   8  10
ENDBRANCH   5   8
ENDBRANCH   1   2
BRANCH   1  20
ATOM     18  C   UNL     1      48.418   5.486  16.109  0.00  0.00    +0.000 C 
ATOM     19  O   UNL     1      48.885   4.454  16.570  0.00  0.00    +0.000 OA
ATOM     20  N   UNL     1      47.458   5.489  15.126  0.00  0.00    +0.000 N 
ATOM     21  H   UNL     1      47.043   6.358  14.834  0.00  0.00    +0.000 HD
BRANCH  18  25
ATOM     22  C   UNL     1      50.752   9.898  16.234  0.00  0.00    +0.000 C 
ATOM     23  N   UNL     1      49.918   8.779  16.605  0.00  0.00    +0.000 N 
ATOM     24  C   UNL     1      49.695   7.659  15.852  0.00  0.00    +0.000 A 
ATOM     25  C   UNL     1      48.852   6.807  16.561  0.00  0.00    +0.000 A 
ATOM     26  C   UNL     1      48.551   7.468  17.808  0.00  0.00    +0.000 A 
ATOM     27  C   UNL     1      47.807   7.261  18.966  0.00  0.00    +0.000 A 
ATOM     28 CL   UNL     1      46.861   5.874  19.183  0.00  0.00    +0.000 Cl
ATOM     29  N   UNL     1      47.759   8.163  19.958  0.00  0.00    +0.000 NA
ATOM     30  C   UNL     1      48.468   9.286  19.798  0.00  0.00    +0.000 A 
ATOM     31  N   UNL     1      49.229   9.628  18.745  0.00  0.00    +0.000 NA
ATOM     32  C   UNL     1      49.231   8.684  17.786  0.00  0.00    +0.000 A 
ENDBRANCH  18  25
ENDBRANCH   1  20
TORSDOF 7
ENDMDL
MODEL 4
REMARK VINA RESULT:    -7.432      2.126      3.547
REMARK INTER + INTRA:         -11.712
REMARK INTER:                 -10.685
REMARK INTRA:                  -1.026
REMARK UNBOUND:                -1.239
REMARK  Name = 
REMARK  8 active torsions:
REMARK  status: ('A' for Active; 'I' for Inactive)
REMARK    1  A    between atoms: C_1  and  N_2
REMARK    2  A    between atoms: C_4  and  C_5
REMARK    3  A    between atoms: N_7  and  C_8
REMARK    4  A    between atoms: C_8  and  C_9
REMARK    5  A    between atoms: C_12  and  N_13
REMARK    6  A    between atoms: N_13  and  C_14
REMARK    7  A    between atoms: C_14  and  C_15
REMARK    8  A    between atoms: C_15  and  C_16
REMARK                            x       y       z     vdW  Elec       q    Type
REMARK                         _______ _______ _______ _____ _____    ______ ____
ROOT
ATOM      1  C   UNL     1      46.579   4.281  14.428  0.00  0.00    +0.000 C 
ENDROOT
BRANCH   1   2
ATOM      2  C   UNL     1      45.853   4.416  13.113  0.00  0.00    +0.000 A 
ATOM      3  C   UNL     1      45.866   5.629  12.420  0.00  0.00    +0.000 A 
ATOM      4  C   UNL     1      45.250   5.745  11.168  0.00  0.00    +0.000 A 
ATOM      5  C   UNL     1      44.588   4.664  10.584  0.00  0.00    +0.000 A 
ATOM      6  C   UNL     1      44.534   3.464  11.305  0.00  0.00    +0.000 A 
ATOM      7  C   UNL     1      45.168   3.334  12.543  0.00  0.00    +0.000 A 
BRANCH   5   8
ATOM      8  N   UNL     1      44.030   4.691   9.309  0.00  0.00    +0.000 N 
ATOM      9  H   UNL     1      43.652   5.592   9.024  0.00  0.00    +0.000 HD
BRANCH   8  10
ATOM     10  C   UNL     1      44.518   3.778   8.284  0.00  0.00    +0.000 C 
BRANCH  10  11
ATOM     11  C   UNL     1      45.964   4.108   7.905  0.00  0.00    +0.000 C 
BRANCH  11  12
ATOM     12  C   UNL     1      46.592   3.010   7.083  0.00  0.00    +0.000 A 
ATOM     13  C   UNL     1      46.971   3.221   5.754  0.00  0.00    +0.000 A 
ATOM     14  C   UNL     1      47.540   2.168   5.050  0.00  0.00    +0.000 A 
ATOM     15  N   UNL     1      47.740   0.938   5.568  0.00  0.00    +0.000 NA
ATOM     16  C   UNL     1      47.358   0.751   6.849  0.00  0.00    +0.000 A 
ATOM     17  C   UNL     1      46.783   1.740   7.633  0.00  0.00    +0.000 A 
ENDBRANCH  11  12
ENDBRANCH  10  11
ENDBRANCH   8  10
ENDBRANCH   5   8
ENDBRANCH   1   2
BRANCH   1  20
ATOM     18  C   UNL     1      48.296   5.480  15.702  0.00  0.00    +0.000 C 
ATOM     19  O   UNL     1      48.755   4.440  16.152  0.00  0.00    +0.000 OA
ATOM     20  N   UNL     1      47.233   5.504  14.832  0.00  0.00    +0.000 N 
ATOM     21  H   UNL     1      46.835   6.385  14.551  0.00  0.00    +0.000 HD
BRANCH  18  25
ATOM     22  C   UNL     1      49.717   9.444  18.385  0.00  0.00    +0.000 C 
ATOM     23  N   UNL     1      49.470   8.565  17.266  0.00  0.00    +0.000 N 
ATOM     24  C   UNL     1      48.951   7.301  17.338  0.00  0.00    +0.000 A 
ATOM     25  C   UNL     1      48.849   6.789  16.047  0.00  0.00    +0.000 A 
ATOM     26  C   UNL     1      49.347   7.810  15.157  0.00  0.00    +0.000 A 
ATOM     27  C   UNL     1      49.562   8.021  13.798  0.00  0.00    +0.000 A 
ATOM     28 CL   UNL     1      49.228   6.826  12.646  0.00  0.00    +0.000 Cl
ATOM     29  N   UNL     1      50.086   9.161  13.323  0.00  0.00    +0.000 NA
ATOM     30  C   UNL     1      50.394  10.110  14.214  0.00  0.00    +0.000 A 
ATOM     31  N   UNL     1      50.246  10.056  15.549  0.00  0.00    +0.000 NA
ATOM     32  C   UNL     1      49.720   8.887  15.959  0.00  0.00    +0.000 A 
ENDBRANCH  18  25
ENDBRANCH   1  20
TORSDOF 7
ENDMDL
MODEL 5
REMARK VINA RESULT:    -7.206      2.698      4.531
REMARK INTER + INTRA:         -11.393
REMARK INTER:                 -10.379
REMARK INTRA:                  -1.015
REMARK UNBOUND:                -1.239
REMARK  Name = 
REMARK  8 active torsions:
REMARK  status: ('A' for Active; 'I' for Inactive)
REMARK    1  A    between atoms: C_1  and  N_2
REMARK    2  A    between atoms: C_4  and  C_5
REMARK    3  A    between atoms: N_7  and  C_8
REMARK    4  A    between atoms: C_8  and  C_9
REMARK    5  A    between atoms: C_12  and  N_13
REMARK    6  A    between atoms: N_13  and  C_14
REMARK    7  A    between atoms: C_14  and  C_15
REMARK    8  A    between atoms: C_15  and  C_16
REMARK                            x       y       z     vdW  Elec       q    Type
REMARK                         _______ _______ _______ _____ _____    ______ ____
ROOT
ATOM      1  C   UNL     1      47.261   5.550  14.175  0.00  0.00    +0.000 C 
ENDROOT
BRANCH   1   2
ATOM      2  C   UNL     1      46.476   5.257  12.922  0.00  0.00    +0.000 A 
ATOM      3  C   UNL     1      45.802   4.042  12.778  0.00  0.00    +0.000 A 
ATOM      4  C   UNL     1      45.017   3.787  11.648  0.00  0.00    +0.000 A 
ATOM      5  C   UNL     1      44.899   4.726  10.622  0.00  0.00    +0.000 A 
ATOM      6  C   UNL     1      45.616   5.923  10.746  0.00  0.00    +0.000 A 
ATOM      7  C   UNL     1      46.382   6.194  11.883  0.00  0.00    +0.000 A 
BRANCH   5   8
ATOM      8  N   UNL     1      44.069   4.568   9.515  0.00  0.00    +0.000 N 
ATOM      9  H   UNL     1      43.479   5.368   9.303  0.00  0.00    +0.000 HD
BRANCH   8  10
ATOM     10  C   UNL     1      44.469   3.681   8.430  0.00  0.00    +0.000 C 
BRANCH  10  11
ATOM     11  C   UNL     1      45.814   4.114   7.841  0.00  0.00    +0.000 C 
BRANCH  11  12
ATOM     12  C   UNL     1      46.483   2.990   7.089  0.00  0.00    +0.000 A 
ATOM     13  C   UNL     1      46.704   1.745   7.686  0.00  0.00    +0.000 A 
ATOM     14  C   UNL     1      47.328   0.753   6.942  0.00  0.00    +0.000 A 
ATOM     15  N   UNL     1      47.750   0.920   5.670  0.00  0.00    +0.000 NA
ATOM     16  C   UNL     1      47.537   2.132   5.116  0.00  0.00    +0.000 A 
ATOM     17  C   UNL     1      46.922   3.184   5.777  0.00  0.00    +0.000 A 
ENDBRANCH  11  12
ENDBRANCH  10  11
ENDBRANCH   8  10
ENDBRANCH   5   8
ENDBRANCH   1   2
BRANCH   1  20
ATOM     18  C   UNL     1      48.907   7.252  14.811  0.00  0.00    +0.000 C 
ATOM     19  O   UNL     1      49.683   6.409  15.239  0.00  0.00    +0.000 OA
ATOM     20  N   UNL     1      47.695   6.926  14.252  0.00  0.00    +0.000 N 
ATOM     21  H   UNL     1      47.053   7.655  13.988  0.00  0.00    +0.000 HD
BRANCH  18  25
ATOM     22  C   UNL     1      49.674  11.870  16.549  0.00  0.00    +0.000 C 
ATOM     23  N   UNL     1      49.542  10.751  15.645  0.00  0.00    +0.000 N 
ATOM     24  C   UNL     1      49.285   9.456  16.003  0.00  0.00    +0.000 A 
ATOM     25  C   UNL     1      49.213   8.682  14.848  0.00  0.00    +0.000 A 
ATOM     26  C   UNL     1      49.451   9.572  13.738  0.00  0.00    +0.000 A 
ATOM     27  C   UNL     1      49.544   9.536  12.350  0.00  0.00    +0.000 A 
ATOM     28 CL   UNL     1      49.387   8.092  11.481  0.00  0.00    +0.000 Cl
ATOM     29  N   UNL     1      49.808  10.632  11.620  0.00  0.00    +0.000 NA
ATOM     30  C   UNL     1      49.975  11.782  12.283  0.00  0.00    +0.000 A 
ATOM     31  N   UNL     1      49.915  11.975  13.611  0.00  0.00    +0.000 NA
ATOM     32  C   UNL     1      49.651  10.839  14.283  0.00  0.00    +0.000 A 
ENDBRANCH  18  25
ENDBRANCH   1  20
TORSDOF 7
ENDMDL
MODEL 6
REMARK VINA RESULT:    -7.179      2.462      3.517
REMARK INTER + INTRA:         -11.356
REMARK INTER:                 -10.274
REMARK INTRA:                  -1.082
REMARK UNBOUND:                -1.239
REMARK  Name = 
REMARK  8 active torsions:
REMARK  status: ('A' for Active; 'I' for Inactive)
REMARK    1  A    between atoms: C_1  and  N_2
REMARK    2  A    between atoms: C_4  and  C_5
REMARK    3  A    between atoms: N_7  and  C_8
REMARK    4  A    between atoms: C_8  and  C_9
REMARK    5  A    between atoms: C_12  and  N_13
REMARK    6  A    between atoms: N_13  and  C_14
REMARK    7  A    between atoms: C_14  and  C_15
REMARK    8  A    between atoms: C_15  and  C_16
REMARK                            x       y       z     vdW  Elec       q    Type
REMARK                         _______ _______ _______ _____ _____    ______ ____
ROOT
ATOM      1  C   UNL     1      47.366   3.976  15.404  0.00  0.00    +0.000 C 
ENDROOT
BRANCH   1   2
ATOM      2  C   UNL     1      46.773   4.321  14.061  0.00  0.00    +0.000 A 
ATOM      3  C   UNL     1      46.132   3.341  13.299  0.00  0.00    +0.000 A 
ATOM      4  C   UNL     1      45.521   3.665  12.082  0.00  0.00    +0.000 A 
ATOM      5  C   UNL     1      45.552   4.968  11.581  0.00  0.00    +0.000 A 
ATOM      6  C   UNL     1      46.239   5.937  12.324  0.00  0.00    +0.000 A 
ATOM      7  C   UNL     1      46.829   5.626  13.551  0.00  0.00    +0.000 A 
BRANCH   5   8
ATOM      8  N   UNL     1      44.894   5.371  10.422  0.00  0.00    +0.000 N 
ATOM      9  H   UNL     1      44.295   6.186  10.529  0.00  0.00    +0.000 HD
BRANCH   8  10
ATOM     10  C   UNL     1      45.488   5.100   9.120  0.00  0.00    +0.000 C 
BRANCH  10  11
ATOM     11  C   UNL     1      44.852   3.865   8.477  0.00  0.00    +0.000 C 
BRANCH  11  12
ATOM     12  C   UNL     1      45.890   2.944   7.886  0.00  0.00    +0.000 A 
ATOM     13  C   UNL     1      46.809   3.399   6.935  0.00  0.00    +0.000 A 
ATOM     14  C   UNL     1      47.737   2.501   6.426  0.00  0.00    +0.000 A 
ATOM     15  N   UNL     1      47.801   1.201   6.785  0.00  0.00    +0.000 NA
ATOM     16  C   UNL     1      46.899   0.780   7.695  0.00  0.00    +0.000 A 
ATOM     17  C   UNL     1      45.935   1.599   8.262  0.00  0.00    +0.000 A 
ENDBRANCH  11  12
ENDBRANCH  10  11
ENDBRANCH   8  10
ENDBRANCH   5   8
ENDBRANCH   1   2
BRANCH   1  20
ATOM     18  C   UNL     1      48.498   5.718  16.706  0.00  0.00    +0.000 C 
ATOM     19  O   UNL     1      49.594   5.398  16.268  0.00  0.00    +0.000 OA
ATOM     20  N   UNL     1      47.337   5.087  16.328  0.00  0.00    +0.000 N 
ATOM     21  H   UNL     1      46.468   5.328  16.774  0.00  0.00    +0.000 HD
BRANCH  18  25
ATOM     22  C   UNL     1      47.545   8.166  20.951  0.00  0.00    +0.000 C 
ATOM     23  N   UNL     1      47.887   7.894  19.575  0.00  0.00    +0.000 N 
ATOM     24  C   UNL     1      48.008   6.655  19.009  0.00  0.00    +0.000 A 
ATOM     25  C   UNL     1      48.330   6.811  17.663  0.00  0.00    +0.000 A 
ATOM     26  C   UNL     1      48.414   8.230  17.420  0.00  0.00    +0.000 A 
ATOM     27  C   UNL     1      48.688   9.115  16.382  0.00  0.00    +0.000 A 
ATOM     28 CL   UNL     1      49.105   8.573  14.833  0.00  0.00    +0.000 Cl
ATOM     29  N   UNL     1      48.684  10.447  16.553  0.00  0.00    +0.000 NA
ATOM     30  C   UNL     1      48.394  10.904  17.776  0.00  0.00    +0.000 A 
ATOM     31  N   UNL     1      48.109  10.181  18.872  0.00  0.00    +0.000 NA
ATOM     32  C   UNL     1      48.134   8.857  18.633  0.00  0.00    +0.000 A 
ENDBRANCH  18  25
ENDBRANCH   1  20
TORSDOF 7
ENDMDL
MODEL 7
REMARK VINA RESULT:    -6.988      1.636      2.761
REMARK INTER + INTRA:         -11.087
REMARK INTER:                 -10.260
REMARK INTRA:                  -0.827
REMARK UNBOUND:                -1.239
REMARK  Name = 
REMARK  8 active torsions:
REMARK  status: ('A' for Active; 'I' for Inactive)
REMARK    1  A    between atoms: C_1  and  N_2
REMARK    2  A    between atoms: C_4  and  C_5
REMARK    3  A    between atoms: N_7  and  C_8
REMARK    4  A    between atoms: C_8  and  C_9
REMARK    5  A    between atoms: C_12  and  N_13
REMARK    6  A    between atoms: N_13  and  C_14
REMARK    7  A    between atoms: C_14  and  C_15
REMARK    8  A    between atoms: C_15  and  C_16
REMARK                            x       y       z     vdW  Elec       q    Type
REMARK                         _______ _______ _______ _____ _____    ______ ____
ROOT
ATOM      1  C   UNL     1      47.554   8.306  13.734  0.00  0.00    +0.000 C 
ENDROOT
BRANCH   1   2
ATOM      2  C   UNL     1      46.621   7.483  12.883  0.00  0.00    +0.000 A 
ATOM      3  C   UNL     1      45.500   8.071  12.291  0.00  0.00    +0.000 A 
ATOM      4  C   UNL     1      44.665   7.331  11.446  0.00  0.00    +0.000 A 
ATOM      5  C   UNL     1      44.911   5.982  11.186  0.00  0.00    +0.000 A 
ATOM      6  C   UNL     1      46.007   5.383  11.821  0.00  0.00    +0.000 A 
ATOM      7  C   UNL     1      46.858   6.122  12.645  0.00  0.00    +0.000 A 
BRANCH   5   8
ATOM      8  N   UNL     1      44.168   5.215  10.292  0.00  0.00    +0.000 N 
ATOM      9  H   UNL     1      43.517   5.740   9.712  0.00  0.00    +0.000 HD
BRANCH   8  10
ATOM     10  C   UNL     1      44.715   3.965   9.780  0.00  0.00    +0.000 C 
BRANCH  10  11
ATOM     11  C   UNL     1      44.739   3.969   8.249  0.00  0.00    +0.000 C 
BRANCH  11  12
ATOM     12  C   UNL     1      45.788   3.032   7.704  0.00  0.00    +0.000 A 
ATOM     13  C   UNL     1      45.963   1.749   8.231  0.00  0.00    +0.000 A 
ATOM     14  C   UNL     1      46.949   0.936   7.688  0.00  0.00    +0.000 A 
ATOM     15  N   UNL     1      47.765   1.314   6.682  0.00  0.00    +0.000 NA
ATOM     16  C   UNL     1      47.588   2.560   6.194  0.00  0.00    +0.000 A 
ATOM     17  C   UNL     1      46.630   3.444   6.668  0.00  0.00    +0.000 A 
ENDBRANCH  11  12
ENDBRANCH  10  11
ENDBRANCH   8  10
ENDBRANCH   5   8
ENDBRANCH   1   2
BRANCH   1  20
ATOM     18  C   UNL     1      48.990   7.062  15.283  0.00  0.00    +0.000 C 
ATOM     19  O   UNL     1      49.890   6.984  14.459  0.00  0.00    +0.000 OA
ATOM     20  N   UNL     1      47.805   7.708  15.025  0.00  0.00    +0.000 N 
ATOM     21  H   UNL     1      47.060   7.677  15.701  0.00  0.00    +0.000 HD
BRANCH  18  25
ATOM     22  C   UNL     1      48.717   3.791  19.046  0.00  0.00    +0.000 C 
ATOM     23  N   UNL     1      48.964   5.003  18.300  0.00  0.00    +0.000 N 
ATOM     24  C   UNL     1      48.773   5.171  16.956  0.00  0.00    +0.000 A 
ATOM     25  C   UNL     1      49.105   6.481  16.620  0.00  0.00    +0.000 A 
ATOM     26  C   UNL     1      49.526   7.126  17.840  0.00  0.00    +0.000 A 
ATOM     27  C   UNL     1      49.993   8.361  18.281  0.00  0.00    +0.000 A 
ATOM     28 CL   UNL     1      50.244   9.652  17.216  0.00  0.00    +0.000 Cl
ATOM     29  N   UNL     1      50.313   8.590  19.564  0.00  0.00    +0.000 NA
ATOM     30  C   UNL     1      50.160   7.575  20.423  0.00  0.00    +0.000 A 
ATOM     31  N   UNL     1      49.723   6.334  20.151  0.00  0.00    +0.000 NA
ATOM     32  C   UNL     1      49.424   6.170  18.849  0.00  0.00    +0.000 A 
ENDBRANCH  18  25
ENDBRANCH   1  20
TORSDOF 7
ENDMDL
MODEL 8
REMARK VINA RESULT:    -6.737      3.611      5.672
REMARK INTER + INTRA:         -10.732
REMARK INTER:                  -9.995
REMARK INTRA:                  -0.737
REMARK UNBOUND:                -1.239
REMARK  Name = 
REMARK  8 active torsions:
REMARK  status: ('A' for Active; 'I' for Inactive)
REMARK    1  A    between atoms: C_1  and  N_2
REMARK    2  A    between atoms: C_4  and  C_5
REMARK    3  A    between atoms: N_7  and  C_8
REMARK    4  A    between atoms: C_8  and  C_9
REMARK    5  A    between atoms: C_12  and  N_13
REMARK    6  A    between atoms: N_13  and  C_14
REMARK    7  A    between atoms: C_14  and  C_15
REMARK    8  A    between atoms: C_15  and  C_16
REMARK                            x       y       z     vdW  Elec       q    Type
REMARK                         _______ _______ _______ _____ _____    ______ ____
ROOT
ATOM      1  C   UNL     1      47.836   6.810  13.561  0.00  0.00    +0.000 C 
ENDROOT
BRANCH   1   2
ATOM      2  C   UNL     1      46.743   6.097  12.806  0.00  0.00    +0.000 A 
ATOM      3  C   UNL     1      46.442   6.459  11.491  0.00  0.00    +0.000 A 
ATOM      4  C   UNL     1      45.474   5.760  10.760  0.00  0.00    +0.000 A 
ATOM      5  C   UNL     1      44.767   4.698  11.325  0.00  0.00    +0.000 A 
ATOM      6  C   UNL     1      45.036   4.371  12.661  0.00  0.00    +0.000 A 
ATOM      7  C   UNL     1      46.018   5.048  13.388  0.00  0.00    +0.000 A 
BRANCH   5   8
ATOM      8  N   UNL     1      43.855   3.911  10.626  0.00  0.00    +0.000 N 
ATOM      9  H   UNL     1      42.952   4.349  10.456  0.00  0.00    +0.000 HD
BRANCH   8  10
ATOM     10  C   UNL     1      44.334   2.901   9.693  0.00  0.00    +0.000 C 
BRANCH  10  11
ATOM     11  C   UNL     1      44.724   3.537   8.356  0.00  0.00    +0.000 C 
BRANCH  11  12
ATOM     12  C   UNL     1      45.844   2.782   7.683  0.00  0.00    +0.000 A 
ATOM     13  C   UNL     1      46.208   1.497   8.098  0.00  0.00    +0.000 A 
ATOM     14  C   UNL     1      47.251   0.857   7.441  0.00  0.00    +0.000 A 
ATOM     15  N   UNL     1      47.950   1.407   6.426  0.00  0.00    +0.000 NA
ATOM     16  C   UNL     1      47.590   2.652   6.047  0.00  0.00    +0.000 A 
ATOM     17  C   UNL     1      46.563   3.371   6.640  0.00  0.00    +0.000 A 
ENDBRANCH  11  12
ENDBRANCH  10  11
ENDBRANCH   8  10
ENDBRANCH   5   8
ENDBRANCH   1   2
BRANCH   1  20
ATOM     18  C   UNL     1      49.910   8.064  13.189  0.00  0.00    +0.000 C 
ATOM     19  O   UNL     1      50.207   8.014  14.374  0.00  0.00    +0.000 OA
ATOM     20  N   UNL     1      48.768   7.486  12.688  0.00  0.00    +0.000 N 
ATOM     21  H   UNL     1      48.520   7.621  11.722  0.00  0.00    +0.000 HD
BRANCH  18  25
ATOM     22  C   UNL     1      53.903   9.312  10.464  0.00  0.00    +0.000 C 
ATOM     23  N   UNL     1      52.560   9.290  10.996  0.00  0.00    +0.000 N 
ATOM     24  C   UNL     1      52.086   8.423  11.942  0.00  0.00    +0.000 A 
ATOM     25  C   UNL     1      50.754   8.735  12.202  0.00  0.00    +0.000 A 
ATOM     26  C   UNL     1      50.417   9.851  11.351  0.00  0.00    +0.000 A 
ATOM     27  C   UNL     1      49.330  10.667  11.051  0.00  0.00    +0.000 A 
ATOM     28 CL   UNL     1      47.818  10.443  11.779  0.00  0.00    +0.000 Cl
ATOM     29  N   UNL     1      49.400  11.649  10.139  0.00  0.00    +0.000 NA
ATOM     30  C   UNL     1      50.573  11.826   9.521  0.00  0.00    +0.000 A 
ATOM     31  N   UNL     1      51.705  11.125   9.700  0.00  0.00    +0.000 NA
ATOM     32  C   UNL     1      51.566  10.155  10.624  0.00  0.00    +0.000 A 
ENDBRANCH  18  25
ENDBRANCH   1  20
TORSDOF 7
ENDMDL
MODEL 9
REMARK VINA RESULT:    -6.699      3.555      5.863
REMARK INTER + INTRA:         -10.680
REMARK INTER:                  -9.782
REMARK INTRA:                  -0.897
REMARK UNBOUND:                -1.239
REMARK  Name = 
REMARK  8 active torsions:
REMARK  status: ('A' for Active; 'I' for Inactive)
REMARK    1  A    between atoms: C_1  and  N_2
REMARK    2  A    between atoms: C_4  and  C_5
REMARK    3  A    between atoms: N_7  and  C_8
REMARK    4  A    between atoms: C_8  and  C_9
REMARK    5  A    between atoms: C_12  and  N_13
REMARK    6  A    between atoms: N_13  and  C_14
REMARK    7  A    between atoms: C_14  and  C_15
REMARK    8  A    between atoms: C_15  and  C_16
REMARK                            x       y       z     vdW  Elec       q    Type
REMARK                         _______ _______ _______ _____ _____    ______ ____
ROOT
ATOM      1  C   UNL     1      48.238   3.126  17.825  0.00  0.00    +0.000 C 
ENDROOT
BRANCH   1   2
ATOM      2  C   UNL     1      48.045   4.083  16.676  0.00  0.00    +0.000 A 
ATOM      3  C   UNL     1      47.283   3.710  15.566  0.00  0.00    +0.000 A 
ATOM      4  C   UNL     1      47.043   4.615  14.525  0.00  0.00    +0.000 A 
ATOM      5  C   UNL     1      47.574   5.905  14.551  0.00  0.00    +0.000 A 
ATOM      6  C   UNL     1      48.380   6.259  15.641  0.00  0.00    +0.000 A 
ATOM      7  C   UNL     1      48.602   5.369  16.695  0.00  0.00    +0.000 A 
BRANCH   5   8
ATOM      8  N   UNL     1      47.305   6.876  13.590  0.00  0.00    +0.000 N 
ATOM      9  H   UNL     1      47.686   7.798  13.791  0.00  0.00    +0.000 HD
BRANCH   8  10
ATOM     10  C   UNL     1      47.105   6.486  12.201  0.00  0.00    +0.000 C 
BRANCH  10  11
ATOM     11  C   UNL     1      45.693   6.849  11.731  0.00  0.00    +0.000 C 
BRANCH  11  12
ATOM     12  C   UNL     1      44.814   5.629  11.609  0.00  0.00    +0.000 A 
ATOM     13  C   UNL     1      43.992   5.216  12.663  0.00  0.00    +0.000 A 
ATOM     14  C   UNL     1      43.209   4.082  12.490  0.00  0.00    +0.000 A 
ATOM     15  N   UNL     1      43.200   3.340  11.362  0.00  0.00    +0.000 NA
ATOM     16  C   UNL     1      44.007   3.750  10.361  0.00  0.00    +0.000 A 
ATOM     17  C   UNL     1      44.824   4.867  10.438  0.00  0.00    +0.000 A 
ENDBRANCH  11  12
ENDBRANCH  10  11
ENDBRANCH   8  10
ENDBRANCH   5   8
ENDBRANCH   1   2
BRANCH   1  20
ATOM     18  C   UNL     1      50.375   2.112  17.181  0.00  0.00    +0.000 C 
ATOM     19  O   UNL     1      49.917   1.707  16.122  0.00  0.00    +0.000 OA
ATOM     20  N   UNL     1      49.630   2.835  18.081  0.00  0.00    +0.000 N 
ATOM     21  H   UNL     1      50.022   3.078  18.976  0.00  0.00    +0.000 HD
BRANCH  18  25
ATOM     22  C   UNL     1      54.538  -0.270  18.567  0.00  0.00    +0.000 C 
ATOM     23  N   UNL     1      53.619   0.784  18.206  0.00  0.00    +0.000 N 
ATOM     24  C   UNL     1      52.319   0.616  17.816  0.00  0.00    +0.000 A 
ATOM     25  C   UNL     1      51.763   1.869  17.573  0.00  0.00    +0.000 A 
ATOM     26  C   UNL     1      52.801   2.838  17.828  0.00  0.00    +0.000 A 
ATOM     27  C   UNL     1      52.999   4.215  17.793  0.00  0.00    +0.000 A 
ATOM     28 CL   UNL     1      51.778   5.281  17.302  0.00  0.00    +0.000 Cl
ATOM     29  N   UNL     1      54.177   4.779  18.102  0.00  0.00    +0.000 NA
ATOM     30  C   UNL     1      55.172   3.959  18.459  0.00  0.00    +0.000 A 
ATOM     31  N   UNL     1      55.135   2.618  18.540  0.00  0.00    +0.000 NA
ATOM     32  C   UNL     1      53.929   2.118  18.214  0.00  0.00    +0.000 A 
ENDBRANCH  18  25
ENDBRANCH   1  20
TORSDOF 7
ENDMDL
