MODEL 1
REMARK VINA RESULT:    -7.690      0.000      0.000
REMARK INTER + INTRA:         -12.341
REMARK INTER:                 -10.837
REMARK INTRA:                  -1.505
REMARK UNBOUND:                -1.505
REMARK  Name = 
REMARK  9 active torsions:
REMARK  status: ('A' for Active; 'I' for Inactive)
REMARK    1  A    between atoms: C_1  and  C_2
REMARK    2  A    between atoms: C_2  and  N_3
REMARK    3  A    between atoms: C_2  and  C_11
REMARK    4  A    between atoms: N_3  and  C_4
REMARK    5  A    between atoms: C_4  and  C_5
REMARK    6  A    between atoms: C_14  and  C_15
REMARK    7  A    between atoms: C_15  and  N_16
REMARK    8  A    between atoms: N_16  and  C_17
REMARK    9  A    between atoms: C_18  and  C_20
REMARK                            x       y       z     vdW  Elec       q    Type
REMARK                         _______ _______ _______ _____ _____    ______ ____
ROOT
ATOM      1  C   UNL     1      45.972   5.629  12.401  0.00  0.00    +0.000 A 
ATOM      2  C   UNL     1      46.331   5.132  13.662  0.00  0.00    +0.000 A 
ATOM      3  C   UNL     1      47.470   5.596  14.332  0.00  0.00    +0.000 A 
ATOM      4  C   UNL     1      48.282   6.584  13.775  0.00  0.00    +0.000 A 
ATOM      5  C   UNL     1      47.919   7.027  12.486  0.00  0.00    +0.000 A 
ATOM      6  C   UNL     1      46.759   6.620  11.843  0.00  0.00    +0.000 A 
ENDROOT
BRANCH   1   8
ATOM      7  C   UNL     1      44.472   3.637  12.035  0.00  0.00    +0.000 C 
ATOM      8  C   UNL     1      44.759   5.105  11.663  0.00  0.00    +0.000 C 
BRANCH   8   9
ATOM      9  N   UNL     1      44.972   5.290  10.229  0.00  0.00    +0.000 NA
ATOM     10  H   UNL     1      44.564   6.183   9.942  0.00  0.00    +0.000 HD
BRANCH   9  11
ATOM     11  C   UNL     1      44.337   4.243   9.416  0.00  0.00    +0.000 C 
BRANCH  11  12
ATOM     12  C   UNL     1      45.340   3.458   8.588  0.00  0.00    +0.000 A 
ATOM     13  N   UNL     1      46.023   4.125   7.634  0.00  0.00    +0.000 NA
ATOM     14  C   UNL     1      46.868   3.395   6.884  0.00  0.00    +0.000 A 
ATOM     15  C   UNL     1      47.065   2.047   7.056  0.00  0.00    +0.000 A 
ATOM     16  C   UNL     1      46.335   1.463   8.064  0.00  0.00    +0.000 A 
ATOM     17  N   UNL     1      45.472   2.137   8.847  0.00  0.00    +0.000 NA
ENDBRANCH  11  12
ENDBRANCH   9  11
ENDBRANCH   8   9
ENDBRANCH   1   8
BRANCH   4  18
ATOM     18  C   UNL     1      49.394   7.158  14.657  0.00  0.00    +0.000 C 
BRANCH  18  19
ATOM     19  N   UNL     1      48.982   7.937  15.825  0.00  0.00    +0.000 N 
ATOM     20  C   UNL     1      48.197   9.136  15.556  0.00  0.00    +0.000 C 
ATOM     21  C   UNL     1      49.376   7.688  17.164  0.00  0.00    +0.000 C 
ATOM     22  O   UNL     1      49.245   8.540  18.024  0.00  0.00    +0.000 OA
BRANCH  21  23
ATOM     23  C   UNL     1      49.778   6.325  17.549  0.00  0.00    +0.000 A 
ATOM     24  C   UNL     1      51.028   5.857  17.845  0.00  0.00    +0.000 A 
ATOM     25  S   UNL     1      51.287   4.211  17.558  0.00  0.00    +0.000 S 
ATOM     26  C   UNL     1      49.621   4.001  17.519  0.00  0.00    +0.000 A 
ATOM     27  N   UNL     1      49.086   2.764  17.383  0.00  0.00    +0.000 NA
ATOM     28  C   UNL     1      47.812   2.746  17.577  0.00  0.00    +0.000 A 
ATOM     29  N   UNL     1      47.043   3.821  17.918  0.00  0.00    +0.000 N 
ATOM     30  C   UNL     1      47.548   5.098  18.103  0.00  0.00    +0.000 A 
ATOM     31  O   UNL     1      46.920   5.971  18.669  0.00  0.00    +0.000 OA
ATOM     32  C   UNL     1      48.939   5.186  17.734  0.00  0.00    +0.000 A 
ATOM     33  H   UNL     1      46.094   3.689  18.220  0.00  0.00    +0.000 HD
ENDBRANCH  21  23
ENDBRANCH  18  19
ENDBRANCH   4  18
TORSDOF 7
ENDMDL
MODEL 2
REMARK VINA RESULT:    -7.439      3.568      5.573
REMARK INTER + INTRA:         -11.988
REMARK INTER:                 -10.459
REMARK INTRA:                  -1.529
REMARK UNBOUND:                -1.505
REMARK  Name = 
REMARK  9 active torsions:
REMARK  status: ('A' for Active; 'I' for Inactive)
REMARK    1  A    between atoms: C_1  and  C_2
REMARK    2  A    between atoms: C_2  and  N_3
REMARK    3  A    between atoms: C_2  and  C_11
REMARK    4  A    between atoms: N_3  and  C_4
REMARK    5  A    between atoms: C_4  and  C_5
REMARK    6  A    between atoms: C_14  and  C_15
REMARK    7  A    between atoms: C_15  and  N_16
REMARK    8  A    between atoms: N_16  and  C_17
REMARK    9  A    between atoms: C_18  and  C_20
REMARK                            x       y       z     vdW  Elec       q    Type
REMARK                         _______ _______ _______ _____ _____    ______ ____
ROOT
ATOM      1  C   UNL     1      45.633   4.928  11.928  0.00  0.00    +0.000 A 
ATOM      2  C   UNL     1      46.095   5.911  11.041  0.00  0.00    +0.000 A 
ATOM      3  C   UNL     1      47.226   6.683  11.331  0.00  0.00    +0.000 A 
ATOM      4  C   UNL     1      47.949   6.490  12.509  0.00  0.00    +0.000 A 
ATOM      5  C   UNL     1      47.431   5.527  13.400  0.00  0.00    +0.000 A 
ATOM      6  C   UNL     1      46.349   4.715  13.093  0.00  0.00    +0.000 A 
ENDROOT
BRANCH   1   8
ATOM      7  C   UNL     1      43.496   3.989  12.878  0.00  0.00    +0.000 C 
ATOM      8  C   UNL     1      44.392   4.116  11.630  0.00  0.00    +0.000 C 
BRANCH   8   9
ATOM      9  N   UNL     1      44.803   2.818  11.099  0.00  0.00    +0.000 NA
ATOM     10  H   UNL     1      45.823   2.789  11.038  0.00  0.00    +0.000 HD
BRANCH   9  11
ATOM     11  C   UNL     1      44.283   2.563   9.747  0.00  0.00    +0.000 C 
BRANCH  11  12
ATOM     12  C   UNL     1      45.382   2.511   8.700  0.00  0.00    +0.000 A 
ATOM     13  N   UNL     1      45.957   1.315   8.452  0.00  0.00    +0.000 NA
ATOM     14  C   UNL     1      46.960   1.308   7.557  0.00  0.00    +0.000 A 
ATOM     15  C   UNL     1      47.398   2.431   6.898  0.00  0.00    +0.000 A 
ATOM     16  C   UNL     1      46.737   3.597   7.206  0.00  0.00    +0.000 A 
ATOM     17  N   UNL     1      45.728   3.671   8.094  0.00  0.00    +0.000 NA
ENDBRANCH  11  12
ENDBRANCH   9  11
ENDBRANCH   8   9
ENDBRANCH   1   8
BRANCH   4  18
ATOM     18  C   UNL     1      49.272   7.246  12.653  0.00  0.00    +0.000 C 
BRANCH  18  19
ATOM     19  N   UNL     1      49.352   8.251  13.713  0.00  0.00    +0.000 N 
ATOM     20  C   UNL     1      50.138   7.890  14.886  0.00  0.00    +0.000 C 
ATOM     21  C   UNL     1      48.643   9.479  13.742  0.00  0.00    +0.000 C 
ATOM     22  O   UNL     1      48.525  10.111  14.776  0.00  0.00    +0.000 OA
BRANCH  21  23
ATOM     23  C   UNL     1      48.202  10.080  12.471  0.00  0.00    +0.000 A 
ATOM     24  C   UNL     1      48.952  10.394  11.372  0.00  0.00    +0.000 A 
ATOM     25  S   UNL     1      48.362  11.654  10.411  0.00  0.00    +0.000 S 
ATOM     26  C   UNL     1      46.866  11.457  11.149  0.00  0.00    +0.000 A 
ATOM     27  N   UNL     1      45.798  12.187  10.748  0.00  0.00    +0.000 NA
ATOM     28  C   UNL     1      44.691  11.778  11.264  0.00  0.00    +0.000 A 
ATOM     29  N   UNL     1      44.548  10.710  12.101  0.00  0.00    +0.000 N 
ATOM     30  C   UNL     1      45.604   9.911  12.513  0.00  0.00    +0.000 A 
ATOM     31  O   UNL     1      45.435   8.819  13.019  0.00  0.00    +0.000 OA
ATOM     32  C   UNL     1      46.876  10.438  12.087  0.00  0.00    +0.000 A 
ATOM     33  H   UNL     1      43.633  10.353  12.317  0.00  0.00    +0.000 HD
ENDBRANCH  21  23
ENDBRANCH  18  19
ENDBRANCH   4  18
TORSDOF 7
ENDMDL
MODEL 3
REMARK VINA RESULT:    -7.282      1.917      2.564
REMARK INTER + INTRA:         -11.766
REMARK INTER:                 -10.737
REMARK INTRA:                  -1.029
REMARK UNBOUND:                -1.505
REMARK  Name = 
REMARK  9 active torsions:
REMARK  status: ('A' for Active; 'I' for Inactive)
REMARK    1  A    between atoms: C_1  and  C_2
REMARK    2  A    between atoms: C_2  and  N_3
REMARK    3  A    between atoms: C_2  and  C_11
REMARK    4  A    between atoms: N_3  and  C_4
REMARK    5  A    between atoms: C_4  and  C_5
REMARK    6  A    between atoms: C_14  and  C_15
REMARK    7  A    between atoms: C_15  and  N_16
REMARK    8  A    between atoms: N_16  and  C_17
REMARK    9  A    between atoms: C_18  and  C_20
REMARK                            x       y       z     vdW  Elec       q    Type
REMARK                         _______ _______ _______ _____ _____    ______ ____
ROOT
ATOM      1  C   UNL     1      45.135   4.743  11.640  0.00  0.00    +0.000 A 
ATOM      2  C   UNL     1      45.526   4.663  12.984  0.00  0.00    +0.000 A 
ATOM      3  C   UNL     1      46.328   5.650  13.571  0.00  0.00    +0.000 A 
ATOM      4  C   UNL     1      46.753   6.762  12.842  0.00  0.00    +0.000 A 
ATOM      5  C   UNL     1      46.381   6.786  11.482  0.00  0.00    +0.000 A 
ATOM      6  C   UNL     1      45.536   5.846  10.910  0.00  0.00    +0.000 A 
ENDROOT
BRANCH   1   8
ATOM      7  C   UNL     1      43.264   3.091  11.993  0.00  0.00    +0.000 C 
ATOM      8  C   UNL     1      44.295   3.660  10.998  0.00  0.00    +0.000 C 
BRANCH   8   9
ATOM      9  N   UNL     1      45.190   2.633  10.467  0.00  0.00    +0.000 NA
ATOM     10  H   UNL     1      46.108   3.047  10.291  0.00  0.00    +0.000 HD
BRANCH   9  11
ATOM     11  C   UNL     1      44.720   2.069   9.192  0.00  0.00    +0.000 C 
BRANCH  11  12
ATOM     12  C   UNL     1      45.774   2.141   8.100  0.00  0.00    +0.000 A 
ATOM     13  N   UNL     1      46.624   1.099   7.980  0.00  0.00    +0.000 NA
ATOM     14  C   UNL     1      47.577   1.212   7.038  0.00  0.00    +0.000 A 
ATOM     15  C   UNL     1      47.704   2.302   6.212  0.00  0.00    +0.000 A 
ATOM     16  C   UNL     1      46.780   3.302   6.401  0.00  0.00    +0.000 A 
ATOM     17  N   UNL     1      45.805   3.252   7.328  0.00  0.00    +0.000 NA
ENDBRANCH  11  12
ENDBRANCH   9  11
ENDBRANCH   8   9
ENDBRANCH   1   8
BRANCH   4  18
ATOM     18  C   UNL     1      47.465   7.876  13.613  0.00  0.00    +0.000 C 
BRANCH  18  19
ATOM     19  N   UNL     1      48.914   7.751  13.777  0.00  0.00    +0.000 N 
ATOM     20  C   UNL     1      49.721   8.009  12.591  0.00  0.00    +0.000 C 
ATOM     21  C   UNL     1      49.575   7.293  14.944  0.00  0.00    +0.000 C 
ATOM     22  O   UNL     1      50.738   6.933  14.905  0.00  0.00    +0.000 OA
BRANCH  21  23
ATOM     23  C   UNL     1      48.903   7.429  16.247  0.00  0.00    +0.000 A 
ATOM     24  C   UNL     1      48.347   8.546  16.807  0.00  0.00    +0.000 A 
ATOM     25  S   UNL     1      48.301   8.579  18.497  0.00  0.00    +0.000 S 
ATOM     26  C   UNL     1      48.548   6.918  18.492  0.00  0.00    +0.000 A 
ATOM     27  N   UNL     1      48.543   6.217  19.651  0.00  0.00    +0.000 NA
ATOM     28  C   UNL     1      48.540   4.943  19.465  0.00  0.00    +0.000 A 
ATOM     29  N   UNL     1      48.510   4.314  18.254  0.00  0.00    +0.000 N 
ATOM     30  C   UNL     1      48.478   4.986  17.042  0.00  0.00    +0.000 A 
ATOM     31  O   UNL     1      48.173   4.436  16.001  0.00  0.00    +0.000 OA
ATOM     32  C   UNL     1      48.647   6.407  17.209  0.00  0.00    +0.000 A 
ATOM     33  H   UNL     1      48.333   3.326  18.200  0.00  0.00    +0.000 HD
ENDBRANCH  21  23
ENDBRANCH  18  19
ENDBRANCH   4  18
TORSDOF 7
ENDMDL
MODEL 4
REMARK VINA RESULT:    -7.173      0.867      1.438
REMARK INTER + INTRA:         -11.613
REMARK INTER:                 -10.130
REMARK INTRA:                  -1.483
REMARK UNBOUND:                -1.505
REMARK  Name = 
REMARK  9 active torsions:
REMARK  status: ('A' for Active; 'I' for Inactive)
REMARK    1  A    between atoms: C_1  and  C_2
REMARK    2  A    between atoms: C_2  and  N_3
REMARK    3  A    between atoms: C_2  and  C_11
REMARK    4  A    between atoms: N_3  and  C_4
REMARK    5  A    between atoms: C_4  and  C_5
REMARK    6  A    between atoms: C_14  and  C_15
REMARK    7  A    between atoms: C_15  and  N_16
REMARK    8  A    between atoms: N_16  and  C_17
REMARK    9  A    between atoms: C_18  and  C_20
REMARK                            x       y       z     vdW  Elec       q    Type
REMARK                         _______ _______ _______ _____ _____    ______ ____
ROOT
ATOM      1  C   UNL     1      47.014   6.753  12.295  0.00  0.00    +0.000 A 
ATOM      2  C   UNL     1      47.095   6.038  13.498  0.00  0.00    +0.000 A 
ATOM      3  C   UNL     1      48.142   6.250  14.404  0.00  0.00    +0.000 A 
ATOM      4  C   UNL     1      49.136   7.195  14.150  0.00  0.00    +0.000 A 
ATOM      5  C   UNL     1      49.050   7.862  12.910  0.00  0.00    +0.000 A 
ATOM      6  C   UNL     1      47.984   7.704  12.036  0.00  0.00    +0.000 A 
ENDROOT
BRANCH   1   8
ATOM      7  C   UNL     1      44.745   7.505  11.494  0.00  0.00    +0.000 C 
ATOM      8  C   UNL     1      45.900   6.502  11.301  0.00  0.00    +0.000 C 
BRANCH   8   9
ATOM      9  N   UNL     1      45.466   5.112  11.433  0.00  0.00    +0.000 NA
ATOM     10  H   UNL     1      46.281   4.498  11.360  0.00  0.00    +0.000 HD
BRANCH   9  11
ATOM     11  C   UNL     1      44.524   4.705  10.380  0.00  0.00    +0.000 C 
BRANCH  11  12
ATOM     12  C   UNL     1      45.184   3.867   9.298  0.00  0.00    +0.000 A 
ATOM     13  N   UNL     1      45.179   2.527   9.454  0.00  0.00    +0.000 NA
ATOM     14  C   UNL     1      45.814   1.813   8.507  0.00  0.00    +0.000 A 
ATOM     15  C   UNL     1      46.432   2.377   7.418  0.00  0.00    +0.000 A 
ATOM     16  C   UNL     1      46.367   3.748   7.341  0.00  0.00    +0.000 A 
ATOM     17  N   UNL     1      45.750   4.519   8.256  0.00  0.00    +0.000 NA
ENDBRANCH  11  12
ENDBRANCH   9  11
ENDBRANCH   8   9
ENDBRANCH   1   8
BRANCH   4  18
ATOM     18  C   UNL     1      50.130   7.489  15.276  0.00  0.00    +0.000 C 
BRANCH  18  19
ATOM     19  N   UNL     1      49.595   8.100  16.493  0.00  0.00    +0.000 N 
ATOM     20  C   UNL     1      48.981   9.413  16.339  0.00  0.00    +0.000 C 
ATOM     21  C   UNL     1      49.730   7.580  17.805  0.00  0.00    +0.000 C 
ATOM     22  O   UNL     1      49.530   8.281  18.781  0.00  0.00    +0.000 OA
BRANCH  21  23
ATOM     23  C   UNL     1      49.934   6.132  17.983  0.00  0.00    +0.000 A 
ATOM     24  C   UNL     1      51.094   5.463  18.260  0.00  0.00    +0.000 A 
ATOM     25  S   UNL     1      51.170   3.862  17.722  0.00  0.00    +0.000 S 
ATOM     26  C   UNL     1      49.498   3.882  17.567  0.00  0.00    +0.000 A 
ATOM     27  N   UNL     1      48.826   2.763  17.206  0.00  0.00    +0.000 NA
ATOM     28  C   UNL     1      47.549   2.883  17.332  0.00  0.00    +0.000 A 
ATOM     29  N   UNL     1      46.895   3.984  17.805  0.00  0.00    +0.000 N 
ATOM     30  C   UNL     1      47.539   5.139  18.220  0.00  0.00    +0.000 A 
ATOM     31  O   UNL     1      46.983   5.989  18.888  0.00  0.00    +0.000 OA
ATOM     32  C   UNL     1      48.952   5.099  17.939  0.00  0.00    +0.000 A 
ATOM     33  H   UNL     1      45.918   3.932  18.034  0.00  0.00    +0.000 HD
ENDBRANCH  21  23
ENDBRANCH  18  19
ENDBRANCH   4  18
TORSDOF 7
ENDMDL
MODEL 5
REMARK VINA RESULT:    -7.079      1.702      2.691
REMARK INTER + INTRA:         -11.481
REMARK INTER:                 -10.362
REMARK INTRA:                  -1.119
REMARK UNBOUND:                -1.505
REMARK  Name = 
REMARK  9 active torsions:
REMARK  status: ('A' for Active; 'I' for Inactive)
REMARK    1  A    between atoms: C_1  and  C_2
REMARK    2  A    between atoms: C_2  and  N_3
REMARK    3  A    between atoms: C_2  and  C_11
REMARK    4  A    between atoms: N_3  and  C_4
REMARK    5  A    between atoms: C_4  and  C_5
REMARK    6  A    between atoms: C_14  and  C_15
REMARK    7  A    between atoms: C_15  and  N_16
REMARK    8  A    between atoms: N_16  and  C_17
REMARK    9  A    between atoms: C_18  and  C_20
REMARK                            x       y       z     vdW  Elec       q    Type
REMARK                         _______ _______ _______ _____ _____    ______ ____
ROOT
ATOM      1  C   UNL     1      45.684   5.094  12.026  0.00  0.00    +0.000 A 
ATOM      2  C   UNL     1      46.233   6.320  11.624  0.00  0.00    +0.000 A 
ATOM      3  C   UNL     1      47.234   6.952  12.372  0.00  0.00    +0.000 A 
ATOM      4  C   UNL     1      47.737   6.374  13.538  0.00  0.00    +0.000 A 
ATOM      5  C   UNL     1      47.130   5.165  13.938  0.00  0.00    +0.000 A 
ATOM      6  C   UNL     1      46.183   4.502  13.171  0.00  0.00    +0.000 A 
ENDROOT
BRANCH   1   8
ATOM      7  C   UNL     1      43.225   4.547  11.961  0.00  0.00    +0.000 C 
ATOM      8  C   UNL     1      44.580   4.427  11.235  0.00  0.00    +0.000 C 
BRANCH   8   9
ATOM      9  N   UNL     1      44.962   3.039  10.984  0.00  0.00    +0.000 NA
ATOM     10  H   UNL     1      45.980   2.978  10.918  0.00  0.00    +0.000 HD
BRANCH   9  11
ATOM     11  C   UNL     1      44.416   2.514   9.723  0.00  0.00    +0.000 C 
BRANCH  11  12
ATOM     12  C   UNL     1      45.455   2.457   8.617  0.00  0.00    +0.000 A 
ATOM     13  N   UNL     1      46.069   1.276   8.393  0.00  0.00    +0.000 NA
ATOM     14  C   UNL     1      47.019   1.267   7.442  0.00  0.00    +0.000 A 
ATOM     15  C   UNL     1      47.366   2.372   6.705  0.00  0.00    +0.000 A 
ATOM     16  C   UNL     1      46.672   3.523   6.996  0.00  0.00    +0.000 A 
ATOM     17  N   UNL     1      45.713   3.599   7.937  0.00  0.00    +0.000 NA
ENDBRANCH  11  12
ENDBRANCH   9  11
ENDBRANCH   8   9
ENDBRANCH   1   8
BRANCH   4  18
ATOM     18  C   UNL     1      48.954   7.041  14.184  0.00  0.00    +0.000 C 
BRANCH  18  19
ATOM     19  N   UNL     1      48.723   7.793  15.417  0.00  0.00    +0.000 N 
ATOM     20  C   UNL     1      47.982   9.041  15.282  0.00  0.00    +0.000 C 
ATOM     21  C   UNL     1      49.255   7.472  16.692  0.00  0.00    +0.000 C 
ATOM     22  O   UNL     1      49.272   8.294  17.590  0.00  0.00    +0.000 OA
BRANCH  21  23
ATOM     23  C   UNL     1      49.623   6.075  16.981  0.00  0.00    +0.000 A 
ATOM     24  C   UNL     1      48.810   4.979  17.057  0.00  0.00    +0.000 A 
ATOM     25  S   UNL     1      49.351   3.725  18.055  0.00  0.00    +0.000 S 
ATOM     26  C   UNL     1      50.887   4.402  17.996  0.00  0.00    +0.000 A 
ATOM     27  N   UNL     1      51.935   3.786  18.594  0.00  0.00    +0.000 NA
ATOM     28  C   UNL     1      53.068   4.316  18.287  0.00  0.00    +0.000 A 
ATOM     29  N   UNL     1      53.253   5.364  17.432  0.00  0.00    +0.000 N 
ATOM     30  C   UNL     1      52.217   6.005  16.769  0.00  0.00    +0.000 A 
ATOM     31  O   UNL     1      52.408   6.734  15.816  0.00  0.00    +0.000 OA
ATOM     32  C   UNL     1      50.926   5.545  17.215  0.00  0.00    +0.000 A 
ATOM     33  H   UNL     1      54.176   5.601  17.114  0.00  0.00    +0.000 HD
ENDBRANCH  21  23
ENDBRANCH  18  19
ENDBRANCH   4  18
TORSDOF 7
ENDMDL
MODEL 6
REMARK VINA RESULT:    -6.786      3.224      7.803
REMARK INTER + INTRA:         -11.068
REMARK INTER:                  -9.703
REMARK INTRA:                  -1.364
REMARK UNBOUND:                -1.505
REMARK  Name = 
REMARK  9 active torsions:
REMARK  status: ('A' for Active; 'I' for Inactive)
REMARK    1  A    between atoms: C_1  and  C_2
REMARK    2  A    between atoms: C_2  and  N_3
REMARK    3  A    between atoms: C_2  and  C_11
REMARK    4  A    between atoms: N_3  and  C_4
REMARK    5  A    between atoms: C_4  and  C_5
REMARK    6  A    between atoms: C_14  and  C_15
REMARK    7  A    between atoms: C_15  and  N_16
REMARK    8  A    between atoms: N_16  and  C_17
REMARK    9  A    between atoms: C_18  and  C_20
REMARK                            x       y       z     vdW  Elec       q    Type
REMARK                         _______ _______ _______ _____ _____    ______ ____
ROOT
ATOM      1  C   UNL     1      50.063   7.131  15.591  0.00  0.00    +0.000 A 
ATOM      2  C   UNL     1      50.638   7.688  14.440  0.00  0.00    +0.000 A 
ATOM      3  C   UNL     1      49.968   7.674  13.210  0.00  0.00    +0.000 A 
ATOM      4  C   UNL     1      48.694   7.120  13.088  0.00  0.00    +0.000 A 
ATOM      5  C   UNL     1      48.166   6.526  14.254  0.00  0.00    +0.000 A 
ATOM      6  C   UNL     1      48.794   6.591  15.489  0.00  0.00    +0.000 A 
ENDROOT
BRANCH   1   8
ATOM      7  C   UNL     1      51.747   8.328  17.034  0.00  0.00    +0.000 C 
ATOM      8  C   UNL     1      50.800   7.118  16.913  0.00  0.00    +0.000 C 
BRANCH   8   9
ATOM      9  N   UNL     1      51.499   5.841  17.041  0.00  0.00    +0.000 NA
ATOM     10  H   UNL     1      51.346   5.288  16.195  0.00  0.00    +0.000 HD
BRANCH   9  11
ATOM     11  C   UNL     1      51.018   5.037  18.175  0.00  0.00    +0.000 C 
BRANCH  11  12
ATOM     12  C   UNL     1      49.703   4.337  17.877  0.00  0.00    +0.000 A 
ATOM     13  N   UNL     1      49.728   3.295  17.019  0.00  0.00    +0.000 NA
ATOM     14  C   UNL     1      48.543   2.727  16.735  0.00  0.00    +0.000 A 
ATOM     15  C   UNL     1      47.352   3.143  17.277  0.00  0.00    +0.000 A 
ATOM     16  C   UNL     1      47.434   4.200  18.153  0.00  0.00    +0.000 A 
ATOM     17  N   UNL     1      48.588   4.814  18.475  0.00  0.00    +0.000 NA
ENDBRANCH  11  12
ENDBRANCH   9  11
ENDBRANCH   8   9
ENDBRANCH   1   8
BRANCH   4  18
ATOM     18  C   UNL     1      47.967   7.315  11.756  0.00  0.00    +0.000 C 
BRANCH  18  19
ATOM     19  N   UNL     1      46.641   7.932  11.805  0.00  0.00    +0.000 N 
ATOM     20  C   UNL     1      46.604   9.359  12.099  0.00  0.00    +0.000 C 
ATOM     21  C   UNL     1      45.406   7.242  11.707  0.00  0.00    +0.000 C 
ATOM     22  O   UNL     1      44.365   7.769  12.056  0.00  0.00    +0.000 OA
BRANCH  21  23
ATOM     23  C   UNL     1      45.364   5.947  11.009  0.00  0.00    +0.000 A 
ATOM     24  C   UNL     1      45.870   5.624   9.781  0.00  0.00    +0.000 A 
ATOM     25  S   UNL     1      45.094   4.358   8.971  0.00  0.00    +0.000 S 
ATOM     26  C   UNL     1      44.414   3.897  10.437  0.00  0.00    +0.000 A 
ATOM     27  N   UNL     1      43.652   2.782  10.522  0.00  0.00    +0.000 NA
ATOM     28  C   UNL     1      43.378   2.454  11.738  0.00  0.00    +0.000 A 
ATOM     29  N   UNL     1      43.813   3.106  12.856  0.00  0.00    +0.000 N 
ATOM     30  C   UNL     1      44.623   4.230  12.822  0.00  0.00    +0.000 A 
ATOM     31  O   UNL     1      45.224   4.629  13.801  0.00  0.00    +0.000 OA
ATOM     32  C   UNL     1      44.812   4.718  11.479  0.00  0.00    +0.000 A 
ATOM     33  H   UNL     1      43.700   2.687  13.762  0.00  0.00    +0.000 HD
ENDBRANCH  21  23
ENDBRANCH  18  19
ENDBRANCH   4  18
TORSDOF 7
ENDMDL
MODEL 7
REMARK VINA RESULT:    -6.341      2.094      2.825
REMARK INTER + INTRA:         -10.441
REMARK INTER:                  -8.970
REMARK INTRA:                  -1.471
REMARK UNBOUND:                -1.505
REMARK  Name = 
REMARK  9 active torsions:
REMARK  status: ('A' for Active; 'I' for Inactive)
REMARK    1  A    between atoms: C_1  and  C_2
REMARK    2  A    between atoms: C_2  and  N_3
REMARK    3  A    between atoms: C_2  and  C_11
REMARK    4  A    between atoms: N_3  and  C_4
REMARK    5  A    between atoms: C_4  and  C_5
REMARK    6  A    between atoms: C_14  and  C_15
REMARK    7  A    between atoms: C_15  and  N_16
REMARK    8  A    between atoms: N_16  and  C_17
REMARK    9  A    between atoms: C_18  and  C_20
REMARK                            x       y       z     vdW  Elec       q    Type
REMARK                         _______ _______ _______ _____ _____    ______ ____
ROOT
ATOM      1  C   UNL     1      47.007   7.524  12.109  0.00  0.00    +0.000 A 
ATOM      2  C   UNL     1      48.339   7.513  11.672  0.00  0.00    +0.000 A 
ATOM      3  C   UNL     1      49.352   8.152  12.398  0.00  0.00    +0.000 A 
ATOM      4  C   UNL     1      49.074   8.809  13.597  0.00  0.00    +0.000 A 
ATOM      5  C   UNL     1      47.718   8.841  13.984  0.00  0.00    +0.000 A 
ATOM      6  C   UNL     1      46.720   8.159  13.304  0.00  0.00    +0.000 A 
ENDROOT
BRANCH   1   8
ATOM      7  C   UNL     1      44.569   7.607  11.476  0.00  0.00    +0.000 C 
ATOM      8  C   UNL     1      45.908   6.862  11.307  0.00  0.00    +0.000 C 
BRANCH   8   9
ATOM      9  N   UNL     1      45.825   5.458  11.705  0.00  0.00    +0.000 NA
ATOM     10  H   UNL     1      46.688   4.981  11.434  0.00  0.00    +0.000 HD
BRANCH   9  11
ATOM     11  C   UNL     1      44.715   4.744  11.056  0.00  0.00    +0.000 C 
BRANCH  11  12
ATOM     12  C   UNL     1      45.159   3.971   9.826  0.00  0.00    +0.000 A 
ATOM     13  N   UNL     1      45.082   2.624   9.871  0.00  0.00    +0.000 NA
ATOM     14  C   UNL     1      45.528   1.964   8.788  0.00  0.00    +0.000 A 
ATOM     15  C   UNL     1      46.029   2.587   7.671  0.00  0.00    +0.000 A 
ATOM     16  C   UNL     1      46.050   3.961   7.716  0.00  0.00    +0.000 A 
ATOM     17  N   UNL     1      45.621   4.680   8.770  0.00  0.00    +0.000 NA
ENDBRANCH  11  12
ENDBRANCH   9  11
ENDBRANCH   8   9
ENDBRANCH   1   8
BRANCH   4  18
ATOM     18  C   UNL     1      50.267   9.314  14.413  0.00  0.00    +0.000 C 
BRANCH  18  19
ATOM     19  N   UNL     1      51.235   8.315  14.866  0.00  0.00    +0.000 N 
ATOM     20  C   UNL     1      52.543   8.347  14.223  0.00  0.00    +0.000 C 
ATOM     21  C   UNL     1      50.970   7.263  15.779  0.00  0.00    +0.000 C 
ATOM     22  O   UNL     1      51.721   6.309  15.871  0.00  0.00    +0.000 OA
BRANCH  21  23
ATOM     23  C   UNL     1      49.873   7.418  16.749  0.00  0.00    +0.000 A 
ATOM     24  C   UNL     1      49.617   8.469  17.585  0.00  0.00    +0.000 A 
ATOM     25  S   UNL     1      48.782   8.095  19.007  0.00  0.00    +0.000 S 
ATOM     26  C   UNL     1      48.312   6.646  18.297  0.00  0.00    +0.000 A 
ATOM     27  N   UNL     1      47.471   5.804  18.942  0.00  0.00    +0.000 NA
ATOM     28  C   UNL     1      47.047   4.847  18.191  0.00  0.00    +0.000 A 
ATOM     29  N   UNL     1      47.355   4.673  16.872  0.00  0.00    +0.000 N 
ATOM     30  C   UNL     1      48.182   5.527  16.159  0.00  0.00    +0.000 A 
ATOM     31  O   UNL     1      48.224   5.527  14.944  0.00  0.00    +0.000 OA
ATOM     32  C   UNL     1      48.802   6.512  17.009  0.00  0.00    +0.000 A 
ATOM     33  H   UNL     1      46.847   4.007  16.317  0.00  0.00    +0.000 HD
ENDBRANCH  21  23
ENDBRANCH  18  19
ENDBRANCH   4  18
TORSDOF 7
ENDMDL
MODEL 8
REMARK VINA RESULT:    -6.293      2.601      3.919
REMARK INTER + INTRA:         -10.373
REMARK INTER:                  -8.134
REMARK INTRA:                  -2.239
REMARK UNBOUND:                -1.505
REMARK  Name = 
REMARK  9 active torsions:
REMARK  status: ('A' for Active; 'I' for Inactive)
REMARK    1  A    between atoms: C_1  and  C_2
REMARK    2  A    between atoms: C_2  and  N_3
REMARK    3  A    between atoms: C_2  and  C_11
REMARK    4  A    between atoms: N_3  and  C_4
REMARK    5  A    between atoms: C_4  and  C_5
REMARK    6  A    between atoms: C_14  and  C_15
REMARK    7  A    between atoms: C_15  and  N_16
REMARK    8  A    between atoms: N_16  and  C_17
REMARK    9  A    between atoms: C_18  and  C_20
REMARK                            x       y       z     vdW  Elec       q    Type
REMARK                         _______ _______ _______ _____ _____    ______ ____
ROOT
ATOM      1  C   UNL     1      48.949   7.372  14.575  0.00  0.00    +0.000 A 
ATOM      2  C   UNL     1      50.333   7.287  14.780  0.00  0.00    +0.000 A 
ATOM      3  C   UNL     1      50.944   7.875  15.895  0.00  0.00    +0.000 A 
ATOM      4  C   UNL     1      50.192   8.553  16.855  0.00  0.00    +0.000 A 
ATOM      5  C   UNL     1      48.810   8.661  16.593  0.00  0.00    +0.000 A 
ATOM      6  C   UNL     1      48.189   8.029  15.525  0.00  0.00    +0.000 A 
ENDROOT
BRANCH   1   8
ATOM      7  C   UNL     1      48.343   7.734  12.155  0.00  0.00    +0.000 C 
ATOM      8  C   UNL     1      48.294   6.764  13.353  0.00  0.00    +0.000 C 
BRANCH   8   9
ATOM      9  N   UNL     1      46.931   6.372  13.704  0.00  0.00    +0.000 NA
ATOM     10  H   UNL     1      46.769   6.572  14.694  0.00  0.00    +0.000 HD
BRANCH   9  11
ATOM     11  C   UNL     1      46.680   4.937  13.506  0.00  0.00    +0.000 C 
BRANCH  11  12
ATOM     12  C   UNL     1      45.395   4.670  12.741  0.00  0.00    +0.000 A 
ATOM     13  N   UNL     1      44.770   3.493  12.957  0.00  0.00    +0.000 NA
ATOM     14  C   UNL     1      43.662   3.264  12.230  0.00  0.00    +0.000 A 
ATOM     15  C   UNL     1      43.153   4.156  11.318  0.00  0.00    +0.000 A 
ATOM     16  C   UNL     1      43.852   5.332  11.183  0.00  0.00    +0.000 A 
ATOM     17  N   UNL     1      44.968   5.621  11.879  0.00  0.00    +0.000 NA
ENDBRANCH  11  12
ENDBRANCH   9  11
ENDBRANCH   8   9
ENDBRANCH   1   8
BRANCH   4  18
ATOM     18  C   UNL     1      50.915   8.999  18.127  0.00  0.00    +0.000 C 
BRANCH  18  19
ATOM     19  N   UNL     1      50.199   8.835  19.393  0.00  0.00    +0.000 N 
ATOM     20  C   UNL     1      49.713  10.056  20.022  0.00  0.00    +0.000 C 
ATOM     21  C   UNL     1      50.046   7.616  20.102  0.00  0.00    +0.000 C 
ATOM     22  O   UNL     1      49.710   7.610  21.272  0.00  0.00    +0.000 OA
BRANCH  21  23
ATOM     23  C   UNL     1      50.118   6.345  19.362  0.00  0.00    +0.000 A 
ATOM     24  C   UNL     1      51.192   5.515  19.195  0.00  0.00    +0.000 A 
ATOM     25  S   UNL     1      51.185   4.571  17.792  0.00  0.00    +0.000 S 
ATOM     26  C   UNL     1      49.539   4.874  17.650  0.00  0.00    +0.000 A 
ATOM     27  N   UNL     1      48.812   4.290  16.667  0.00  0.00    +0.000 NA
ATOM     28  C   UNL     1      47.544   4.457  16.816  0.00  0.00    +0.000 A 
ATOM     29  N   UNL     1      46.942   5.113  17.850  0.00  0.00    +0.000 N 
ATOM     30  C   UNL     1      47.638   5.697  18.897  0.00  0.00    +0.000 A 
ATOM     31  O   UNL     1      47.098   6.027  19.934  0.00  0.00    +0.000 OA
ATOM     32  C   UNL     1      49.063   5.672  18.677  0.00  0.00    +0.000 A 
ATOM     33  H   UNL     1      45.948   5.047  17.982  0.00  0.00    +0.000 HD
ENDBRANCH  21  23
ENDBRANCH  18  19
ENDBRANCH   4  18
TORSDOF 7
ENDMDL
MODEL 9
REMARK VINA RESULT:    -6.198      2.504      4.021
REMARK INTER + INTRA:         -10.239
REMARK INTER:                  -8.706
REMARK INTRA:                  -1.533
REMARK UNBOUND:                -1.505
REMARK  Name = 
REMARK  9 active torsions:
REMARK  status: ('A' for Active; 'I' for Inactive)
REMARK    1  A    between atoms: C_1  and  C_2
REMARK    2  A    between atoms: C_2  and  N_3
REMARK    3  A    between atoms: C_2  and  C_11
REMARK    4  A    between atoms: N_3  and  C_4
REMARK    5  A    between atoms: C_4  and  C_5
REMARK    6  A    between atoms: C_14  and  C_15
REMARK    7  A    between atoms: C_15  and  N_16
REMARK    8  A    between atoms: N_16  and  C_17
REMARK    9  A    between atoms: C_18  and  C_20
REMARK                            x       y       z     vdW  Elec       q    Type
REMARK                         _______ _______ _______ _____ _____    ______ ____
ROOT
ATOM      1  C   UNL     1      48.263   8.001  13.912  0.00  0.00    +0.000 A 
ATOM      2  C   UNL     1      49.460   7.285  14.050  0.00  0.00    +0.000 A 
ATOM      3  C   UNL     1      50.176   7.284  15.254  0.00  0.00    +0.000 A 
ATOM      4  C   UNL     1      49.713   7.983  16.369  0.00  0.00    +0.000 A 
ATOM      5  C   UNL     1      48.532   8.730  16.181  0.00  0.00    +0.000 A 
ATOM      6  C   UNL     1      47.784   8.686  15.013  0.00  0.00    +0.000 A 
ENDROOT
BRANCH   1   8
ATOM      7  C   UNL     1      46.180   8.802  12.740  0.00  0.00    +0.000 C 
ATOM      8  C   UNL     1      47.507   8.028  12.601  0.00  0.00    +0.000 C 
BRANCH   8   9
ATOM      9  N   UNL     1      47.310   6.652  12.151  0.00  0.00    +0.000 NA
ATOM     10  H   UNL     1      46.768   6.657  11.284  0.00  0.00    +0.000 HD
BRANCH   9  11
ATOM     11  C   UNL     1      46.566   5.833  13.120  0.00  0.00    +0.000 C 
BRANCH  11  12
ATOM     12  C   UNL     1      45.383   5.117  12.491  0.00  0.00    +0.000 A 
ATOM     13  N   UNL     1      44.662   4.290  13.277  0.00  0.00    +0.000 NA
ATOM     14  C   UNL     1      43.651   3.632  12.682  0.00  0.00    +0.000 A 
ATOM     15  C   UNL     1      43.328   3.775  11.355  0.00  0.00    +0.000 A 
ATOM     16  C   UNL     1      44.111   4.654  10.644  0.00  0.00    +0.000 A 
ATOM     17  N   UNL     1      45.138   5.340  11.180  0.00  0.00    +0.000 NA
ENDBRANCH  11  12
ENDBRANCH   9  11
ENDBRANCH   8   9
ENDBRANCH   1   8
BRANCH   4  18
ATOM     18  C   UNL     1      50.459   7.773  17.689  0.00  0.00    +0.000 C 
BRANCH  18  19
ATOM     19  N   UNL     1      49.658   7.396  18.854  0.00  0.00    +0.000 N 
ATOM     20  C   UNL     1      49.429   8.440  19.844  0.00  0.00    +0.000 C 
ATOM     21  C   UNL     1      49.195   6.088  19.148  0.00  0.00    +0.000 C 
ATOM     22  O   UNL     1      48.805   5.798  20.264  0.00  0.00    +0.000 OA
BRANCH  21  23
ATOM     23  C   UNL     1      49.015   5.129  18.045  0.00  0.00    +0.000 A 
ATOM     24  C   UNL     1      48.003   5.063  17.129  0.00  0.00    +0.000 A 
ATOM     25  S   UNL     1      47.689   3.532  16.483  0.00  0.00    +0.000 S 
ATOM     26  C   UNL     1      49.203   3.043  17.022  0.00  0.00    +0.000 A 
ATOM     27  N   UNL     1      49.668   1.803  16.740  0.00  0.00    +0.000 NA
ATOM     28  C   UNL     1      50.912   1.655  17.041  0.00  0.00    +0.000 A 
ATOM     29  N   UNL     1      51.727   2.619  17.560  0.00  0.00    +0.000 N 
ATOM     30  C   UNL     1      51.308   3.912  17.833  0.00  0.00    +0.000 A 
ATOM     31  O   UNL     1      52.090   4.822  18.025  0.00  0.00    +0.000 OA
ATOM     32  C   UNL     1      49.885   4.065  17.662  0.00  0.00    +0.000 A 
ATOM     33  H   UNL     1      52.721   2.473  17.602  0.00  0.00    +0.000 HD
ENDBRANCH  21  23
ENDBRANCH  18  19
ENDBRANCH   4  18
TORSDOF 7
ENDMDL
