MODEL 1
REMARK VINA RESULT:    -8.747      0.000      0.000
REMARK INTER + INTRA:         -13.452
REMARK INTER:                 -12.326
REMARK INTRA:                  -1.126
REMARK UNBOUND:                -1.126
REMARK  Name = 
REMARK  8 active torsions:
REMARK  status: ('A' for Active; 'I' for Inactive)
REMARK    1  A    between atoms: C_1  and  C_2
REMARK    2  A    between atoms: C_2  and  N_3
REMARK    3  A    between atoms: C_2  and  C_25
REMARK    4  A    between atoms: N_3  and  C_4
REMARK    5  A    between atoms: C_4  and  C_5
REMARK    6  A    between atoms: C_9  and  C_10
REMARK    7  A    between atoms: C_10  and  N_11
REMARK    8  A    between atoms: C_12  and  C_14
REMARK                            x       y       z     vdW  Elec       q    Type
REMARK                         _______ _______ _______ _____ _____    ______ ____
ROOT
ATOM      1  C   UNL     1      45.776   5.673  11.561  0.00  0.00    +0.000 A 
ATOM      2  C   UNL     1      46.771   6.649  11.405  0.00  0.00    +0.000 A 
ATOM      3  C   UNL     1      47.732   6.850  12.395  0.00  0.00    +0.000 A 
ATOM      4  C   UNL     1      47.693   6.100  13.569  0.00  0.00    +0.000 A 
ATOM      5  C   UNL     1      46.694   5.137  13.762  0.00  0.00    +0.000 A 
ATOM      6  C   UNL     1      45.774   4.894  12.730  0.00  0.00    +0.000 A 
ENDROOT
BRANCH   1   7
ATOM      7  C   UNL     1      44.714   5.493  10.496  0.00  0.00    +0.000 C 
BRANCH   7   8
ATOM      8  N   UNL     1      45.293   4.956   9.264  0.00  0.00    +0.000 NA
ATOM      9  H   UNL     1      45.093   5.610   8.507  0.00  0.00    +0.000 HD
BRANCH   8  11
ATOM     10  C   UNL     1      44.237   2.833  10.063  0.00  0.00    +0.000 C 
ATOM     11  C   UNL     1      44.724   3.655   8.864  0.00  0.00    +0.000 C 
BRANCH  11  12
ATOM     12  C   UNL     1      45.749   2.841   8.065  0.00  0.00    +0.000 A 
ATOM     13  C   UNL     1      46.494   3.433   7.042  0.00  0.00    +0.000 A 
ATOM     14  C   UNL     1      47.430   2.667   6.352  0.00  0.00    +0.000 A 
ATOM     15  C   UNL     1      47.592   1.328   6.690  0.00  0.00    +0.000 A 
ATOM     16  C   UNL     1      46.801   0.810   7.702  0.00  0.00    +0.000 A 
ATOM     17  N   UNL     1      45.889   1.530   8.394  0.00  0.00    +0.000 NA
ENDBRANCH  11  12
ENDBRANCH   8  11
ENDBRANCH   7   8
ENDBRANCH   1   7
BRANCH   5  18
ATOM     18  C   UNL     1      46.589   4.396  15.067  0.00  0.00    +0.000 C 
BRANCH  18  19
ATOM     19  N   UNL     1      47.860   4.293  15.730  0.00  0.00    +0.000 N 
ATOM     20  C   UNL     1      47.949   4.424  17.094  0.00  0.00    +0.000 C 
ATOM     21  O   UNL     1      46.954   4.566  17.801  0.00  0.00    +0.000 OA
ATOM     22  H   UNL     1      48.689   4.426  15.160  0.00  0.00    +0.000 HD
BRANCH  20  23
ATOM     23  C   UNL     1      49.291   4.324  17.677  0.00  0.00    +0.000 A 
ATOM     24  C   UNL     1      49.779   5.364  18.458  0.00  0.00    +0.000 A 
ATOM     25  S   UNL     1      51.325   5.060  19.111  0.00  0.00    +0.000 S 
ATOM     26  C   UNL     1      51.418   3.551  18.329  0.00  0.00    +0.000 A 
ATOM     27  N   UNL     1      52.519   2.764  18.460  0.00  0.00    +0.000 NA
ATOM     28  C   UNL     1      52.467   1.661  17.790  0.00  0.00    +0.000 A 
ATOM     29  N   UNL     1      51.413   1.272  17.004  0.00  0.00    +0.000 N 
ATOM     30  C   UNL     1      50.272   2.024  16.860  0.00  0.00    +0.000 A 
ATOM     31  O   UNL     1      49.335   1.632  16.172  0.00  0.00    +0.000 OA
ATOM     32  C   UNL     1      50.281   3.276  17.590  0.00  0.00    +0.000 A 
ATOM     33  H   UNL     1      51.432   0.392  16.510  0.00  0.00    +0.000 HD
ENDBRANCH  20  23
ENDBRANCH  18  19
ENDBRANCH   5  18
TORSDOF 7
ENDMDL
MODEL 2
REMARK VINA RESULT:    -8.444      1.629      2.038
REMARK INTER + INTRA:         -13.025
REMARK INTER:                 -11.960
REMARK INTRA:                  -1.065
REMARK UNBOUND:                -1.126
REMARK  Name = 
REMARK  8 active torsions:
REMARK  status: ('A' for Active; 'I' for Inactive)
REMARK    1  A    between atoms: C_1  and  C_2
REMARK    2  A    between atoms: C_2  and  N_3
REMARK    3  A    between atoms: C_2  and  C_25
REMARK    4  A    between atoms: N_3  and  C_4
REMARK    5  A    between atoms: C_4  and  C_5
REMARK    6  A    between atoms: C_9  and  C_10
REMARK    7  A    between atoms: C_10  and  N_11
REMARK    8  A    between atoms: C_12  and  C_14
REMARK                            x       y       z     vdW  Elec       q    Type
REMARK                         _______ _______ _______ _____ _____    ______ ____
ROOT
ATOM      1  C   UNL     1      45.886   5.778  11.398  0.00  0.00    +0.000 A 
ATOM      2  C   UNL     1      46.804   6.837  11.339  0.00  0.00    +0.000 A 
ATOM      3  C   UNL     1      47.762   7.005  12.338  0.00  0.00    +0.000 A 
ATOM      4  C   UNL     1      47.796   6.134  13.426  0.00  0.00    +0.000 A 
ATOM      5  C   UNL     1      46.874   5.084  13.523  0.00  0.00    +0.000 A 
ATOM      6  C   UNL     1      45.960   4.883  12.478  0.00  0.00    +0.000 A 
ENDROOT
BRANCH   1   7
ATOM      7  C   UNL     1      44.824   5.631  10.327  0.00  0.00    +0.000 C 
BRANCH   7   8
ATOM      8  N   UNL     1      45.396   5.095   9.091  0.00  0.00    +0.000 NA
ATOM      9  H   UNL     1      45.224   5.768   8.343  0.00  0.00    +0.000 HD
BRANCH   8  11
ATOM     10  C   UNL     1      44.232   3.013   9.844  0.00  0.00    +0.000 C 
ATOM     11  C   UNL     1      44.790   3.820   8.666  0.00  0.00    +0.000 C 
BRANCH  11  12
ATOM     12  C   UNL     1      45.806   2.969   7.896  0.00  0.00    +0.000 A 
ATOM     13  C   UNL     1      46.493   3.494   6.797  0.00  0.00    +0.000 A 
ATOM     14  C   UNL     1      47.425   2.698   6.135  0.00  0.00    +0.000 A 
ATOM     15  C   UNL     1      47.639   1.396   6.575  0.00  0.00    +0.000 A 
ATOM     16  C   UNL     1      46.903   0.943   7.657  0.00  0.00    +0.000 A 
ATOM     17  N   UNL     1      45.998   1.695   8.325  0.00  0.00    +0.000 NA
ENDBRANCH  11  12
ENDBRANCH   8  11
ENDBRANCH   7   8
ENDBRANCH   1   7
BRANCH   5  18
ATOM     18  C   UNL     1      46.844   4.204  14.743  0.00  0.00    +0.000 C 
BRANCH  18  19
ATOM     19  N   UNL     1      47.430   4.850  15.886  0.00  0.00    +0.000 N 
ATOM     20  C   UNL     1      47.215   4.361  17.150  0.00  0.00    +0.000 C 
ATOM     21  O   UNL     1      46.579   3.329  17.351  0.00  0.00    +0.000 OA
ATOM     22  H   UNL     1      47.733   5.811  15.767  0.00  0.00    +0.000 HD
BRANCH  20  23
ATOM     23  C   UNL     1      47.838   5.099  18.255  0.00  0.00    +0.000 A 
ATOM     24  C   UNL     1      47.040   5.818  19.135  0.00  0.00    +0.000 A 
ATOM     25  S   UNL     1      47.914   6.563  20.396  0.00  0.00    +0.000 S 
ATOM     26  C   UNL     1      49.395   5.995  19.778  0.00  0.00    +0.000 A 
ATOM     27  N   UNL     1      50.570   6.297  20.392  0.00  0.00    +0.000 NA
ATOM     28  C   UNL     1      51.616   5.825  19.800  0.00  0.00    +0.000 A 
ATOM     29  N   UNL     1      51.595   5.076  18.652  0.00  0.00    +0.000 N 
ATOM     30  C   UNL     1      50.431   4.727  18.010  0.00  0.00    +0.000 A 
ATOM     31  O   UNL     1      50.446   4.031  17.001  0.00  0.00    +0.000 OA
ATOM     32  C   UNL     1      49.225   5.236  18.633  0.00  0.00    +0.000 A 
ATOM     33  H   UNL     1      52.450   4.731  18.242  0.00  0.00    +0.000 HD
ENDBRANCH  20  23
ENDBRANCH  18  19
ENDBRANCH   5  18
TORSDOF 7
ENDMDL
MODEL 3
REMARK VINA RESULT:    -8.239      2.191      3.097
REMARK INTER + INTRA:         -12.736
REMARK INTER:                 -11.351
REMARK INTRA:                  -1.384
REMARK UNBOUND:                -1.126
REMARK  Name = 
REMARK  8 active torsions:
REMARK  status: ('A' for Active; 'I' for Inactive)
REMARK    1  A    between atoms: C_1  and  C_2
REMARK    2  A    between atoms: C_2  and  N_3
REMARK    3  A    between atoms: C_2  and  C_25
REMARK    4  A    between atoms: N_3  and  C_4
REMARK    5  A    between atoms: C_4  and  C_5
REMARK    6  A    between atoms: C_9  and  C_10
REMARK    7  A    between atoms: C_10  and  N_11
REMARK    8  A    between atoms: C_12  and  C_14
REMARK                            x       y       z     vdW  Elec       q    Type
REMARK                         _______ _______ _______ _____ _____    ______ ____
ROOT
ATOM      1  C   UNL     1      45.264   6.897  11.729  0.00  0.00    +0.000 A 
ATOM      2  C   UNL     1      44.768   8.209  11.745  0.00  0.00    +0.000 A 
ATOM      3  C   UNL     1      45.624   9.292  11.943  0.00  0.00    +0.000 A 
ATOM      4  C   UNL     1      46.984   9.075  12.159  0.00  0.00    +0.000 A 
ATOM      5  C   UNL     1      47.501   7.774  12.175  0.00  0.00    +0.000 A 
ATOM      6  C   UNL     1      46.643   6.697  11.905  0.00  0.00    +0.000 A 
ENDROOT
BRANCH   1   7
ATOM      7  C   UNL     1      44.316   5.728  11.555  0.00  0.00    +0.000 C 
BRANCH   7   8
ATOM      8  N   UNL     1      44.161   5.386  10.140  0.00  0.00    +0.000 NA
ATOM      9  H   UNL     1      43.332   5.863   9.786  0.00  0.00    +0.000 HD
BRANCH   8  11
ATOM     10  C   UNL     1      43.954   3.129  11.200  0.00  0.00    +0.000 C 
ATOM     11  C   UNL     1      43.957   3.945   9.901  0.00  0.00    +0.000 C 
BRANCH  11  12
ATOM     12  C   UNL     1      45.031   3.397   8.954  0.00  0.00    +0.000 A 
ATOM     13  C   UNL     1      45.343   2.035   8.935  0.00  0.00    +0.000 A 
ATOM     14  C   UNL     1      46.309   1.571   8.046  0.00  0.00    +0.000 A 
ATOM     15  C   UNL     1      46.949   2.476   7.208  0.00  0.00    +0.000 A 
ATOM     16  C   UNL     1      46.599   3.813   7.300  0.00  0.00    +0.000 A 
ATOM     17  N   UNL     1      45.660   4.292   8.148  0.00  0.00    +0.000 NA
ENDBRANCH  11  12
ENDBRANCH   8  11
ENDBRANCH   7   8
ENDBRANCH   1   7
BRANCH   5  18
ATOM     18  C   UNL     1      48.949   7.530  12.506  0.00  0.00    +0.000 C 
BRANCH  18  19
ATOM     19  N   UNL     1      49.101   6.717  13.681  0.00  0.00    +0.000 N 
ATOM     20  C   UNL     1      49.058   7.282  14.932  0.00  0.00    +0.000 C 
ATOM     21  O   UNL     1      48.824   8.476  15.099  0.00  0.00    +0.000 OA
ATOM     22  H   UNL     1      49.534   5.807  13.559  0.00  0.00    +0.000 HD
BRANCH  20  23
ATOM     23  C   UNL     1      49.244   6.374  16.070  0.00  0.00    +0.000 A 
ATOM     24  C   UNL     1      50.266   6.614  16.979  0.00  0.00    +0.000 A 
ATOM     25  S   UNL     1      50.301   5.505  18.274  0.00  0.00    +0.000 S 
ATOM     26  C   UNL     1      48.986   4.633  17.634  0.00  0.00    +0.000 A 
ATOM     27  N   UNL     1      48.510   3.526  18.264  0.00  0.00    +0.000 NA
ATOM     28  C   UNL     1      47.530   2.947  17.654  0.00  0.00    +0.000 A 
ATOM     29  N   UNL     1      46.980   3.376  16.474  0.00  0.00    +0.000 N 
ATOM     30  C   UNL     1      47.413   4.501  15.815  0.00  0.00    +0.000 A 
ATOM     31  O   UNL     1      46.879   4.874  14.775  0.00  0.00    +0.000 OA
ATOM     32  C   UNL     1      48.517   5.188  16.457  0.00  0.00    +0.000 A 
ATOM     33  H   UNL     1      46.209   2.881  16.051  0.00  0.00    +0.000 HD
ENDBRANCH  20  23
ENDBRANCH  18  19
ENDBRANCH   5  18
TORSDOF 7
ENDMDL
MODEL 4
REMARK VINA RESULT:    -7.658      2.393      3.033
REMARK INTER + INTRA:         -11.917
REMARK INTER:                 -10.919
REMARK INTRA:                  -0.998
REMARK UNBOUND:                -1.126
REMARK  Name = 
REMARK  8 active torsions:
REMARK  status: ('A' for Active; 'I' for Inactive)
REMARK    1  A    between atoms: C_1  and  C_2
REMARK    2  A    between atoms: C_2  and  N_3
REMARK    3  A    between atoms: C_2  and  C_25
REMARK    4  A    between atoms: N_3  and  C_4
REMARK    5  A    between atoms: C_4  and  C_5
REMARK    6  A    between atoms: C_9  and  C_10
REMARK    7  A    between atoms: C_10  and  N_11
REMARK    8  A    between atoms: C_12  and  C_14
REMARK                            x       y       z     vdW  Elec       q    Type
REMARK                         _______ _______ _______ _____ _____    ______ ____
ROOT
ATOM      1  C   UNL     1      44.869   6.554  11.980  0.00  0.00    +0.000 A 
ATOM      2  C   UNL     1      44.787   7.915  11.653  0.00  0.00    +0.000 A 
ATOM      3  C   UNL     1      45.819   8.791  11.987  0.00  0.00    +0.000 A 
ATOM      4  C   UNL     1      46.934   8.324  12.681  0.00  0.00    +0.000 A 
ATOM      5  C   UNL     1      47.029   6.974  13.043  0.00  0.00    +0.000 A 
ATOM      6  C   UNL     1      46.017   6.088  12.641  0.00  0.00    +0.000 A 
ENDROOT
BRANCH   1   7
ATOM      7  C   UNL     1      43.722   5.621  11.647  0.00  0.00    +0.000 C 
BRANCH   7   8
ATOM      8  N   UNL     1      43.835   5.120  10.276  0.00  0.00    +0.000 NA
ATOM      9  H   UNL     1      42.985   5.376   9.773  0.00  0.00    +0.000 HD
BRANCH   8  11
ATOM     10  C   UNL     1      44.318   3.016  11.540  0.00  0.00    +0.000 C 
ATOM     11  C   UNL     1      43.953   3.652  10.194  0.00  0.00    +0.000 C 
BRANCH  11  12
ATOM     12  C   UNL     1      44.990   3.253   9.138  0.00  0.00    +0.000 A 
ATOM     13  C   UNL     1      45.578   4.215   8.312  0.00  0.00    +0.000 A 
ATOM     14  C   UNL     1      46.532   3.817   7.378  0.00  0.00    +0.000 A 
ATOM     15  C   UNL     1      46.866   2.471   7.281  0.00  0.00    +0.000 A 
ATOM     16  C   UNL     1      46.223   1.577   8.121  0.00  0.00    +0.000 A 
ATOM     17  N   UNL     1      45.299   1.934   9.042  0.00  0.00    +0.000 NA
ENDBRANCH  11  12
ENDBRANCH   8  11
ENDBRANCH   7   8
ENDBRANCH   1   7
BRANCH   5  18
ATOM     18  C   UNL     1      48.182   6.486  13.878  0.00  0.00    +0.000 C 
BRANCH  18  19
ATOM     19  N   UNL     1      47.979   6.743  15.277  0.00  0.00    +0.000 N 
ATOM     20  C   UNL     1      48.989   6.525  16.181  0.00  0.00    +0.000 C 
ATOM     21  O   UNL     1      50.112   6.170  15.830  0.00  0.00    +0.000 OA
ATOM     22  H   UNL     1      47.019   6.789  15.603  0.00  0.00    +0.000 HD
BRANCH  20  23
ATOM     23  C   UNL     1      48.681   6.797  17.589  0.00  0.00    +0.000 A 
ATOM     24  C   UNL     1      48.408   8.097  17.993  0.00  0.00    +0.000 A 
ATOM     25  S   UNL     1      48.006   8.228  19.645  0.00  0.00    +0.000 S 
ATOM     26  C   UNL     1      48.236   6.559  19.890  0.00  0.00    +0.000 A 
ATOM     27  N   UNL     1      48.066   6.003  21.118  0.00  0.00    +0.000 NA
ATOM     28  C   UNL     1      48.301   4.734  21.166  0.00  0.00    +0.000 A 
ATOM     29  N   UNL     1      48.688   3.970  20.096  0.00  0.00    +0.000 N 
ATOM     30  C   UNL     1      48.850   4.484  18.832  0.00  0.00    +0.000 A 
ATOM     31  O   UNL     1      49.168   3.765  17.890  0.00  0.00    +0.000 OA
ATOM     32  C   UNL     1      48.602   5.908  18.725  0.00  0.00    +0.000 A 
ATOM     33  H   UNL     1      48.850   2.979  20.198  0.00  0.00    +0.000 HD
ENDBRANCH  20  23
ENDBRANCH  18  19
ENDBRANCH   5  18
TORSDOF 7
ENDMDL
MODEL 5
REMARK VINA RESULT:    -7.649      2.432      3.672
REMARK INTER + INTRA:         -11.905
REMARK INTER:                 -10.636
REMARK INTRA:                  -1.269
REMARK UNBOUND:                -1.126
REMARK  Name = 
REMARK  8 active torsions:
REMARK  status: ('A' for Active; 'I' for Inactive)
REMARK    1  A    between atoms: C_1  and  C_2
REMARK    2  A    between atoms: C_2  and  N_3
REMARK    3  A    between atoms: C_2  and  C_25
REMARK    4  A    between atoms: N_3  and  C_4
REMARK    5  A    between atoms: C_4  and  C_5
REMARK    6  A    between atoms: C_9  and  C_10
REMARK    7  A    between atoms: C_10  and  N_11
REMARK    8  A    between atoms: C_12  and  C_14
REMARK                            x       y       z     vdW  Elec       q    Type
REMARK                         _______ _______ _______ _____ _____    ______ ____
ROOT
ATOM      1  C   UNL     1      45.627   5.979  12.674  0.00  0.00    +0.000 A 
ATOM      2  C   UNL     1      46.589   6.970  12.432  0.00  0.00    +0.000 A 
ATOM      3  C   UNL     1      47.791   6.983  13.139  0.00  0.00    +0.000 A 
ATOM      4  C   UNL     1      48.034   6.023  14.120  0.00  0.00    +0.000 A 
ATOM      5  C   UNL     1      47.079   5.038  14.400  0.00  0.00    +0.000 A 
ATOM      6  C   UNL     1      45.904   4.992  13.634  0.00  0.00    +0.000 A 
ENDROOT
BRANCH   1   7
ATOM      7  C   UNL     1      44.309   6.000  11.928  0.00  0.00    +0.000 C 
BRANCH   7   8
ATOM      8  N   UNL     1      44.510   5.750  10.499  0.00  0.00    +0.000 NA
ATOM      9  H   UNL     1      44.070   6.509   9.978  0.00  0.00    +0.000 HD
BRANCH   8  11
ATOM     10  C   UNL     1      43.438   3.596  11.183  0.00  0.00    +0.000 C 
ATOM     11  C   UNL     1      43.894   4.496  10.028  0.00  0.00    +0.000 C 
BRANCH  11  12
ATOM     12  C   UNL     1      44.864   3.723   9.127  0.00  0.00    +0.000 A 
ATOM     13  C   UNL     1      45.025   2.342   9.266  0.00  0.00    +0.000 A 
ATOM     14  C   UNL     1      45.900   1.670   8.415  0.00  0.00    +0.000 A 
ATOM     15  C   UNL     1      46.602   2.393   7.457  0.00  0.00    +0.000 A 
ATOM     16  C   UNL     1      46.404   3.762   7.396  0.00  0.00    +0.000 A 
ATOM     17  N   UNL     1      45.556   4.440   8.204  0.00  0.00    +0.000 NA
ENDBRANCH  11  12
ENDBRANCH   8  11
ENDBRANCH   7   8
ENDBRANCH   1   7
BRANCH   5  18
ATOM     18  C   UNL     1      47.295   4.061  15.524  0.00  0.00    +0.000 C 
BRANCH  18  19
ATOM     19  N   UNL     1      47.436   4.724  16.792  0.00  0.00    +0.000 N 
ATOM     20  C   UNL     1      48.609   4.635  17.499  0.00  0.00    +0.000 C 
ATOM     21  O   UNL     1      49.595   4.050  17.056  0.00  0.00    +0.000 OA
ATOM     22  H   UNL     1      46.581   4.987  17.272  0.00  0.00    +0.000 HD
BRANCH  20  23
ATOM     23  C   UNL     1      48.651   5.329  18.791  0.00  0.00    +0.000 A 
ATOM     24  C   UNL     1      48.709   4.589  19.965  0.00  0.00    +0.000 A 
ATOM     25  S   UNL     1      48.819   5.548  21.372  0.00  0.00    +0.000 S 
ATOM     26  C   UNL     1      48.737   6.986  20.463  0.00  0.00    +0.000 A 
ATOM     27  N   UNL     1      48.764   8.200  21.073  0.00  0.00    +0.000 NA
ATOM     28  C   UNL     1      48.666   9.204  20.267  0.00  0.00    +0.000 A 
ATOM     29  N   UNL     1      48.547   9.104  18.905  0.00  0.00    +0.000 N 
ATOM     30  C   UNL     1      48.538   7.900  18.243  0.00  0.00    +0.000 A 
ATOM     31  O   UNL     1      48.459   7.847  17.020  0.00  0.00    +0.000 OA
ATOM     32  C   UNL     1      48.642   6.738  19.105  0.00  0.00    +0.000 A 
ATOM     33  H   UNL     1      48.480   9.929  18.328  0.00  0.00    +0.000 HD
ENDBRANCH  20  23
ENDBRANCH  18  19
ENDBRANCH   5  18
TORSDOF 7
ENDMDL
MODEL 6
REMARK VINA RESULT:    -7.582      1.548      2.133
REMARK INTER + INTRA:         -11.811
REMARK INTER:                 -10.655
REMARK INTRA:                  -1.156
REMARK UNBOUND:                -1.126
REMARK  Name = 
REMARK  8 active torsions:
REMARK  status: ('A' for Active; 'I' for Inactive)
REMARK    1  A    between atoms: C_1  and  C_2
REMARK    2  A    between atoms: C_2  and  N_3
REMARK    3  A    between atoms: C_2  and  C_25
REMARK    4  A    between atoms: N_3  and  C_4
REMARK    5  A    between atoms: C_4  and  C_5
REMARK    6  A    between atoms: C_9  and  C_10
REMARK    7  A    between atoms: C_10  and  N_11
REMARK    8  A    between atoms: C_12  and  C_14
REMARK                            x       y       z     vdW  Elec       q    Type
REMARK                         _______ _______ _______ _____ _____    ______ ____
ROOT
ATOM      1  C   UNL     1      46.627   5.784  12.590  0.00  0.00    +0.000 A 
ATOM      2  C   UNL     1      47.160   6.568  11.556  0.00  0.00    +0.000 A 
ATOM      3  C   UNL     1      48.193   7.471  11.808  0.00  0.00    +0.000 A 
ATOM      4  C   UNL     1      48.685   7.625  13.102  0.00  0.00    +0.000 A 
ATOM      5  C   UNL     1      48.152   6.874  14.157  0.00  0.00    +0.000 A 
ATOM      6  C   UNL     1      47.162   5.919  13.882  0.00  0.00    +0.000 A 
ENDROOT
BRANCH   1   7
ATOM      7  C   UNL     1      45.477   4.838  12.311  0.00  0.00    +0.000 C 
BRANCH   7   8
ATOM      8  N   UNL     1      44.609   5.363  11.256  0.00  0.00    +0.000 NA
ATOM      9  H   UNL     1      43.891   5.942  11.693  0.00  0.00    +0.000 HD
BRANCH   8  11
ATOM     10  C   UNL     1      43.346   3.209  11.398  0.00  0.00    +0.000 C 
ATOM     11  C   UNL     1      43.906   4.314  10.495  0.00  0.00    +0.000 C 
BRANCH  11  12
ATOM     12  C   UNL     1      44.834   3.697   9.442  0.00  0.00    +0.000 A 
ATOM     13  C   UNL     1      45.051   2.317   9.399  0.00  0.00    +0.000 A 
ATOM     14  C   UNL     1      45.884   1.790   8.416  0.00  0.00    +0.000 A 
ATOM     15  C   UNL     1      46.492   2.651   7.509  0.00  0.00    +0.000 A 
ATOM     16  C   UNL     1      46.244   4.008   7.631  0.00  0.00    +0.000 A 
ATOM     17  N   UNL     1      45.434   4.548   8.570  0.00  0.00    +0.000 NA
ENDBRANCH  11  12
ENDBRANCH   8  11
ENDBRANCH   7   8
ENDBRANCH   1   7
BRANCH   5  18
ATOM     18  C   UNL     1      48.613   7.109  15.571  0.00  0.00    +0.000 C 
BRANCH  18  19
ATOM     19  N   UNL     1      49.654   6.196  15.956  0.00  0.00    +0.000 N 
ATOM     20  C   UNL     1      50.044   6.095  17.268  0.00  0.00    +0.000 C 
ATOM     21  O   UNL     1      49.484   6.721  18.164  0.00  0.00    +0.000 OA
ATOM     22  H   UNL     1      50.278   5.873  15.223  0.00  0.00    +0.000 HD
BRANCH  20  23
ATOM     23  C   UNL     1      51.129   5.151  17.560  0.00  0.00    +0.000 A 
ATOM     24  C   UNL     1      52.365   5.633  17.972  0.00  0.00    +0.000 A 
ATOM     25  S   UNL     1      53.491   4.403  18.332  0.00  0.00    +0.000 S 
ATOM     26  C   UNL     1      52.382   3.186  17.897  0.00  0.00    +0.000 A 
ATOM     27  N   UNL     1      52.728   1.873  17.960  0.00  0.00    +0.000 NA
ATOM     28  C   UNL     1      51.801   1.060  17.574  0.00  0.00    +0.000 A 
ATOM     29  N   UNL     1      50.560   1.440  17.135  0.00  0.00    +0.000 N 
ATOM     30  C   UNL     1      50.159   2.754  17.077  0.00  0.00    +0.000 A 
ATOM     31  O   UNL     1      49.030   3.058  16.706  0.00  0.00    +0.000 OA
ATOM     32  C   UNL     1      51.166   3.709  17.496  0.00  0.00    +0.000 A 
ATOM     33  H   UNL     1      49.877   0.753  16.853  0.00  0.00    +0.000 HD
ENDBRANCH  20  23
ENDBRANCH  18  19
ENDBRANCH   5  18
TORSDOF 7
ENDMDL
MODEL 7
REMARK VINA RESULT:    -7.465      2.241      2.946
REMARK INTER + INTRA:         -11.645
REMARK INTER:                 -11.143
REMARK INTRA:                  -0.502
REMARK UNBOUND:                -1.126
REMARK  Name = 
REMARK  8 active torsions:
REMARK  status: ('A' for Active; 'I' for Inactive)
REMARK    1  A    between atoms: C_1  and  C_2
REMARK    2  A    between atoms: C_2  and  N_3
REMARK    3  A    between atoms: C_2  and  C_25
REMARK    4  A    between atoms: N_3  and  C_4
REMARK    5  A    between atoms: C_4  and  C_5
REMARK    6  A    between atoms: C_9  and  C_10
REMARK    7  A    between atoms: C_10  and  N_11
REMARK    8  A    between atoms: C_12  and  C_14
REMARK                            x       y       z     vdW  Elec       q    Type
REMARK                         _______ _______ _______ _____ _____    ______ ____
ROOT
ATOM      1  C   UNL     1      45.704   5.315  11.753  0.00  0.00    +0.000 A 
ATOM      2  C   UNL     1      45.554   4.059  12.359  0.00  0.00    +0.000 A 
ATOM      3  C   UNL     1      46.240   3.749  13.533  0.00  0.00    +0.000 A 
ATOM      4  C   UNL     1      47.109   4.680  14.100  0.00  0.00    +0.000 A 
ATOM      5  C   UNL     1      47.297   5.931  13.500  0.00  0.00    +0.000 A 
ATOM      6  C   UNL     1      46.550   6.259  12.358  0.00  0.00    +0.000 A 
ENDROOT
BRANCH   1   7
ATOM      7  C   UNL     1      44.984   5.624  10.456  0.00  0.00    +0.000 C 
BRANCH   7   8
ATOM      8  N   UNL     1      45.693   5.045   9.313  0.00  0.00    +0.000 NA
ATOM      9  H   UNL     1      45.845   5.784   8.626  0.00  0.00    +0.000 HD
BRANCH   8  11
ATOM     10  C   UNL     1      44.107   3.132   9.603  0.00  0.00    +0.000 C 
ATOM     11  C   UNL     1      44.937   3.978   8.630  0.00  0.00    +0.000 C 
BRANCH  11  12
ATOM     12  C   UNL     1      45.884   3.069   7.837  0.00  0.00    +0.000 A 
ATOM     13  C   UNL     1      46.517   3.531   6.680  0.00  0.00    +0.000 A 
ATOM     14  C   UNL     1      47.386   2.683   5.997  0.00  0.00    +0.000 A 
ATOM     15  C   UNL     1      47.593   1.395   6.476  0.00  0.00    +0.000 A 
ATOM     16  C   UNL     1      46.913   1.006   7.618  0.00  0.00    +0.000 A 
ATOM     17  N   UNL     1      46.068   1.808   8.306  0.00  0.00    +0.000 NA
ENDBRANCH  11  12
ENDBRANCH   8  11
ENDBRANCH   7   8
ENDBRANCH   1   7
BRANCH   5  18
ATOM     18  C   UNL     1      48.309   6.899  14.052  0.00  0.00    +0.000 C 
BRANCH  18  19
ATOM     19  N   UNL     1      48.132   7.113  15.463  0.00  0.00    +0.000 N 
ATOM     20  C   UNL     1      48.994   6.544  16.368  0.00  0.00    +0.000 C 
ATOM     21  O   UNL     1      49.975   5.895  16.014  0.00  0.00    +0.000 OA
ATOM     22  H   UNL     1      47.216   7.422  15.771  0.00  0.00    +0.000 HD
BRANCH  20  23
ATOM     23  C   UNL     1      48.721   6.803  17.786  0.00  0.00    +0.000 A 
ATOM     24  C   UNL     1      48.505   8.106  18.217  0.00  0.00    +0.000 A 
ATOM     25  S   UNL     1      48.138   8.223  19.878  0.00  0.00    +0.000 S 
ATOM     26  C   UNL     1      48.309   6.543  20.090  0.00  0.00    +0.000 A 
ATOM     27  N   UNL     1      48.140   5.972  21.312  0.00  0.00    +0.000 NA
ATOM     28  C   UNL     1      48.327   4.695  21.334  0.00  0.00    +0.000 A 
ATOM     29  N   UNL     1      48.665   3.935  20.245  0.00  0.00    +0.000 N 
ATOM     30  C   UNL     1      48.825   4.464  18.987  0.00  0.00    +0.000 A 
ATOM     31  O   UNL     1      49.099   3.751  18.027  0.00  0.00    +0.000 OA
ATOM     32  C   UNL     1      48.629   5.899  18.908  0.00  0.00    +0.000 A 
ATOM     33  H   UNL     1      48.792   2.937  20.328  0.00  0.00    +0.000 HD
ENDBRANCH  20  23
ENDBRANCH  18  19
ENDBRANCH   5  18
TORSDOF 7
ENDMDL
MODEL 8
REMARK VINA RESULT:    -7.257      2.036      2.597
REMARK INTER + INTRA:         -11.352
REMARK INTER:                 -10.428
REMARK INTRA:                  -0.924
REMARK UNBOUND:                -1.126
REMARK  Name = 
REMARK  8 active torsions:
REMARK  status: ('A' for Active; 'I' for Inactive)
REMARK    1  A    between atoms: C_1  and  C_2
REMARK    2  A    between atoms: C_2  and  N_3
REMARK    3  A    between atoms: C_2  and  C_25
REMARK    4  A    between atoms: N_3  and  C_4
REMARK    5  A    between atoms: C_4  and  C_5
REMARK    6  A    between atoms: C_9  and  C_10
REMARK    7  A    between atoms: C_10  and  N_11
REMARK    8  A    between atoms: C_12  and  C_14
REMARK                            x       y       z     vdW  Elec       q    Type
REMARK                         _______ _______ _______ _____ _____    ______ ____
ROOT
ATOM      1  C   UNL     1      45.638   5.411  11.574  0.00  0.00    +0.000 A 
ATOM      2  C   UNL     1      45.562   4.413  12.556  0.00  0.00    +0.000 A 
ATOM      3  C   UNL     1      46.406   4.441  13.666  0.00  0.00    +0.000 A 
ATOM      4  C   UNL     1      47.359   5.451  13.794  0.00  0.00    +0.000 A 
ATOM      5  C   UNL     1      47.473   6.445  12.814  0.00  0.00    +0.000 A 
ATOM      6  C   UNL     1      46.574   6.447  11.737  0.00  0.00    +0.000 A 
ENDROOT
BRANCH   1   7
ATOM      7  C   UNL     1      44.744   5.346  10.353  0.00  0.00    +0.000 C 
BRANCH   7   8
ATOM      8  N   UNL     1      45.467   4.802   9.202  0.00  0.00    +0.000 NA
ATOM      9  H   UNL     1      45.465   5.507   8.464  0.00  0.00    +0.000 HD
BRANCH   8  11
ATOM     10  C   UNL     1      44.294   2.654   9.718  0.00  0.00    +0.000 C 
ATOM     11  C   UNL     1      44.847   3.590   8.636  0.00  0.00    +0.000 C 
BRANCH  11  12
ATOM     12  C   UNL     1      45.851   2.828   7.762  0.00  0.00    +0.000 A 
ATOM     13  C   UNL     1      46.372   3.406   6.602  0.00  0.00    +0.000 A 
ATOM     14  C   UNL     1      47.298   2.693   5.844  0.00  0.00    +0.000 A 
ATOM     15  C   UNL     1      47.670   1.418   6.254  0.00  0.00    +0.000 A 
ATOM     16  C   UNL     1      47.093   0.906   7.404  0.00  0.00    +0.000 A 
ATOM     17  N   UNL     1      46.197   1.578   8.164  0.00  0.00    +0.000 NA
ENDBRANCH  11  12
ENDBRANCH   8  11
ENDBRANCH   7   8
ENDBRANCH   1   7
BRANCH   5  18
ATOM     18  C   UNL     1      48.565   7.477  12.897  0.00  0.00    +0.000 C 
BRANCH  18  19
ATOM     19  N   UNL     1      49.648   7.048  13.740  0.00  0.00    +0.000 N 
ATOM     20  C   UNL     1      49.769   7.530  15.020  0.00  0.00    +0.000 C 
ATOM     21  O   UNL     1      48.935   8.284  15.514  0.00  0.00    +0.000 OA
ATOM     22  H   UNL     1      50.456   6.641  13.280  0.00  0.00    +0.000 HD
BRANCH  20  23
ATOM     23  C   UNL     1      50.918   7.049  15.796  0.00  0.00    +0.000 A 
ATOM     24  C   UNL     1      52.142   7.696  15.682  0.00  0.00    +0.000 A 
ATOM     25  S   UNL     1      53.351   7.052  16.699  0.00  0.00    +0.000 S 
ATOM     26  C   UNL     1      52.294   5.852  17.285  0.00  0.00    +0.000 A 
ATOM     27  N   UNL     1      52.716   4.937  18.197  0.00  0.00    +0.000 NA
ATOM     28  C   UNL     1      51.821   4.069  18.533  0.00  0.00    +0.000 A 
ATOM     29  N   UNL     1      50.541   4.035  18.043  0.00  0.00    +0.000 N 
ATOM     30  C   UNL     1      50.065   4.953  17.138  0.00  0.00    +0.000 A 
ATOM     31  O   UNL     1      48.904   4.911  16.741  0.00  0.00    +0.000 OA
ATOM     32  C   UNL     1      51.033   5.949  16.724  0.00  0.00    +0.000 A 
ATOM     33  H   UNL     1      49.886   3.332  18.351  0.00  0.00    +0.000 HD
ENDBRANCH  20  23
ENDBRANCH  18  19
ENDBRANCH   5  18
TORSDOF 7
ENDMDL
MODEL 9
REMARK VINA RESULT:    -7.253      3.969      9.966
REMARK INTER + INTRA:         -11.347
REMARK INTER:                  -9.905
REMARK INTRA:                  -1.443
REMARK UNBOUND:                -1.126
REMARK  Name = 
REMARK  8 active torsions:
REMARK  status: ('A' for Active; 'I' for Inactive)
REMARK    1  A    between atoms: C_1  and  C_2
REMARK    2  A    between atoms: C_2  and  N_3
REMARK    3  A    between atoms: C_2  and  C_25
REMARK    4  A    between atoms: N_3  and  C_4
REMARK    5  A    between atoms: C_4  and  C_5
REMARK    6  A    between atoms: C_9  and  C_10
REMARK    7  A    between atoms: C_10  and  N_11
REMARK    8  A    between atoms: C_12  and  C_14
REMARK                            x       y       z     vdW  Elec       q    Type
REMARK                         _______ _______ _______ _____ _____    ______ ____
ROOT
ATOM      1  C   UNL     1      50.806   4.837  17.556  0.00  0.00    +0.000 A 
ATOM      2  C   UNL     1      51.530   3.639  17.647  0.00  0.00    +0.000 A 
ATOM      3  C   UNL     1      50.907   2.411  17.426  0.00  0.00    +0.000 A 
ATOM      4  C   UNL     1      49.543   2.362  17.142  0.00  0.00    +0.000 A 
ATOM      5  C   UNL     1      48.791   3.541  17.072  0.00  0.00    +0.000 A 
ATOM      6  C   UNL     1      49.441   4.775  17.226  0.00  0.00    +0.000 A 
ENDROOT
BRANCH   1   7
ATOM      7  C   UNL     1      51.486   6.161  17.838  0.00  0.00    +0.000 C 
BRANCH   7   8
ATOM      8  N   UNL     1      51.804   6.293  19.261  0.00  0.00    +0.000 NA
ATOM      9  H   UNL     1      51.589   5.407  19.719  0.00  0.00    +0.000 HD
BRANCH   8  11
ATOM     10  C   UNL     1      51.806   8.036  21.056  0.00  0.00    +0.000 C 
ATOM     11  C   UNL     1      51.014   7.332  19.947  0.00  0.00    +0.000 C 
BRANCH  11  12
ATOM     12  C   UNL     1      49.730   6.733  20.534  0.00  0.00    +0.000 A 
ATOM     13  C   UNL     1      49.697   5.408  20.980  0.00  0.00    +0.000 A 
ATOM     14  C   UNL     1      48.519   4.905  21.526  0.00  0.00    +0.000 A 
ATOM     15  C   UNL     1      47.401   5.728  21.603  0.00  0.00    +0.000 A 
ATOM     16  C   UNL     1      47.508   7.022  21.120  0.00  0.00    +0.000 A 
ATOM     17  N   UNL     1      48.640   7.541  20.591  0.00  0.00    +0.000 NA
ENDBRANCH  11  12
ENDBRANCH   8  11
ENDBRANCH   7   8
ENDBRANCH   1   7
BRANCH   5  18
ATOM     18  C   UNL     1      47.301   3.486  16.864  0.00  0.00    +0.000 C 
BRANCH  18  19
ATOM     19  N   UNL     1      46.854   4.470  15.916  0.00  0.00    +0.000 N 
ATOM     20  C   UNL     1      46.865   4.198  14.570  0.00  0.00    +0.000 C 
ATOM     21  O   UNL     1      47.190   3.098  14.131  0.00  0.00    +0.000 OA
ATOM     22  H   UNL     1      46.827   5.434  16.231  0.00  0.00    +0.000 HD
BRANCH  20  23
ATOM     23  C   UNL     1      46.410   5.272  13.680  0.00  0.00    +0.000 A 
ATOM     24  C   UNL     1      47.239   6.359  13.437  0.00  0.00    +0.000 A 
ATOM     25  S   UNL     1      46.586   7.482  12.331  0.00  0.00    +0.000 S 
ATOM     26  C   UNL     1      45.150   6.579  12.181  0.00  0.00    +0.000 A 
ATOM     27  N   UNL     1      44.140   7.005  11.377  0.00  0.00    +0.000 NA
ATOM     28  C   UNL     1      43.100   6.239  11.379  0.00  0.00    +0.000 A 
ATOM     29  N   UNL     1      42.979   5.085  12.109  0.00  0.00    +0.000 N 
ATOM     30  C   UNL     1      43.982   4.605  12.916  0.00  0.00    +0.000 A 
ATOM     31  O   UNL     1      43.853   3.553  13.534  0.00  0.00    +0.000 OA
ATOM     32  C   UNL     1      45.173   5.431  12.952  0.00  0.00    +0.000 A 
ATOM     33  H   UNL     1      42.140   4.527  12.062  0.00  0.00    +0.000 HD
ENDBRANCH  20  23
ENDBRANCH  18  19
ENDBRANCH   5  18
TORSDOF 7
ENDMDL
