MODEL 1
REMARK VINA RESULT:    -7.438      0.000      0.000
REMARK INTER + INTRA:         -10.265
REMARK INTER:                  -9.830
REMARK INTRA:                  -0.435
REMARK UNBOUND:                -0.435
REMARK  Name = 
REMARK  6 active torsions:
REMARK  status: ('A' for Active; 'I' for Inactive)
REMARK    1  A    between atoms: C_2  and  O_3
REMARK    2  A    between atoms: C_2  and  C_4
REMARK    3  A    between atoms: C_8  and  O_9
REMARK    4  A    between atoms: O_9  and  C_10
REMARK    5  A    between atoms: C_10  and  C_11
REMARK    6  A    between atoms: C_11  and  C_12
REMARK                            x       y       z     vdW  Elec       q    Type
REMARK                         _______ _______ _______ _____ _____    ______ ____
ROOT
ATOM      1  C   UNL     1      45.861   4.719  13.056  0.00  0.00    +0.000 A 
ATOM      2  C   UNL     1      45.683   6.095  12.880  0.00  0.00    +0.000 A 
ATOM      3  C   UNL     1      44.783   6.564  11.927  0.00  0.00    +0.000 A 
ATOM      4  C   UNL     1      44.066   5.662  11.138  0.00  0.00    +0.000 A 
ATOM      5  C   UNL     1      44.229   4.285  11.307  0.00  0.00    +0.000 A 
ATOM      6  C   UNL     1      45.116   3.814  12.282  0.00  0.00    +0.000 A 
ENDROOT
BRANCH   1   8
ATOM      7  O   UNL     1      47.277   3.148  14.144  0.00  0.00    +0.000 OA
ATOM      8  C   UNL     1      46.830   4.278  14.089  0.00  0.00    +0.000 C 
BRANCH   8   9
ATOM      9  O   UNL     1      47.121   5.232  15.000  0.00  0.00    +0.000 OA
ATOM     10  H   UNL     1      46.824   5.041  15.908  0.00  0.00    +0.000 HD
ENDBRANCH   8   9
ENDBRANCH   1   8
BRANCH   5  11
ATOM     11  O   UNL     1      43.581   3.319  10.581  0.00  0.00    +0.000 OA
BRANCH  11  12
ATOM     12  C   UNL     1      44.394   2.582   9.661  0.00  0.00    +0.000 C 
BRANCH  12  13
ATOM     13  C   UNL     1      45.017   3.529   8.641  0.00  0.00    +0.000 C 
BRANCH  13  14
ATOM     14  C   UNL     1      45.945   2.797   7.701  0.00  0.00    +0.000 A 
ATOM     15  C   UNL     1      46.387   1.502   8.007  0.00  0.00    +0.000 A 
ATOM     16  C   UNL     1      47.227   0.815   7.128  0.00  0.00    +0.000 A 
ATOM     17  C   UNL     1      47.639   1.419   5.942  0.00  0.00    +0.000 A 
ATOM     18  C   UNL     1      47.232   2.719   5.644  0.00  0.00    +0.000 A 
ATOM     19  C   UNL     1      46.393   3.407   6.522  0.00  0.00    +0.000 A 
ENDBRANCH  13  14
ENDBRANCH  12  13
ENDBRANCH  11  12
ENDBRANCH   5  11
TORSDOF 6
ENDMDL
MODEL 2
REMARK VINA RESULT:    -7.430      0.888      1.490
REMARK INTER + INTRA:         -10.254
REMARK INTER:                  -9.608
REMARK INTRA:                  -0.646
REMARK UNBOUND:                -0.435
REMARK  Name = 
REMARK  6 active torsions:
REMARK  status: ('A' for Active; 'I' for Inactive)
REMARK    1  A    between atoms: C_2  and  O_3
REMARK    2  A    between atoms: C_2  and  C_4
REMARK    3  A    between atoms: C_8  and  O_9
REMARK    4  A    between atoms: O_9  and  C_10
REMARK    5  A    between atoms: C_10  and  C_11
REMARK    6  A    between atoms: C_11  and  C_12
REMARK                            x       y       z     vdW  Elec       q    Type
REMARK                         _______ _______ _______ _____ _____    ______ ____
ROOT
ATOM      1  C   UNL     1      46.458   4.871  13.254  0.00  0.00    +0.000 A 
ATOM      2  C   UNL     1      47.059   6.033  12.762  0.00  0.00    +0.000 A 
ATOM      3  C   UNL     1      46.559   6.644  11.616  0.00  0.00    +0.000 A 
ATOM      4  C   UNL     1      45.463   6.091  10.950  0.00  0.00    +0.000 A 
ATOM      5  C   UNL     1      44.849   4.934  11.433  0.00  0.00    +0.000 A 
ATOM      6  C   UNL     1      45.337   4.333  12.600  0.00  0.00    +0.000 A 
ENDROOT
BRANCH   1   8
ATOM      7  O   UNL     1      47.427   3.117  14.536  0.00  0.00    +0.000 OA
ATOM      8  C   UNL     1      47.032   4.266  14.481  0.00  0.00    +0.000 C 
BRANCH   8   9
ATOM      9  O   UNL     1      47.017   5.094  15.549  0.00  0.00    +0.000 OA
ATOM     10  H   UNL     1      46.842   6.030  15.343  0.00  0.00    +0.000 HD
ENDBRANCH   8   9
ENDBRANCH   1   8
BRANCH   5  11
ATOM     11  O   UNL     1      43.776   4.308  10.851  0.00  0.00    +0.000 OA
BRANCH  11  12
ATOM     12  C   UNL     1      43.973   3.861   9.505  0.00  0.00    +0.000 C 
BRANCH  12  13
ATOM     13  C   UNL     1      44.665   2.502   9.502  0.00  0.00    +0.000 C 
BRANCH  13  14
ATOM     14  C   UNL     1      45.682   2.403   8.390  0.00  0.00    +0.000 A 
ATOM     15  C   UNL     1      45.992   3.526   7.609  0.00  0.00    +0.000 A 
ATOM     16  C   UNL     1      46.950   3.440   6.596  0.00  0.00    +0.000 A 
ATOM     17  C   UNL     1      47.599   2.232   6.349  0.00  0.00    +0.000 A 
ATOM     18  C   UNL     1      47.274   1.102   7.098  0.00  0.00    +0.000 A 
ATOM     19  C   UNL     1      46.316   1.185   8.111  0.00  0.00    +0.000 A 
ENDBRANCH  13  14
ENDBRANCH  12  13
ENDBRANCH  11  12
ENDBRANCH   5  11
TORSDOF 6
ENDMDL
MODEL 3
REMARK VINA RESULT:    -7.301      2.171      5.999
REMARK INTER + INTRA:         -10.084
REMARK INTER:                  -9.294
REMARK INTRA:                  -0.790
REMARK UNBOUND:                -0.435
REMARK  Name = 
REMARK  6 active torsions:
REMARK  status: ('A' for Active; 'I' for Inactive)
REMARK    1  A    between atoms: C_2  and  O_3
REMARK    2  A    between atoms: C_2  and  C_4
REMARK    3  A    between atoms: C_8  and  O_9
REMARK    4  A    between atoms: O_9  and  C_10
REMARK    5  A    between atoms: C_10  and  C_11
REMARK    6  A    between atoms: C_11  and  C_12
REMARK                            x       y       z     vdW  Elec       q    Type
REMARK                         _______ _______ _______ _____ _____    ______ ____
ROOT
ATOM      1  C   UNL     1      46.187   2.067   8.112  0.00  0.00    +0.000 A 
ATOM      2  C   UNL     1      46.445   3.340   7.596  0.00  0.00    +0.000 A 
ATOM      3  C   UNL     1      45.743   4.442   8.078  0.00  0.00    +0.000 A 
ATOM      4  C   UNL     1      44.773   4.274   9.068  0.00  0.00    +0.000 A 
ATOM      5  C   UNL     1      44.510   3.009   9.598  0.00  0.00    +0.000 A 
ATOM      6  C   UNL     1      45.233   1.905   9.130  0.00  0.00    +0.000 A 
ENDROOT
BRANCH   1   8
ATOM      7  O   UNL     1      46.705  -0.233   7.795  0.00  0.00    +0.000 OA
ATOM      8  C   UNL     1      46.969   0.931   7.563  0.00  0.00    +0.000 C 
BRANCH   8   9
ATOM      9  O   UNL     1      48.039   1.315   6.833  0.00  0.00    +0.000 OA
ATOM     10  H   UNL     1      48.776   1.693   7.347  0.00  0.00    +0.000 HD
ENDBRANCH   8   9
ENDBRANCH   1   8
BRANCH   5  11
ATOM     11  O   UNL     1      43.575   2.737  10.564  0.00  0.00    +0.000 OA
BRANCH  11  12
ATOM     12  C   UNL     1      43.188   3.845  11.384  0.00  0.00    +0.000 C 
BRANCH  12  13
ATOM     13  C   UNL     1      43.918   3.784  12.722  0.00  0.00    +0.000 C 
BRANCH  13  14
ATOM     14  C   UNL     1      44.990   4.843  12.815  0.00  0.00    +0.000 A 
ATOM     15  C   UNL     1      46.266   4.521  13.300  0.00  0.00    +0.000 A 
ATOM     16  C   UNL     1      47.265   5.494  13.365  0.00  0.00    +0.000 A 
ATOM     17  C   UNL     1      46.997   6.798  12.953  0.00  0.00    +0.000 A 
ATOM     18  C   UNL     1      45.722   7.137  12.500  0.00  0.00    +0.000 A 
ATOM     19  C   UNL     1      44.721   6.165  12.436  0.00  0.00    +0.000 A 
ENDBRANCH  13  14
ENDBRANCH  12  13
ENDBRANCH  11  12
ENDBRANCH   5  11
TORSDOF 6
ENDMDL
MODEL 4
REMARK VINA RESULT:    -6.835      1.603      2.301
REMARK INTER + INTRA:          -9.468
REMARK INTER:                  -8.959
REMARK INTRA:                  -0.509
REMARK UNBOUND:                -0.435
REMARK  Name = 
REMARK  6 active torsions:
REMARK  status: ('A' for Active; 'I' for Inactive)
REMARK    1  A    between atoms: C_2  and  O_3
REMARK    2  A    between atoms: C_2  and  C_4
REMARK    3  A    between atoms: C_8  and  O_9
REMARK    4  A    between atoms: O_9  and  C_10
REMARK    5  A    between atoms: C_10  and  C_11
REMARK    6  A    between atoms: C_11  and  C_12
REMARK                            x       y       z     vdW  Elec       q    Type
REMARK                         _______ _______ _______ _____ _____    ______ ____
ROOT
ATOM      1  C   UNL     1      45.738   6.328  12.419  0.00  0.00    +0.000 A 
ATOM      2  C   UNL     1      46.491   5.565  13.316  0.00  0.00    +0.000 A 
ATOM      3  C   UNL     1      46.343   4.181  13.347  0.00  0.00    +0.000 A 
ATOM      4  C   UNL     1      45.436   3.555  12.491  0.00  0.00    +0.000 A 
ATOM      5  C   UNL     1      44.682   4.304  11.585  0.00  0.00    +0.000 A 
ATOM      6  C   UNL     1      44.848   5.693  11.537  0.00  0.00    +0.000 A 
ENDROOT
BRANCH   1   8
ATOM      7  O   UNL     1      47.026   8.322  12.269  0.00  0.00    +0.000 OA
ATOM      8  C   UNL     1      45.940   7.798  12.428  0.00  0.00    +0.000 C 
BRANCH   8   9
ATOM      9  O   UNL     1      44.814   8.496  12.692  0.00  0.00    +0.000 OA
ATOM     10  H   UNL     1      44.703   8.764  13.623  0.00  0.00    +0.000 HD
ENDBRANCH   8   9
ENDBRANCH   1   8
BRANCH   5  11
ATOM     11  O   UNL     1      43.760   3.788  10.709  0.00  0.00    +0.000 OA
BRANCH  11  12
ATOM     12  C   UNL     1      44.275   2.878   9.730  0.00  0.00    +0.000 C 
BRANCH  12  13
ATOM     13  C   UNL     1      44.769   3.649   8.511  0.00  0.00    +0.000 C 
BRANCH  13  14
ATOM     14  C   UNL     1      45.784   2.852   7.727  0.00  0.00    +0.000 A 
ATOM     15  C   UNL     1      46.158   1.569   8.150  0.00  0.00    +0.000 A 
ATOM     16  C   UNL     1      47.079   0.821   7.413  0.00  0.00    +0.000 A 
ATOM     17  C   UNL     1      47.641   1.353   6.254  0.00  0.00    +0.000 A 
ATOM     18  C   UNL     1      47.301   2.641   5.843  0.00  0.00    +0.000 A 
ATOM     19  C   UNL     1      46.381   3.390   6.579  0.00  0.00    +0.000 A 
ENDBRANCH  13  14
ENDBRANCH  12  13
ENDBRANCH  11  12
ENDBRANCH   5  11
TORSDOF 6
ENDMDL
MODEL 5
REMARK VINA RESULT:    -6.516      1.690      2.592
REMARK INTER + INTRA:          -9.046
REMARK INTER:                  -8.593
REMARK INTRA:                  -0.453
REMARK UNBOUND:                -0.435
REMARK  Name = 
REMARK  6 active torsions:
REMARK  status: ('A' for Active; 'I' for Inactive)
REMARK    1  A    between atoms: C_2  and  O_3
REMARK    2  A    between atoms: C_2  and  C_4
REMARK    3  A    between atoms: C_8  and  O_9
REMARK    4  A    between atoms: O_9  and  C_10
REMARK    5  A    between atoms: C_10  and  C_11
REMARK    6  A    between atoms: C_11  and  C_12
REMARK                            x       y       z     vdW  Elec       q    Type
REMARK                         _______ _______ _______ _____ _____    ______ ____
ROOT
ATOM      1  C   UNL     1      47.312   5.990  13.128  0.00  0.00    +0.000 A 
ATOM      2  C   UNL     1      47.119   4.849  13.913  0.00  0.00    +0.000 A 
ATOM      3  C   UNL     1      46.185   3.891  13.530  0.00  0.00    +0.000 A 
ATOM      4  C   UNL     1      45.431   4.074  12.370  0.00  0.00    +0.000 A 
ATOM      5  C   UNL     1      45.617   5.206  11.573  0.00  0.00    +0.000 A 
ATOM      6  C   UNL     1      46.574   6.157  11.945  0.00  0.00    +0.000 A 
ENDROOT
BRANCH   1   8
ATOM      7  O   UNL     1      48.050   7.948  14.260  0.00  0.00    +0.000 OA
ATOM      8  C   UNL     1      48.324   6.975  13.583  0.00  0.00    +0.000 C 
BRANCH   8   9
ATOM      9  O   UNL     1      49.569   6.723  13.121  0.00  0.00    +0.000 OA
ATOM     10  H   UNL     1      50.292   7.084  13.666  0.00  0.00    +0.000 HD
ENDBRANCH   8   9
ENDBRANCH   1   8
BRANCH   5  11
ATOM     11  O   UNL     1      44.924   5.483  10.422  0.00  0.00    +0.000 OA
BRANCH  11  12
ATOM     12  C   UNL     1      45.585   5.136   9.200  0.00  0.00    +0.000 C 
BRANCH  12  13
ATOM     13  C   UNL     1      44.835   4.006   8.503  0.00  0.00    +0.000 C 
BRANCH  13  14
ATOM     14  C   UNL     1      45.785   3.040   7.836  0.00  0.00    +0.000 A 
ATOM     15  C   UNL     1      46.544   3.444   6.728  0.00  0.00    +0.000 A 
ATOM     16  C   UNL     1      47.441   2.559   6.125  0.00  0.00    +0.000 A 
ATOM     17  C   UNL     1      47.580   1.263   6.618  0.00  0.00    +0.000 A 
ATOM     18  C   UNL     1      46.806   0.842   7.698  0.00  0.00    +0.000 A 
ATOM     19  C   UNL     1      45.908   1.724   8.301  0.00  0.00    +0.000 A 
ENDBRANCH  13  14
ENDBRANCH  12  13
ENDBRANCH  11  12
ENDBRANCH   5  11
TORSDOF 6
ENDMDL
MODEL 6
REMARK VINA RESULT:    -6.472      1.594      2.455
REMARK INTER + INTRA:          -8.988
REMARK INTER:                  -8.552
REMARK INTRA:                  -0.436
REMARK UNBOUND:                -0.435
REMARK  Name = 
REMARK  6 active torsions:
REMARK  status: ('A' for Active; 'I' for Inactive)
REMARK    1  A    between atoms: C_2  and  O_3
REMARK    2  A    between atoms: C_2  and  C_4
REMARK    3  A    between atoms: C_8  and  O_9
REMARK    4  A    between atoms: O_9  and  C_10
REMARK    5  A    between atoms: C_10  and  C_11
REMARK    6  A    between atoms: C_11  and  C_12
REMARK                            x       y       z     vdW  Elec       q    Type
REMARK                         _______ _______ _______ _____ _____    ______ ____
ROOT
ATOM      1  C   UNL     1      47.346   4.721  15.018  0.00  0.00    +0.000 A 
ATOM      2  C   UNL     1      47.975   5.947  14.780  0.00  0.00    +0.000 A 
ATOM      3  C   UNL     1      47.690   6.661  13.619  0.00  0.00    +0.000 A 
ATOM      4  C   UNL     1      46.786   6.148  12.686  0.00  0.00    +0.000 A 
ATOM      5  C   UNL     1      46.147   4.927  12.914  0.00  0.00    +0.000 A 
ATOM      6  C   UNL     1      46.415   4.222  14.093  0.00  0.00    +0.000 A 
ENDROOT
BRANCH   1   8
ATOM      7  O   UNL     1      48.829   3.833  16.653  0.00  0.00    +0.000 OA
ATOM      8  C   UNL     1      47.686   4.008  16.274  0.00  0.00    +0.000 C 
BRANCH   8   9
ATOM      9  O   UNL     1      46.608   3.515  16.924  0.00  0.00    +0.000 OA
ATOM     10  H   UNL     1      46.764   3.272  17.855  0.00  0.00    +0.000 HD
ENDBRANCH   8   9
ENDBRANCH   1   8
BRANCH   5  11
ATOM     11  O   UNL     1      45.251   4.334  12.061  0.00  0.00    +0.000 OA
BRANCH  11  12
ATOM     12  C   UNL     1      44.768   5.159  10.995  0.00  0.00    +0.000 C 
BRANCH  12  13
ATOM     13  C   UNL     1      44.037   4.304   9.964  0.00  0.00    +0.000 C 
BRANCH  13  14
ATOM     14  C   UNL     1      45.006   3.589   9.053  0.00  0.00    +0.000 A 
ATOM     15  C   UNL     1      45.163   2.198   9.136  0.00  0.00    +0.000 A 
ATOM     16  C   UNL     1      46.041   1.533   8.278  0.00  0.00    +0.000 A 
ATOM     17  C   UNL     1      46.775   2.251   7.336  0.00  0.00    +0.000 A 
ATOM     18  C   UNL     1      46.650   3.638   7.267  0.00  0.00    +0.000 A 
ATOM     19  C   UNL     1      45.774   4.305   8.126  0.00  0.00    +0.000 A 
ENDBRANCH  13  14
ENDBRANCH  12  13
ENDBRANCH  11  12
ENDBRANCH   5  11
TORSDOF 6
ENDMDL
MODEL 7
REMARK VINA RESULT:    -6.412      1.669      2.525
REMARK INTER + INTRA:          -8.909
REMARK INTER:                  -8.023
REMARK INTRA:                  -0.885
REMARK UNBOUND:                -0.435
REMARK  Name = 
REMARK  6 active torsions:
REMARK  status: ('A' for Active; 'I' for Inactive)
REMARK    1  A    between atoms: C_2  and  O_3
REMARK    2  A    between atoms: C_2  and  C_4
REMARK    3  A    between atoms: C_8  and  O_9
REMARK    4  A    between atoms: O_9  and  C_10
REMARK    5  A    between atoms: C_10  and  C_11
REMARK    6  A    between atoms: C_11  and  C_12
REMARK                            x       y       z     vdW  Elec       q    Type
REMARK                         _______ _______ _______ _____ _____    ______ ____
ROOT
ATOM      1  C   UNL     1      46.909   6.523  12.462  0.00  0.00    +0.000 A 
ATOM      2  C   UNL     1      46.271   7.613  11.863  0.00  0.00    +0.000 A 
ATOM      3  C   UNL     1      44.927   7.526  11.512  0.00  0.00    +0.000 A 
ATOM      4  C   UNL     1      44.218   6.346  11.747  0.00  0.00    +0.000 A 
ATOM      5  C   UNL     1      44.841   5.251  12.350  0.00  0.00    +0.000 A 
ATOM      6  C   UNL     1      46.186   5.348  12.725  0.00  0.00    +0.000 A 
ENDROOT
BRANCH   1   8
ATOM      7  O   UNL     1      49.153   7.224  12.097  0.00  0.00    +0.000 OA
ATOM      8  C   UNL     1      48.341   6.676  12.819  0.00  0.00    +0.000 C 
BRANCH   8   9
ATOM      9  O   UNL     1      48.671   6.091  13.991  0.00  0.00    +0.000 OA
ATOM     10  H   UNL     1      49.519   5.610  13.988  0.00  0.00    +0.000 HD
ENDBRANCH   8   9
ENDBRANCH   1   8
BRANCH   5  11
ATOM     11  O   UNL     1      44.238   4.048  12.616  0.00  0.00    +0.000 OA
BRANCH  11  12
ATOM     12  C   UNL     1      44.671   2.945  11.813  0.00  0.00    +0.000 C 
BRANCH  12  13
ATOM     13  C   UNL     1      43.966   2.975  10.461  0.00  0.00    +0.000 C 
BRANCH  13  14
ATOM     14  C   UNL     1      44.957   3.005   9.322  0.00  0.00    +0.000 A 
ATOM     15  C   UNL     1      45.309   4.222   8.720  0.00  0.00    +0.000 A 
ATOM     16  C   UNL     1      46.243   4.253   7.682  0.00  0.00    +0.000 A 
ATOM     17  C   UNL     1      46.826   3.070   7.231  0.00  0.00    +0.000 A 
ATOM     18  C   UNL     1      46.458   1.852   7.801  0.00  0.00    +0.000 A 
ATOM     19  C   UNL     1      45.523   1.819   8.838  0.00  0.00    +0.000 A 
ENDBRANCH  13  14
ENDBRANCH  12  13
ENDBRANCH  11  12
ENDBRANCH   5  11
TORSDOF 6
ENDMDL
MODEL 8
REMARK VINA RESULT:    -6.123      3.341      7.590
REMARK INTER + INTRA:          -8.527
REMARK INTER:                  -8.159
REMARK INTRA:                  -0.368
REMARK UNBOUND:                -0.435
REMARK  Name = 
REMARK  6 active torsions:
REMARK  status: ('A' for Active; 'I' for Inactive)
REMARK    1  A    between atoms: C_2  and  O_3
REMARK    2  A    between atoms: C_2  and  C_4
REMARK    3  A    between atoms: C_8  and  O_9
REMARK    4  A    between atoms: O_9  and  C_10
REMARK    5  A    between atoms: C_10  and  C_11
REMARK    6  A    between atoms: C_11  and  C_12
REMARK                            x       y       z     vdW  Elec       q    Type
REMARK                         _______ _______ _______ _____ _____    ______ ____
ROOT
ATOM      1  C   UNL     1      46.818   1.207   4.900  0.00  0.00    +0.000 A 
ATOM      2  C   UNL     1      47.140   0.248   5.865  0.00  0.00    +0.000 A 
ATOM      3  C   UNL     1      47.229   0.613   7.206  0.00  0.00    +0.000 A 
ATOM      4  C   UNL     1      47.009   1.938   7.586  0.00  0.00    +0.000 A 
ATOM      5  C   UNL     1      46.681   2.905   6.633  0.00  0.00    +0.000 A 
ATOM      6  C   UNL     1      46.567   2.533   5.288  0.00  0.00    +0.000 A 
ENDROOT
BRANCH   1   8
ATOM      7  O   UNL     1      47.668   0.261   2.890  0.00  0.00    +0.000 OA
ATOM      8  C   UNL     1      46.733   0.759   3.488  0.00  0.00    +0.000 C 
BRANCH   8   9
ATOM      9  O   UNL     1      45.539   1.015   2.911  0.00  0.00    +0.000 OA
ATOM     10  H   UNL     1      45.573   1.608   2.138  0.00  0.00    +0.000 HD
ENDBRANCH   8   9
ENDBRANCH   1   8
BRANCH   5  11
ATOM     11  O   UNL     1      46.454   4.232   6.900  0.00  0.00    +0.000 OA
BRANCH  11  12
ATOM     12  C   UNL     1      46.105   4.542   8.254  0.00  0.00    +0.000 C 
BRANCH  12  13
ATOM     13  C   UNL     1      44.649   4.171   8.516  0.00  0.00    +0.000 C 
BRANCH  13  14
ATOM     14  C   UNL     1      44.351   4.113   9.996  0.00  0.00    +0.000 A 
ATOM     15  C   UNL     1      44.555   5.240  10.805  0.00  0.00    +0.000 A 
ATOM     16  C   UNL     1      44.258   5.195  12.168  0.00  0.00    +0.000 A 
ATOM     17  C   UNL     1      43.764   4.022  12.736  0.00  0.00    +0.000 A 
ATOM     18  C   UNL     1      43.589   2.886  11.947  0.00  0.00    +0.000 A 
ATOM     19  C   UNL     1      43.887   2.929  10.583  0.00  0.00    +0.000 A 
ENDBRANCH  13  14
ENDBRANCH  12  13
ENDBRANCH  11  12
ENDBRANCH   5  11
TORSDOF 6
ENDMDL
MODEL 9
REMARK VINA RESULT:    -5.979      3.319      7.722
REMARK INTER + INTRA:          -8.337
REMARK INTER:                  -7.989
REMARK INTRA:                  -0.348
REMARK UNBOUND:                -0.435
REMARK  Name = 
REMARK  6 active torsions:
REMARK  status: ('A' for Active; 'I' for Inactive)
REMARK    1  A    between atoms: C_2  and  O_3
REMARK    2  A    between atoms: C_2  and  C_4
REMARK    3  A    between atoms: C_8  and  O_9
REMARK    4  A    between atoms: O_9  and  C_10
REMARK    5  A    between atoms: C_10  and  C_11
REMARK    6  A    between atoms: C_11  and  C_12
REMARK                            x       y       z     vdW  Elec       q    Type
REMARK                         _______ _______ _______ _____ _____    ______ ____
ROOT
ATOM      1  C   UNL     1      45.168   3.947  11.666  0.00  0.00    +0.000 A 
ATOM      2  C   UNL     1      45.314   5.310  11.395  0.00  0.00    +0.000 A 
ATOM      3  C   UNL     1      46.124   6.098  12.209  0.00  0.00    +0.000 A 
ATOM      4  C   UNL     1      46.780   5.531  13.302  0.00  0.00    +0.000 A 
ATOM      5  C   UNL     1      46.648   4.169  13.581  0.00  0.00    +0.000 A 
ATOM      6  C   UNL     1      45.853   3.372  12.749  0.00  0.00    +0.000 A 
ENDROOT
BRANCH   1   8
ATOM      7  O   UNL     1      43.194   2.753  11.086  0.00  0.00    +0.000 OA
ATOM      8  C   UNL     1      44.295   3.156  10.763  0.00  0.00    +0.000 C 
BRANCH   8   9
ATOM      9  O   UNL     1      44.866   2.873   9.572  0.00  0.00    +0.000 OA
ATOM     10  H   UNL     1      44.281   2.974   8.799  0.00  0.00    +0.000 HD
ENDBRANCH   8   9
ENDBRANCH   1   8
BRANCH   5  11
ATOM     11  O   UNL     1      47.242   3.517  14.632  0.00  0.00    +0.000 OA
BRANCH  11  12
ATOM     12  C   UNL     1      47.418   4.291  15.824  0.00  0.00    +0.000 C 
BRANCH  12  13
ATOM     13  C   UNL     1      47.672   3.369  17.012  0.00  0.00    +0.000 C 
BRANCH  13  14
ATOM     14  C   UNL     1      49.150   3.200  17.274  0.00  0.00    +0.000 A 
ATOM     15  C   UNL     1      49.905   4.263  17.788  0.00  0.00    +0.000 A 
ATOM     16  C   UNL     1      51.267   4.100  18.053  0.00  0.00    +0.000 A 
ATOM     17  C   UNL     1      51.886   2.878  17.799  0.00  0.00    +0.000 A 
ATOM     18  C   UNL     1      51.150   1.824  17.257  0.00  0.00    +0.000 A 
ATOM     19  C   UNL     1      49.789   1.986  16.991  0.00  0.00    +0.000 A 
ENDBRANCH  13  14
ENDBRANCH  12  13
ENDBRANCH  11  12
ENDBRANCH   5  11
TORSDOF 6
ENDMDL
