MODEL 1
REMARK VINA RESULT:    -8.027      0.000      0.000
REMARK INTER + INTRA:         -12.481
REMARK INTER:                 -11.312
REMARK INTRA:                  -1.169
REMARK UNBOUND:                -1.169
REMARK  Name = 
REMARK  7 active torsions:
REMARK  status: ('A' for Active; 'I' for Inactive)
REMARK    1  A    between atoms: C_2  and  C_21
REMARK    2  A    between atoms: N_3  and  C_4
REMARK    3  A    between atoms: C_4  and  C_5
REMARK    4  A    between atoms: C_8  and  N_9
REMARK    5  A    between atoms: N_9  and  C_10
REMARK    6  A    between atoms: C_10  and  C_11
REMARK    7  A    between atoms: C_11  and  C_12
REMARK                            x       y       z     vdW  Elec       q    Type
REMARK                         _______ _______ _______ _____ _____    ______ ____
ROOT
ATOM      1  C   UNL     1      45.738   6.487  12.236  0.00  0.00    +0.000 A 
ATOM      2  C   UNL     1      45.990   6.240  10.890  0.00  0.00    +0.000 A 
ATOM      3  C   UNL     1      45.405   5.131  10.283  0.00  0.00    +0.000 A 
ATOM      4  C   UNL     1      44.600   4.269  11.026  0.00  0.00    +0.000 A 
ATOM      5  C   UNL     1      44.323   4.665  12.336  0.00  0.00    +0.000 A 
ATOM      6  N   UNL     1      44.871   5.738  12.959  0.00  0.00    +0.000 NA
ENDROOT
BRANCH   4   7
ATOM      7  N   UNL     1      44.014   3.105  10.515  0.00  0.00    +0.000 N 
ATOM      8  H   UNL     1      43.018   3.087  10.731  0.00  0.00    +0.000 HD
BRANCH   7   9
ATOM      9  C   UNL     1      44.277   2.792   9.105  0.00  0.00    +0.000 C 
BRANCH   9  10
ATOM     10  C   UNL     1      45.437   1.800   9.016  0.00  0.00    +0.000 C 
BRANCH  10  11
ATOM     11  C   UNL     1      46.193   1.968   7.724  0.00  0.00    +0.000 A 
ATOM     12  N   UNL     1      46.232   3.238   7.237  0.00  0.00    +0.000 NA
ATOM     13  C   UNL     1      46.916   3.452   6.090  0.00  0.00    +0.000 A 
ATOM     14  C   UNL     1      47.585   2.459   5.399  0.00  0.00    +0.000 A 
ATOM     15  C   UNL     1      47.550   1.166   5.910  0.00  0.00    +0.000 A 
ATOM     16  C   UNL     1      46.848   0.908   7.087  0.00  0.00    +0.000 A 
ATOM     17 CL   UNL     1      46.838  -0.704   7.693  0.00  0.00    +0.000 Cl
ENDBRANCH  10  11
ENDBRANCH   9  10
ENDBRANCH   7   9
ENDBRANCH   4   7
BRANCH   1  18
ATOM     18  C   UNL     1      46.445   7.616  12.940  0.00  0.00    +0.000 C 
BRANCH  18  21
ATOM     19  O   UNL     1      49.029   6.492  13.167  0.00  0.00    +0.000 OA
ATOM     20  C   UNL     1      48.335   6.616  14.174  0.00  0.00    +0.000 C 
ATOM     21  N   UNL     1      47.096   7.187  14.152  0.00  0.00    +0.000 N 
ATOM     22  H   UNL     1      46.538   7.241  14.993  0.00  0.00    +0.000 HD
BRANCH  20  23
ATOM     23  C   UNL     1      48.818   6.204  15.495  0.00  0.00    +0.000 A 
ATOM     24  C   UNL     1      49.830   6.911  16.127  0.00  0.00    +0.000 A 
ATOM     25  S   UNL     1      50.209   6.309  17.679  0.00  0.00    +0.000 S 
ATOM     26  C   UNL     1      49.060   5.058  17.538  0.00  0.00    +0.000 A 
ATOM     27  N   UNL     1      48.868   4.164  18.544  0.00  0.00    +0.000 NA
ATOM     28  C   UNL     1      47.979   3.259  18.290  0.00  0.00    +0.000 A 
ATOM     29  N   UNL     1      47.276   3.160  17.117  0.00  0.00    +0.000 N 
ATOM     30  C   UNL     1      47.435   4.044  16.079  0.00  0.00    +0.000 A 
ATOM     31  O   UNL     1      46.772   3.934  15.052  0.00  0.00    +0.000 OA
ATOM     32  C   UNL     1      48.405   5.095  16.321  0.00  0.00    +0.000 A 
ATOM     33  H   UNL     1      46.595   2.429  16.979  0.00  0.00    +0.000 HD
ENDBRANCH  20  23
ENDBRANCH  18  21
ENDBRANCH   1  18
TORSDOF 7
ENDMDL
MODEL 2
REMARK VINA RESULT:    -7.361      3.224      4.645
REMARK INTER + INTRA:         -11.542
REMARK INTER:                 -10.447
REMARK INTRA:                  -1.095
REMARK UNBOUND:                -1.169
REMARK  Name = 
REMARK  7 active torsions:
REMARK  status: ('A' for Active; 'I' for Inactive)
REMARK    1  A    between atoms: C_2  and  C_21
REMARK    2  A    between atoms: N_3  and  C_4
REMARK    3  A    between atoms: C_4  and  C_5
REMARK    4  A    between atoms: C_8  and  N_9
REMARK    5  A    between atoms: N_9  and  C_10
REMARK    6  A    between atoms: C_10  and  C_11
REMARK    7  A    between atoms: C_11  and  C_12
REMARK                            x       y       z     vdW  Elec       q    Type
REMARK                         _______ _______ _______ _____ _____    ______ ____
ROOT
ATOM      1  C   UNL     1      48.451   5.794  16.186  0.00  0.00    +0.000 A 
ATOM      2  C   UNL     1      47.668   4.645  16.225  0.00  0.00    +0.000 A 
ATOM      3  C   UNL     1      46.949   4.277  15.089  0.00  0.00    +0.000 A 
ATOM      4  C   UNL     1      46.997   5.068  13.942  0.00  0.00    +0.000 A 
ATOM      5  C   UNL     1      47.896   6.136  13.972  0.00  0.00    +0.000 A 
ATOM      6  N   UNL     1      48.613   6.523  15.055  0.00  0.00    +0.000 NA
ENDROOT
BRANCH   4   7
ATOM      7  N   UNL     1      46.269   4.805  12.776  0.00  0.00    +0.000 N 
ATOM      8  H   UNL     1      45.415   4.296  13.000  0.00  0.00    +0.000 HD
BRANCH   7   9
ATOM      9  C   UNL     1      46.015   5.939  11.880  0.00  0.00    +0.000 C 
BRANCH   9  10
ATOM     10  C   UNL     1      44.718   5.694  11.109  0.00  0.00    +0.000 C 
BRANCH  10  11
ATOM     11  C   UNL     1      44.900   4.616  10.073  0.00  0.00    +0.000 A 
ATOM     12  N   UNL     1      45.659   4.968   8.999  0.00  0.00    +0.000 NA
ATOM     13  C   UNL     1      45.874   4.032   8.047  0.00  0.00    +0.000 A 
ATOM     14  C   UNL     1      45.381   2.742   8.113  0.00  0.00    +0.000 A 
ATOM     15  C   UNL     1      44.617   2.387   9.220  0.00  0.00    +0.000 A 
ATOM     16  C   UNL     1      44.369   3.329  10.218  0.00  0.00    +0.000 A 
ATOM     17 CL   UNL     1      43.427   2.847  11.577  0.00  0.00    +0.000 Cl
ENDBRANCH  10  11
ENDBRANCH   9  10
ENDBRANCH   7   9
ENDBRANCH   4   7
BRANCH   1  18
ATOM     18  C   UNL     1      49.151   6.271  17.434  0.00  0.00    +0.000 C 
BRANCH  18  21
ATOM     19  O   UNL     1      51.786   6.184  16.415  0.00  0.00    +0.000 OA
ATOM     20  C   UNL     1      51.446   5.376  17.276  0.00  0.00    +0.000 C 
ATOM     21  N   UNL     1      50.206   5.381  17.846  0.00  0.00    +0.000 N 
ATOM     22  H   UNL     1      49.948   4.679  18.527  0.00  0.00    +0.000 HD
BRANCH  20  23
ATOM     23  C   UNL     1      52.377   4.371  17.798  0.00  0.00    +0.000 A 
ATOM     24  C   UNL     1      53.584   4.756  18.363  0.00  0.00    +0.000 A 
ATOM     25  S   UNL     1      54.499   3.445  18.962  0.00  0.00    +0.000 S 
ATOM     26  C   UNL     1      53.328   2.318  18.449  0.00  0.00    +0.000 A 
ATOM     27  N   UNL     1      53.495   0.985  18.662  0.00  0.00    +0.000 NA
ATOM     28  C   UNL     1      52.537   0.248  18.201  0.00  0.00    +0.000 A 
ATOM     29  N   UNL     1      51.436   0.722  17.535  0.00  0.00    +0.000 N 
ATOM     30  C   UNL     1      51.227   2.059  17.303  0.00  0.00    +0.000 A 
ATOM     31  O   UNL     1      50.218   2.444  16.720  0.00  0.00    +0.000 OA
ATOM     32  C   UNL     1      52.261   2.933  17.821  0.00  0.00    +0.000 A 
ATOM     33  H   UNL     1      50.723   0.094  17.198  0.00  0.00    +0.000 HD
ENDBRANCH  20  23
ENDBRANCH  18  21
ENDBRANCH   1  18
TORSDOF 7
ENDMDL
MODEL 3
REMARK VINA RESULT:    -7.291      1.599      1.842
REMARK INTER + INTRA:         -11.444
REMARK INTER:                 -10.347
REMARK INTRA:                  -1.097
REMARK UNBOUND:                -1.169
REMARK  Name = 
REMARK  7 active torsions:
REMARK  status: ('A' for Active; 'I' for Inactive)
REMARK    1  A    between atoms: C_2  and  C_21
REMARK    2  A    between atoms: N_3  and  C_4
REMARK    3  A    between atoms: C_4  and  C_5
REMARK    4  A    between atoms: C_8  and  N_9
REMARK    5  A    between atoms: N_9  and  C_10
REMARK    6  A    between atoms: C_10  and  C_11
REMARK    7  A    between atoms: C_11  and  C_12
REMARK                            x       y       z     vdW  Elec       q    Type
REMARK                         _______ _______ _______ _____ _____    ______ ____
ROOT
ATOM      1  C   UNL     1      47.133   5.765  13.199  0.00  0.00    +0.000 A 
ATOM      2  C   UNL     1      46.204   6.111  12.223  0.00  0.00    +0.000 A 
ATOM      3  C   UNL     1      45.377   5.121  11.693  0.00  0.00    +0.000 A 
ATOM      4  C   UNL     1      45.503   3.801  12.121  0.00  0.00    +0.000 A 
ATOM      5  C   UNL     1      46.386   3.580  13.179  0.00  0.00    +0.000 A 
ATOM      6  N   UNL     1      47.204   4.516  13.721  0.00  0.00    +0.000 NA
ENDROOT
BRANCH   4   7
ATOM      7  N   UNL     1      44.753   2.736  11.609  0.00  0.00    +0.000 N 
ATOM      8  H   UNL     1      44.054   2.436  12.289  0.00  0.00    +0.000 HD
BRANCH   7   9
ATOM      9  C   UNL     1      44.177   2.910  10.270  0.00  0.00    +0.000 C 
BRANCH   9  10
ATOM     10  C   UNL     1      44.682   1.794   9.354  0.00  0.00    +0.000 C 
BRANCH  10  11
ATOM     11  C   UNL     1      45.707   2.316   8.382  0.00  0.00    +0.000 A 
ATOM     12  N   UNL     1      45.736   3.670   8.241  0.00  0.00    +0.000 NA
ATOM     13  C   UNL     1      46.652   4.196   7.397  0.00  0.00    +0.000 A 
ATOM     14  C   UNL     1      47.563   3.439   6.685  0.00  0.00    +0.000 A 
ATOM     15  C   UNL     1      47.535   2.057   6.843  0.00  0.00    +0.000 A 
ATOM     16  C   UNL     1      46.599   1.480   7.700  0.00  0.00    +0.000 A 
ATOM     17 CL   UNL     1      46.603  -0.233   7.877  0.00  0.00    +0.000 Cl
ENDBRANCH  10  11
ENDBRANCH   9  10
ENDBRANCH   7   9
ENDBRANCH   4   7
BRANCH   1  18
ATOM     18  C   UNL     1      48.110   6.793  13.708  0.00  0.00    +0.000 C 
BRANCH  18  21
ATOM     19  O   UNL     1      50.502   6.934  15.206  0.00  0.00    +0.000 OA
ATOM     20  C   UNL     1      49.430   6.808  15.794  0.00  0.00    +0.000 C 
ATOM     21  N   UNL     1      48.230   6.774  15.144  0.00  0.00    +0.000 N 
ATOM     22  H   UNL     1      47.370   6.633  15.655  0.00  0.00    +0.000 HD
BRANCH  20  23
ATOM     23  C   UNL     1      49.358   6.738  17.256  0.00  0.00    +0.000 A 
ATOM     24  C   UNL     1      49.610   7.862  18.028  0.00  0.00    +0.000 A 
ATOM     25  S   UNL     1      49.419   7.591  19.703  0.00  0.00    +0.000 S 
ATOM     26  C   UNL     1      49.033   5.950  19.451  0.00  0.00    +0.000 A 
ATOM     27  N   UNL     1      48.748   5.127  20.495  0.00  0.00    +0.000 NA
ATOM     28  C   UNL     1      48.493   3.904  20.156  0.00  0.00    +0.000 A 
ATOM     29  N   UNL     1      48.511   3.429  18.870  0.00  0.00    +0.000 N 
ATOM     30  C   UNL     1      48.789   4.226  17.788  0.00  0.00    +0.000 A 
ATOM     31  O   UNL     1      48.777   3.766  16.650  0.00  0.00    +0.000 OA
ATOM     32  C   UNL     1      49.060   5.614  18.110  0.00  0.00    +0.000 A 
ATOM     33  H   UNL     1      48.305   2.463  18.671  0.00  0.00    +0.000 HD
ENDBRANCH  20  23
ENDBRANCH  18  21
ENDBRANCH   1  18
TORSDOF 7
ENDMDL
MODEL 4
REMARK VINA RESULT:    -7.152      3.805      8.243
REMARK INTER + INTRA:         -11.247
REMARK INTER:                  -9.811
REMARK INTRA:                  -1.437
REMARK UNBOUND:                -1.169
REMARK  Name = 
REMARK  7 active torsions:
REMARK  status: ('A' for Active; 'I' for Inactive)
REMARK    1  A    between atoms: C_2  and  C_21
REMARK    2  A    between atoms: N_3  and  C_4
REMARK    3  A    between atoms: C_4  and  C_5
REMARK    4  A    between atoms: C_8  and  N_9
REMARK    5  A    between atoms: N_9  and  C_10
REMARK    6  A    between atoms: C_10  and  C_11
REMARK    7  A    between atoms: C_11  and  C_12
REMARK                            x       y       z     vdW  Elec       q    Type
REMARK                         _______ _______ _______ _____ _____    ______ ____
ROOT
ATOM      1  C   UNL     1      48.994   7.350  13.526  0.00  0.00    +0.000 A 
ATOM      2  C   UNL     1      50.123   7.931  14.094  0.00  0.00    +0.000 A 
ATOM      3  C   UNL     1      50.431   7.654  15.425  0.00  0.00    +0.000 A 
ATOM      4  C   UNL     1      49.601   6.825  16.178  0.00  0.00    +0.000 A 
ATOM      5  C   UNL     1      48.559   6.207  15.484  0.00  0.00    +0.000 A 
ATOM      6  N   UNL     1      48.230   6.449  14.191  0.00  0.00    +0.000 NA
ENDROOT
BRANCH   4   7
ATOM      7  N   UNL     1      49.804   6.533  17.531  0.00  0.00    +0.000 N 
ATOM      8  H   UNL     1      50.406   7.236  17.958  0.00  0.00    +0.000 HD
BRANCH   7   9
ATOM      9  C   UNL     1      48.608   6.268  18.341  0.00  0.00    +0.000 C 
BRANCH   9  10
ATOM     10  C   UNL     1      48.838   5.015  19.186  0.00  0.00    +0.000 C 
BRANCH  10  11
ATOM     11  C   UNL     1      49.513   3.936  18.381  0.00  0.00    +0.000 A 
ATOM     12  N   UNL     1      50.870   3.895  18.491  0.00  0.00    +0.000 NA
ATOM     13  C   UNL     1      51.528   2.933  17.806  0.00  0.00    +0.000 A 
ATOM     14  C   UNL     1      50.900   1.986  17.017  0.00  0.00    +0.000 A 
ATOM     15  C   UNL     1      49.513   2.028  16.920  0.00  0.00    +0.000 A 
ATOM     16  C   UNL     1      48.803   3.012  17.607  0.00  0.00    +0.000 A 
ATOM     17 CL   UNL     1      47.086   3.023  17.469  0.00  0.00    +0.000 Cl
ENDBRANCH  10  11
ENDBRANCH   9  10
ENDBRANCH   7   9
ENDBRANCH   4   7
BRANCH   1  18
ATOM     18  C   UNL     1      48.580   7.719  12.124  0.00  0.00    +0.000 C 
BRANCH  18  21
ATOM     19  O   UNL     1      45.786   7.853  11.719  0.00  0.00    +0.000 OA
ATOM     20  C   UNL     1      46.395   6.838  11.388  0.00  0.00    +0.000 C 
ATOM     21  N   UNL     1      47.748   6.714  11.513  0.00  0.00    +0.000 N 
ATOM     22  H   UNL     1      48.213   5.851  11.264  0.00  0.00    +0.000 HD
BRANCH  20  23
ATOM     23  C   UNL     1      45.710   5.695  10.778  0.00  0.00    +0.000 A 
ATOM     24  C   UNL     1      45.801   5.465   9.413  0.00  0.00    +0.000 A 
ATOM     25  S   UNL     1      44.983   4.055   8.907  0.00  0.00    +0.000 S 
ATOM     26  C   UNL     1      44.446   3.729  10.492  0.00  0.00    +0.000 A 
ATOM     27  N   UNL     1      43.682   2.637  10.764  0.00  0.00    +0.000 NA
ATOM     28  C   UNL     1      43.332   2.528  12.005  0.00  0.00    +0.000 A 
ATOM     29  N   UNL     1      43.665   3.418  12.993  0.00  0.00    +0.000 N 
ATOM     30  C   UNL     1      44.437   4.529  12.762  0.00  0.00    +0.000 A 
ATOM     31  O   UNL     1      44.729   5.292  13.678  0.00  0.00    +0.000 OA
ATOM     32  C   UNL     1      44.877   4.688  11.390  0.00  0.00    +0.000 A 
ATOM     33  H   UNL     1      43.359   3.277  13.943  0.00  0.00    +0.000 HD
ENDBRANCH  20  23
ENDBRANCH  18  21
ENDBRANCH   1  18
TORSDOF 7
ENDMDL
MODEL 5
REMARK VINA RESULT:    -7.129      3.521      8.544
REMARK INTER + INTRA:         -11.214
REMARK INTER:                  -9.643
REMARK INTRA:                  -1.571
REMARK UNBOUND:                -1.169
REMARK  Name = 
REMARK  7 active torsions:
REMARK  status: ('A' for Active; 'I' for Inactive)
REMARK    1  A    between atoms: C_2  and  C_21
REMARK    2  A    between atoms: N_3  and  C_4
REMARK    3  A    between atoms: C_4  and  C_5
REMARK    4  A    between atoms: C_8  and  N_9
REMARK    5  A    between atoms: N_9  and  C_10
REMARK    6  A    between atoms: C_10  and  C_11
REMARK    7  A    between atoms: C_11  and  C_12
REMARK                            x       y       z     vdW  Elec       q    Type
REMARK                         _______ _______ _______ _____ _____    ______ ____
ROOT
ATOM      1  C   UNL     1      48.416   7.880  13.666  0.00  0.00    +0.000 A 
ATOM      2  C   UNL     1      48.052   8.951  14.475  0.00  0.00    +0.000 A 
ATOM      3  C   UNL     1      48.444   8.954  15.813  0.00  0.00    +0.000 A 
ATOM      4  C   UNL     1      49.169   7.884  16.333  0.00  0.00    +0.000 A 
ATOM      5  C   UNL     1      49.576   6.915  15.414  0.00  0.00    +0.000 A 
ATOM      6  N   UNL     1      49.217   6.879  14.106  0.00  0.00    +0.000 NA
ENDROOT
BRANCH   4   7
ATOM      7  N   UNL     1      49.560   7.777  17.672  0.00  0.00    +0.000 N 
ATOM      8  H   UNL     1      48.745   7.639  18.269  0.00  0.00    +0.000 HD
BRANCH   7   9
ATOM      9  C   UNL     1      50.634   6.825  17.978  0.00  0.00    +0.000 C 
BRANCH   9  10
ATOM     10  C   UNL     1      50.119   5.786  18.975  0.00  0.00    +0.000 C 
BRANCH  10  11
ATOM     11  C   UNL     1      49.336   4.706  18.274  0.00  0.00    +0.000 A 
ATOM     12  N   UNL     1      48.003   4.949  18.145  0.00  0.00    +0.000 NA
ATOM     13  C   UNL     1      47.253   4.023  17.505  0.00  0.00    +0.000 A 
ATOM     14  C   UNL     1      47.768   2.859  16.965  0.00  0.00    +0.000 A 
ATOM     15  C   UNL     1      49.133   2.624  17.091  0.00  0.00    +0.000 A 
ATOM     16  C   UNL     1      49.935   3.555  17.752  0.00  0.00    +0.000 A 
ATOM     17 CL   UNL     1      51.622   3.232  17.878  0.00  0.00    +0.000 Cl
ENDBRANCH  10  11
ENDBRANCH   9  10
ENDBRANCH   7   9
ENDBRANCH   4   7
BRANCH   1  18
ATOM     18  C   UNL     1      47.912   7.801  12.248  0.00  0.00    +0.000 C 
BRANCH  18  21
ATOM     19  O   UNL     1      45.092   7.626  12.316  0.00  0.00    +0.000 OA
ATOM     20  C   UNL     1      45.753   6.613  12.101  0.00  0.00    +0.000 C 
ATOM     21  N   UNL     1      47.115   6.624  12.012  0.00  0.00    +0.000 N 
ATOM     22  H   UNL     1      47.630   5.766  11.870  0.00  0.00    +0.000 HD
BRANCH  20  23
ATOM     23  C   UNL     1      45.116   5.313  11.869  0.00  0.00    +0.000 A 
ATOM     24  C   UNL     1      44.485   4.643  12.907  0.00  0.00    +0.000 A 
ATOM     25  S   UNL     1      43.756   3.178  12.423  0.00  0.00    +0.000 S 
ATOM     26  C   UNL     1      44.296   3.373  10.818  0.00  0.00    +0.000 A 
ATOM     27  N   UNL     1      44.004   2.450   9.862  0.00  0.00    +0.000 NA
ATOM     28  C   UNL     1      44.496   2.718   8.696  0.00  0.00    +0.000 A 
ATOM     29  N   UNL     1      45.262   3.817   8.403  0.00  0.00    +0.000 N 
ATOM     30  C   UNL     1      45.576   4.773   9.337  0.00  0.00    +0.000 A 
ATOM     31  O   UNL     1      46.249   5.753   9.030  0.00  0.00    +0.000 OA
ATOM     32  C   UNL     1      45.029   4.533  10.658  0.00  0.00    +0.000 A 
ATOM     33  H   UNL     1      45.618   3.969   7.473  0.00  0.00    +0.000 HD
ENDBRANCH  20  23
ENDBRANCH  18  21
ENDBRANCH   1  18
TORSDOF 7
ENDMDL
MODEL 6
REMARK VINA RESULT:    -6.739      2.579      3.145
REMARK INTER + INTRA:         -10.665
REMARK INTER:                  -9.956
REMARK INTRA:                  -0.709
REMARK UNBOUND:                -1.169
REMARK  Name = 
REMARK  7 active torsions:
REMARK  status: ('A' for Active; 'I' for Inactive)
REMARK    1  A    between atoms: C_2  and  C_21
REMARK    2  A    between atoms: N_3  and  C_4
REMARK    3  A    between atoms: C_4  and  C_5
REMARK    4  A    between atoms: C_8  and  N_9
REMARK    5  A    between atoms: N_9  and  C_10
REMARK    6  A    between atoms: C_10  and  C_11
REMARK    7  A    between atoms: C_11  and  C_12
REMARK                            x       y       z     vdW  Elec       q    Type
REMARK                         _______ _______ _______ _____ _____    ______ ____
ROOT
ATOM      1  C   UNL     1      46.791   4.466  14.248  0.00  0.00    +0.000 A 
ATOM      2  C   UNL     1      46.774   5.793  13.834  0.00  0.00    +0.000 A 
ATOM      3  C   UNL     1      46.221   6.109  12.594  0.00  0.00    +0.000 A 
ATOM      4  C   UNL     1      45.718   5.101  11.774  0.00  0.00    +0.000 A 
ATOM      5  C   UNL     1      45.683   3.820  12.328  0.00  0.00    +0.000 A 
ATOM      6  N   UNL     1      46.208   3.475  13.530  0.00  0.00    +0.000 NA
ENDROOT
BRANCH   4   7
ATOM      7  N   UNL     1      45.193   5.318  10.495  0.00  0.00    +0.000 N 
ATOM      8  H   UNL     1      45.934   5.594   9.851  0.00  0.00    +0.000 HD
BRANCH   7   9
ATOM      9  C   UNL     1      44.344   4.260   9.935  0.00  0.00    +0.000 C 
BRANCH   9  10
ATOM     10  C   UNL     1      44.448   4.283   8.410  0.00  0.00    +0.000 C 
BRANCH  10  11
ATOM     11  C   UNL     1      45.574   3.404   7.932  0.00  0.00    +0.000 A 
ATOM     12  N   UNL     1      46.538   4.040   7.211  0.00  0.00    +0.000 NA
ATOM     13  C   UNL     1      47.585   3.305   6.774  0.00  0.00    +0.000 A 
ATOM     14  C   UNL     1      47.736   1.955   7.031  0.00  0.00    +0.000 A 
ATOM     15  C   UNL     1      46.752   1.315   7.779  0.00  0.00    +0.000 A 
ATOM     16  C   UNL     1      45.654   2.042   8.239  0.00  0.00    +0.000 A 
ATOM     17 CL   UNL     1      44.464   1.216   9.170  0.00  0.00    +0.000 Cl
ENDBRANCH  10  11
ENDBRANCH   9  10
ENDBRANCH   7   9
ENDBRANCH   4   7
BRANCH   1  18
ATOM     18  C   UNL     1      47.480   4.086  15.534  0.00  0.00    +0.000 C 
BRANCH  18  21
ATOM     19  O   UNL     1      49.663   5.785  16.111  0.00  0.00    +0.000 OA
ATOM     20  C   UNL     1      48.613   5.922  16.735  0.00  0.00    +0.000 C 
ATOM     21  N   UNL     1      47.502   5.168  16.486  0.00  0.00    +0.000 N 
ATOM     22  H   UNL     1      46.666   5.282  17.041  0.00  0.00    +0.000 HD
BRANCH  20  23
ATOM     23  C   UNL     1      48.459   6.951  17.767  0.00  0.00    +0.000 A 
ATOM     24  C   UNL     1      48.603   8.294  17.448  0.00  0.00    +0.000 A 
ATOM     25  S   UNL     1      48.329   9.336  18.772  0.00  0.00    +0.000 S 
ATOM     26  C   UNL     1      48.049   8.023  19.822  0.00  0.00    +0.000 A 
ATOM     27  N   UNL     1      47.749   8.224  21.133  0.00  0.00    +0.000 NA
ATOM     28  C   UNL     1      47.582   7.137  21.814  0.00  0.00    +0.000 A 
ATOM     29  N   UNL     1      47.702   5.869  21.306  0.00  0.00    +0.000 N 
ATOM     30  C   UNL     1      47.999   5.622  19.989  0.00  0.00    +0.000 A 
ATOM     31  O   UNL     1      48.078   4.472  19.568  0.00  0.00    +0.000 OA
ATOM     32  C   UNL     1      48.173   6.809  19.173  0.00  0.00    +0.000 A 
ATOM     33  H   UNL     1      47.561   5.060  21.890  0.00  0.00    +0.000 HD
ENDBRANCH  20  23
ENDBRANCH  18  21
ENDBRANCH   1  18
TORSDOF 7
ENDMDL
MODEL 7
REMARK VINA RESULT:    -6.696      4.960      9.781
REMARK INTER + INTRA:         -10.605
REMARK INTER:                  -9.354
REMARK INTRA:                  -1.251
REMARK UNBOUND:                -1.169
REMARK  Name = 
REMARK  7 active torsions:
REMARK  status: ('A' for Active; 'I' for Inactive)
REMARK    1  A    between atoms: C_2  and  C_21
REMARK    2  A    between atoms: N_3  and  C_4
REMARK    3  A    between atoms: C_4  and  C_5
REMARK    4  A    between atoms: C_8  and  N_9
REMARK    5  A    between atoms: N_9  and  C_10
REMARK    6  A    between atoms: C_10  and  C_11
REMARK    7  A    between atoms: C_11  and  C_12
REMARK                            x       y       z     vdW  Elec       q    Type
REMARK                         _______ _______ _______ _____ _____    ______ ____
ROOT
ATOM      1  C   UNL     1      48.449   4.128  17.408  0.00  0.00    +0.000 A 
ATOM      2  C   UNL     1      48.308   4.117  18.792  0.00  0.00    +0.000 A 
ATOM      3  C   UNL     1      49.337   4.629  19.582  0.00  0.00    +0.000 A 
ATOM      4  C   UNL     1      50.498   5.120  18.987  0.00  0.00    +0.000 A 
ATOM      5  C   UNL     1      50.492   5.187  17.593  0.00  0.00    +0.000 A 
ATOM      6  N   UNL     1      49.511   4.702  16.792  0.00  0.00    +0.000 NA
ENDROOT
BRANCH   4   7
ATOM      7  N   UNL     1      51.600   5.605  19.701  0.00  0.00    +0.000 N 
ATOM      8  H   UNL     1      52.433   5.060  19.478  0.00  0.00    +0.000 HD
BRANCH   7   9
ATOM      9  C   UNL     1      51.853   7.049  19.635  0.00  0.00    +0.000 C 
BRANCH   9  10
ATOM     10  C   UNL     1      50.802   7.784  20.468  0.00  0.00    +0.000 C 
BRANCH  10  11
ATOM     11  C   UNL     1      49.741   8.390  19.587  0.00  0.00    +0.000 A 
ATOM     12  N   UNL     1      50.205   9.033  18.480  0.00  0.00    +0.000 NA
ATOM     13  C   UNL     1      49.296   9.578  17.641  0.00  0.00    +0.000 A 
ATOM     14  C   UNL     1      47.929   9.506  17.838  0.00  0.00    +0.000 A 
ATOM     15  C   UNL     1      47.463   8.837  18.965  0.00  0.00    +0.000 A 
ATOM     16  C   UNL     1      48.373   8.269  19.856  0.00  0.00    +0.000 A 
ATOM     17 CL   UNL     1      47.756   7.441  21.234  0.00  0.00    +0.000 Cl
ENDBRANCH  10  11
ENDBRANCH   9  10
ENDBRANCH   7   9
ENDBRANCH   4   7
BRANCH   1  18
ATOM     18  C   UNL     1      47.400   3.482  16.539  0.00  0.00    +0.000 C 
BRANCH  18  21
ATOM     19  O   UNL     1      47.203   3.177  13.736  0.00  0.00    +0.000 OA
ATOM     20  C   UNL     1      46.786   4.207  14.261  0.00  0.00    +0.000 C 
ATOM     21  N   UNL     1      46.808   4.411  15.610  0.00  0.00    +0.000 N 
ATOM     22  H   UNL     1      46.489   5.285  16.006  0.00  0.00    +0.000 HD
BRANCH  20  23
ATOM     23  C   UNL     1      46.178   5.281  13.470  0.00  0.00    +0.000 A 
ATOM     24  C   UNL     1      46.842   6.485  13.289  0.00  0.00    +0.000 A 
ATOM     25  S   UNL     1      45.996   7.583  12.292  0.00  0.00    +0.000 S 
ATOM     26  C   UNL     1      44.696   6.497  12.103  0.00  0.00    +0.000 A 
ATOM     27  N   UNL     1      43.614   6.822  11.345  0.00  0.00    +0.000 NA
ATOM     28  C   UNL     1      42.696   5.911  11.308  0.00  0.00    +0.000 A 
ATOM     29  N   UNL     1      42.757   4.712  11.971  0.00  0.00    +0.000 N 
ATOM     30  C   UNL     1      43.831   4.344  12.742  0.00  0.00    +0.000 A 
ATOM     31  O   UNL     1      43.855   3.253  13.304  0.00  0.00    +0.000 OA
ATOM     32  C   UNL     1      44.901   5.321  12.799  0.00  0.00    +0.000 A 
ATOM     33  H   UNL     1      42.006   4.043  11.904  0.00  0.00    +0.000 HD
ENDBRANCH  20  23
ENDBRANCH  18  21
ENDBRANCH   1  18
TORSDOF 7
ENDMDL
MODEL 8
REMARK VINA RESULT:    -6.681      4.734      6.607
REMARK INTER + INTRA:         -10.584
REMARK INTER:                  -9.471
REMARK INTRA:                  -1.113
REMARK UNBOUND:                -1.169
REMARK  Name = 
REMARK  7 active torsions:
REMARK  status: ('A' for Active; 'I' for Inactive)
REMARK    1  A    between atoms: C_2  and  C_21
REMARK    2  A    between atoms: N_3  and  C_4
REMARK    3  A    between atoms: C_4  and  C_5
REMARK    4  A    between atoms: C_8  and  N_9
REMARK    5  A    between atoms: N_9  and  C_10
REMARK    6  A    between atoms: C_10  and  C_11
REMARK    7  A    between atoms: C_11  and  C_12
REMARK                            x       y       z     vdW  Elec       q    Type
REMARK                         _______ _______ _______ _____ _____    ______ ____
ROOT
ATOM      1  C   UNL     1      46.316   5.273  13.647  0.00  0.00    +0.000 A 
ATOM      2  C   UNL     1      45.097   5.106  12.999  0.00  0.00    +0.000 A 
ATOM      3  C   UNL     1      44.503   6.204  12.378  0.00  0.00    +0.000 A 
ATOM      4  C   UNL     1      45.115   7.454  12.432  0.00  0.00    +0.000 A 
ATOM      5  C   UNL     1      46.385   7.491  13.010  0.00  0.00    +0.000 A 
ATOM      6  N   UNL     1      46.995   6.446  13.621  0.00  0.00    +0.000 NA
ENDROOT
BRANCH   4   7
ATOM      7  N   UNL     1      44.568   8.620  11.883  0.00  0.00    +0.000 N 
ATOM      8  H   UNL     1      43.612   8.752  12.214  0.00  0.00    +0.000 HD
BRANCH   7   9
ATOM      9  C   UNL     1      45.364   9.847  11.998  0.00  0.00    +0.000 C 
BRANCH   9  10
ATOM     10  C   UNL     1      45.005  10.793  10.851  0.00  0.00    +0.000 C 
BRANCH  10  11
ATOM     11  C   UNL     1      43.516  11.003  10.771  0.00  0.00    +0.000 A 
ATOM     12  N   UNL     1      42.894  11.205  11.965  0.00  0.00    +0.000 NA
ATOM     13  C   UNL     1      41.560  11.421  11.951  0.00  0.00    +0.000 A 
ATOM     14  C   UNL     1      40.801  11.462  10.796  0.00  0.00    +0.000 A 
ATOM     15  C   UNL     1      41.446  11.266   9.579  0.00  0.00    +0.000 A 
ATOM     16  C   UNL     1      42.821  11.034   9.557  0.00  0.00    +0.000 A 
ATOM     17 CL   UNL     1      43.584  10.807   8.029  0.00  0.00    +0.000 Cl
ENDBRANCH  10  11
ENDBRANCH   9  10
ENDBRANCH   7   9
ENDBRANCH   4   7
BRANCH   1  18
ATOM     18  C   UNL     1      46.924   4.128  14.417  0.00  0.00    +0.000 C 
BRANCH  18  21
ATOM     19  O   UNL     1      46.526   3.204  17.058  0.00  0.00    +0.000 OA
ATOM     20  C   UNL     1      47.343   4.099  16.849  0.00  0.00    +0.000 C 
ATOM     21  N   UNL     1      47.620   4.569  15.599  0.00  0.00    +0.000 N 
ATOM     22  H   UNL     1      48.272   5.331  15.466  0.00  0.00    +0.000 HD
BRANCH  20  23
ATOM     23  C   UNL     1      48.125   4.695  17.936  0.00  0.00    +0.000 A 
ATOM     24  C   UNL     1      47.570   5.672  18.750  0.00  0.00    +0.000 A 
ATOM     25  S   UNL     1      48.619   6.196  19.990  0.00  0.00    +0.000 S 
ATOM     26  C   UNL     1      49.863   5.162  19.454  0.00  0.00    +0.000 A 
ATOM     27  N   UNL     1      51.062   5.114  20.095  0.00  0.00    +0.000 NA
ATOM     28  C   UNL     1      51.917   4.300  19.566  0.00  0.00    +0.000 A 
ATOM     29  N   UNL     1      51.686   3.541  18.447  0.00  0.00    +0.000 N 
ATOM     30  C   UNL     1      50.490   3.556  17.773  0.00  0.00    +0.000 A 
ATOM     31  O   UNL     1      50.316   2.847  16.787  0.00  0.00    +0.000 OA
ATOM     32  C   UNL     1      49.486   4.436  18.339  0.00  0.00    +0.000 A 
ATOM     33  H   UNL     1      52.395   2.926  18.082  0.00  0.00    +0.000 HD
ENDBRANCH  20  23
ENDBRANCH  18  21
ENDBRANCH   1  18
TORSDOF 7
ENDMDL
