MODEL 1
REMARK VINA RESULT:    -8.562      0.000      0.000
REMARK INTER + INTRA:         -13.544
REMARK INTER:                 -12.315
REMARK INTRA:                  -1.229
REMARK UNBOUND:                -1.229
REMARK  Name = 
REMARK  8 active torsions:
REMARK  status: ('A' for Active; 'I' for Inactive)
REMARK    1  A    between atoms: N_1  and  C_2
REMARK    2  A    between atoms: C_2  and  C_3
REMARK    3  A    between atoms: C_2  and  C_24
REMARK    4  A    between atoms: C_3  and  C_4
REMARK    5  A    between atoms: C_7  and  C_8
REMARK    6  A    between atoms: C_8  and  N_9
REMARK    7  A    between atoms: C_10  and  C_12
REMARK    8  A    between atoms: C_24  and  C_25
REMARK                            x       y       z     vdW  Elec       q    Type
REMARK                         _______ _______ _______ _____ _____    ______ ____
ROOT
ATOM      1  C   UNL     1      44.552   5.343  11.127  0.00  0.00    +0.000 A 
ATOM      2  C   UNL     1      44.074   6.617  11.418  0.00  0.00    +0.000 A 
ATOM      3  C   UNL     1      44.898   7.519  12.088  0.00  0.00    +0.000 A 
ATOM      4  C   UNL     1      46.176   7.128  12.486  0.00  0.00    +0.000 A 
ATOM      5  C   UNL     1      46.590   5.856  12.115  0.00  0.00    +0.000 A 
ATOM      6  N   UNL     1      45.815   4.965  11.449  0.00  0.00    +0.000 NA
ENDROOT
BRANCH   1   7
ATOM      7  C   UNL     1      43.648   4.275  10.550  0.00  0.00    +0.000 C 
BRANCH   7   8
ATOM      8  C   UNL     1      44.067   2.787  10.693  0.00  0.00    +0.000 C 
BRANCH   8   9
ATOM      9  N   UNL     1      43.115   2.038  11.525  0.00  0.00    +0.000 NA
ATOM     10  H   UNL     1      43.423   2.055  12.497  0.00  0.00    +0.000 HD
ATOM     11  H   UNL     1      43.118   1.056  11.250  0.00  0.00    +0.000 HD
ENDBRANCH   8   9
BRANCH   8  12
ATOM     12  C   UNL     1      44.332   2.133   9.320  0.00  0.00    +0.000 C 
BRANCH  12  13
ATOM     13  C   UNL     1      45.702   2.411   8.654  0.00  0.00    +0.000 C 
ATOM     14  C   UNL     1      45.634   3.539   7.610  0.00  0.00    +0.000 C 
ATOM     15  C   UNL     1      46.942   3.702   6.834  0.00  0.00    +0.000 C 
ATOM     16  C   UNL     1      47.394   2.391   6.199  0.00  0.00    +0.000 C 
ATOM     17  C   UNL     1      47.528   1.300   7.253  0.00  0.00    +0.000 C 
ATOM     18  C   UNL     1      46.217   1.107   8.011  0.00  0.00    +0.000 C 
ENDBRANCH  12  13
ENDBRANCH   8  12
ENDBRANCH   7   8
ENDBRANCH   1   7
BRANCH   4  19
ATOM     19  C   UNL     1      47.065   8.045  13.269  0.00  0.00    +0.000 C 
BRANCH  19  20
ATOM     20  N   UNL     1      47.485   7.442  14.506  0.00  0.00    +0.000 N 
ATOM     21  C   UNL     1      48.726   6.872  14.629  0.00  0.00    +0.000 C 
ATOM     22  O   UNL     1      49.547   6.900  13.717  0.00  0.00    +0.000 OA
ATOM     23  H   UNL     1      46.760   7.206  15.177  0.00  0.00    +0.000 HD
BRANCH  21  24
ATOM     24  C   UNL     1      49.046   6.277  15.932  0.00  0.00    +0.000 A 
ATOM     25  C   UNL     1      50.057   6.831  16.707  0.00  0.00    +0.000 A 
ATOM     26  S   UNL     1      50.273   6.052  18.207  0.00  0.00    +0.000 S 
ATOM     27  C   UNL     1      49.061   4.913  17.852  0.00  0.00    +0.000 A 
ATOM     28  N   UNL     1      48.759   3.919  18.730  0.00  0.00    +0.000 NA
ATOM     29  C   UNL     1      47.842   3.107  18.321  0.00  0.00    +0.000 A 
ATOM     30  N   UNL     1      47.191   3.203  17.118  0.00  0.00    +0.000 N 
ATOM     31  C   UNL     1      47.439   4.215  16.214  0.00  0.00    +0.000 A 
ATOM     32  O   UNL     1      46.803   4.302  15.170  0.00  0.00    +0.000 OA
ATOM     33  C   UNL     1      48.477   5.140  16.617  0.00  0.00    +0.000 A 
ATOM     34  H   UNL     1      46.472   2.544  16.866  0.00  0.00    +0.000 HD
ENDBRANCH  21  24
ENDBRANCH  19  20
ENDBRANCH   4  19
TORSDOF 8
ENDMDL
MODEL 2
REMARK VINA RESULT:    -8.180      1.739      2.110
REMARK INTER + INTRA:         -12.995
REMARK INTER:                 -12.070
REMARK INTRA:                  -0.924
REMARK UNBOUND:                -1.229
REMARK  Name = 
REMARK  8 active torsions:
REMARK  status: ('A' for Active; 'I' for Inactive)
REMARK    1  A    between atoms: N_1  and  C_2
REMARK    2  A    between atoms: C_2  and  C_3
REMARK    3  A    between atoms: C_2  and  C_24
REMARK    4  A    between atoms: C_3  and  C_4
REMARK    5  A    between atoms: C_7  and  C_8
REMARK    6  A    between atoms: C_8  and  N_9
REMARK    7  A    between atoms: C_10  and  C_12
REMARK    8  A    between atoms: C_24  and  C_25
REMARK                            x       y       z     vdW  Elec       q    Type
REMARK                         _______ _______ _______ _____ _____    ______ ____
ROOT
ATOM      1  C   UNL     1      45.221   5.011  11.773  0.00  0.00    +0.000 A 
ATOM      2  C   UNL     1      45.654   4.441  12.966  0.00  0.00    +0.000 A 
ATOM      3  C   UNL     1      46.687   5.050  13.678  0.00  0.00    +0.000 A 
ATOM      4  C   UNL     1      47.292   6.201  13.175  0.00  0.00    +0.000 A 
ATOM      5  C   UNL     1      46.767   6.728  12.002  0.00  0.00    +0.000 A 
ATOM      6  N   UNL     1      45.754   6.166  11.299  0.00  0.00    +0.000 NA
ENDROOT
BRANCH   1   7
ATOM      7  C   UNL     1      44.221   4.307  10.881  0.00  0.00    +0.000 C 
BRANCH   7   8
ATOM      8  C   UNL     1      44.222   2.756  10.840  0.00  0.00    +0.000 C 
BRANCH   8   9
ATOM      9  N   UNL     1      43.092   2.196  11.596  0.00  0.00    +0.000 NA
ATOM     10  H   UNL     1      42.429   2.938  11.818  0.00  0.00    +0.000 HD
ATOM     11  H   UNL     1      43.422   1.839  12.492  0.00  0.00    +0.000 HD
ENDBRANCH   8   9
BRANCH   8  12
ATOM     12  C   UNL     1      44.320   2.222   9.395  0.00  0.00    +0.000 C 
BRANCH  12  13
ATOM     13  C   UNL     1      45.649   2.465   8.637  0.00  0.00    +0.000 C 
ATOM     14  C   UNL     1      45.504   3.498   7.506  0.00  0.00    +0.000 C 
ATOM     15  C   UNL     1      46.767   3.615   6.652  0.00  0.00    +0.000 C 
ATOM     16  C   UNL     1      47.215   2.262   6.108  0.00  0.00    +0.000 C 
ATOM     17  C   UNL     1      47.426   1.269   7.243  0.00  0.00    +0.000 C 
ATOM     18  C   UNL     1      46.159   1.119   8.082  0.00  0.00    +0.000 C 
ENDBRANCH  12  13
ENDBRANCH   8  12
ENDBRANCH   7   8
ENDBRANCH   1   7
BRANCH   4  19
ATOM     19  C   UNL     1      48.450   6.843  13.875  0.00  0.00    +0.000 C 
BRANCH  19  20
ATOM     20  N   UNL     1      48.177   7.039  15.273  0.00  0.00    +0.000 N 
ATOM     21  C   UNL     1      49.062   6.620  16.233  0.00  0.00    +0.000 C 
ATOM     22  O   UNL     1      50.142   6.114  15.943  0.00  0.00    +0.000 OA
ATOM     23  H   UNL     1      47.215   7.237  15.535  0.00  0.00    +0.000 HD
BRANCH  21  24
ATOM     24  C   UNL     1      48.678   6.862  17.628  0.00  0.00    +0.000 A 
ATOM     25  C   UNL     1      48.345   8.149  18.032  0.00  0.00    +0.000 A 
ATOM     26  S   UNL     1      47.880   8.253  19.669  0.00  0.00    +0.000 S 
ATOM     27  C   UNL     1      48.160   6.593  19.910  0.00  0.00    +0.000 A 
ATOM     28  N   UNL     1      47.978   6.025  21.133  0.00  0.00    +0.000 NA
ATOM     29  C   UNL     1      48.256   4.765  21.183  0.00  0.00    +0.000 A 
ATOM     30  N   UNL     1      48.689   4.017  20.118  0.00  0.00    +0.000 N 
ATOM     31  C   UNL     1      48.852   4.541  18.853  0.00  0.00    +0.000 A 
ATOM     32  O   UNL     1      49.192   3.834  17.912  0.00  0.00    +0.000 OA
ATOM     33  C   UNL     1      48.574   5.959  18.751  0.00  0.00    +0.000 A 
ATOM     34  H   UNL     1      48.873   3.032  20.221  0.00  0.00    +0.000 HD
ENDBRANCH  21  24
ENDBRANCH  19  20
ENDBRANCH   4  19
TORSDOF 8
ENDMDL
MODEL 3
REMARK VINA RESULT:    -8.074      2.012      2.435
REMARK INTER + INTRA:         -12.843
REMARK INTER:                 -11.751
REMARK INTRA:                  -1.092
REMARK UNBOUND:                -1.229
REMARK  Name = 
REMARK  8 active torsions:
REMARK  status: ('A' for Active; 'I' for Inactive)
REMARK    1  A    between atoms: N_1  and  C_2
REMARK    2  A    between atoms: C_2  and  C_3
REMARK    3  A    between atoms: C_2  and  C_24
REMARK    4  A    between atoms: C_3  and  C_4
REMARK    5  A    between atoms: C_7  and  C_8
REMARK    6  A    between atoms: C_8  and  N_9
REMARK    7  A    between atoms: C_10  and  C_12
REMARK    8  A    between atoms: C_24  and  C_25
REMARK                            x       y       z     vdW  Elec       q    Type
REMARK                         _______ _______ _______ _____ _____    ______ ____
ROOT
ATOM      1  C   UNL     1      45.401   5.066  11.420  0.00  0.00    +0.000 A 
ATOM      2  C   UNL     1      46.085   6.149  10.876  0.00  0.00    +0.000 A 
ATOM      3  C   UNL     1      46.993   6.850  11.668  0.00  0.00    +0.000 A 
ATOM      4  C   UNL     1      47.185   6.480  12.999  0.00  0.00    +0.000 A 
ATOM      5  C   UNL     1      46.497   5.359  13.446  0.00  0.00    +0.000 A 
ATOM      6  N   UNL     1      45.621   4.650  12.693  0.00  0.00    +0.000 NA
ENDROOT
BRANCH   1   7
ATOM      7  C   UNL     1      44.290   4.374  10.661  0.00  0.00    +0.000 C 
BRANCH   7   8
ATOM      8  C   UNL     1      44.148   2.834  10.788  0.00  0.00    +0.000 C 
BRANCH   8   9
ATOM      9  N   UNL     1      42.886   2.462  11.445  0.00  0.00    +0.000 NA
ATOM     10  H   UNL     1      42.886   2.806  12.404  0.00  0.00    +0.000 HD
ATOM     11  H   UNL     1      42.820   1.447  11.512  0.00  0.00    +0.000 HD
ENDBRANCH   8   9
BRANCH   8  12
ATOM     12  C   UNL     1      44.370   2.125   9.435  0.00  0.00    +0.000 C 
BRANCH  12  13
ATOM     13  C   UNL     1      45.672   2.455   8.666  0.00  0.00    +0.000 C 
ATOM     14  C   UNL     1      45.465   3.531   7.586  0.00  0.00    +0.000 C 
ATOM     15  C   UNL     1      46.705   3.737   6.715  0.00  0.00    +0.000 C 
ATOM     16  C   UNL     1      47.196   2.429   6.103  0.00  0.00    +0.000 C 
ATOM     17  C   UNL     1      47.468   1.395   7.187  0.00  0.00    +0.000 C 
ATOM     18  C   UNL     1      46.224   1.157   8.041  0.00  0.00    +0.000 C 
ENDBRANCH  12  13
ENDBRANCH   8  12
ENDBRANCH   7   8
ENDBRANCH   1   7
BRANCH   4  19
ATOM     19  C   UNL     1      48.099   7.252  13.900  0.00  0.00    +0.000 C 
BRANCH  19  20
ATOM     20  N   UNL     1      47.975   6.823  15.268  0.00  0.00    +0.000 N 
ATOM     21  C   UNL     1      49.076   6.448  15.994  0.00  0.00    +0.000 C 
ATOM     22  O   UNL     1      50.211   6.513  15.532  0.00  0.00    +0.000 OA
ATOM     23  H   UNL     1      47.050   6.546  15.585  0.00  0.00    +0.000 HD
BRANCH  21  24
ATOM     24  C   UNL     1      48.833   6.019  17.376  0.00  0.00    +0.000 A 
ATOM     25  C   UNL     1      49.080   4.701  17.737  0.00  0.00    +0.000 A 
ATOM     26  S   UNL     1      48.790   4.377  19.386  0.00  0.00    +0.000 S 
ATOM     27  C   UNL     1      48.270   5.973  19.663  0.00  0.00    +0.000 A 
ATOM     28  N   UNL     1      47.841   6.363  20.894  0.00  0.00    +0.000 NA
ATOM     29  C   UNL     1      47.447   7.590  20.957  0.00  0.00    +0.000 A 
ATOM     30  N   UNL     1      47.452   8.469  19.904  0.00  0.00    +0.000 N 
ATOM     31  C   UNL     1      47.912   8.129  18.649  0.00  0.00    +0.000 A 
ATOM     32  O   UNL     1      47.950   8.952  17.743  0.00  0.00    +0.000 OA
ATOM     33  C   UNL     1      48.344   6.753  18.521  0.00  0.00    +0.000 A 
ATOM     34  H   UNL     1      47.145   9.421  20.025  0.00  0.00    +0.000 HD
ENDBRANCH  21  24
ENDBRANCH  19  20
ENDBRANCH   4  19
TORSDOF 8
ENDMDL
MODEL 4
REMARK VINA RESULT:    -7.578      1.823      2.516
REMARK INTER + INTRA:         -12.130
REMARK INTER:                 -11.179
REMARK INTRA:                  -0.951
REMARK UNBOUND:                -1.229
REMARK  Name = 
REMARK  8 active torsions:
REMARK  status: ('A' for Active; 'I' for Inactive)
REMARK    1  A    between atoms: N_1  and  C_2
REMARK    2  A    between atoms: C_2  and  C_3
REMARK    3  A    between atoms: C_2  and  C_24
REMARK    4  A    between atoms: C_3  and  C_4
REMARK    5  A    between atoms: C_7  and  C_8
REMARK    6  A    between atoms: C_8  and  N_9
REMARK    7  A    between atoms: C_10  and  C_12
REMARK    8  A    between atoms: C_24  and  C_25
REMARK                            x       y       z     vdW  Elec       q    Type
REMARK                         _______ _______ _______ _____ _____    ______ ____
ROOT
ATOM      1  C   UNL     1      45.276   4.998  11.471  0.00  0.00    +0.000 A 
ATOM      2  C   UNL     1      45.927   6.101  10.927  0.00  0.00    +0.000 A 
ATOM      3  C   UNL     1      46.796   6.844  11.725  0.00  0.00    +0.000 A 
ATOM      4  C   UNL     1      46.981   6.494  13.063  0.00  0.00    +0.000 A 
ATOM      5  C   UNL     1      46.329   5.352  13.511  0.00  0.00    +0.000 A 
ATOM      6  N   UNL     1      45.492   4.603  12.752  0.00  0.00    +0.000 NA
ENDROOT
BRANCH   1   7
ATOM      7  C   UNL     1      44.204   4.258  10.702  0.00  0.00    +0.000 C 
BRANCH   7   8
ATOM      8  C   UNL     1      44.196   2.706  10.741  0.00  0.00    +0.000 C 
BRANCH   8   9
ATOM      9  N   UNL     1      43.030   2.192  11.473  0.00  0.00    +0.000 NA
ATOM     10  H   UNL     1      42.184   2.362  10.930  0.00  0.00    +0.000 HD
ATOM     11  H   UNL     1      42.913   2.713  12.341  0.00  0.00    +0.000 HD
ENDBRANCH   8   9
BRANCH   8  12
ATOM     12  C   UNL     1      44.356   2.098   9.332  0.00  0.00    +0.000 C 
BRANCH  12  13
ATOM     13  C   UNL     1      45.676   2.391   8.577  0.00  0.00    +0.000 C 
ATOM     14  C   UNL     1      45.498   3.427   7.454  0.00  0.00    +0.000 C 
ATOM     15  C   UNL     1      46.757   3.593   6.602  0.00  0.00    +0.000 C 
ATOM     16  C   UNL     1      47.251   2.261   6.048  0.00  0.00    +0.000 C 
ATOM     17  C   UNL     1      47.494   1.266   7.176  0.00  0.00    +0.000 C 
ATOM     18  C   UNL     1      46.232   1.067   8.012  0.00  0.00    +0.000 C 
ENDBRANCH  12  13
ENDBRANCH   8  12
ENDBRANCH   7   8
ENDBRANCH   1   7
BRANCH   4  19
ATOM     19  C   UNL     1      47.851   7.308  13.970  0.00  0.00    +0.000 C 
BRANCH  19  20
ATOM     20  N   UNL     1      48.330   6.528  15.079  0.00  0.00    +0.000 N 
ATOM     21  C   UNL     1      48.999   7.117  16.122  0.00  0.00    +0.000 C 
ATOM     22  O   UNL     1      49.167   8.331  16.182  0.00  0.00    +0.000 OA
ATOM     23  H   UNL     1      48.406   5.524  14.943  0.00  0.00    +0.000 HD
BRANCH  21  24
ATOM     24  C   UNL     1      49.451   6.225  17.196  0.00  0.00    +0.000 A 
ATOM     25  C   UNL     1      48.526   5.718  18.100  0.00  0.00    +0.000 A 
ATOM     26  S   UNL     1      49.205   4.665  19.256  0.00  0.00    +0.000 S 
ATOM     27  C   UNL     1      50.768   4.892  18.624  0.00  0.00    +0.000 A 
ATOM     28  N   UNL     1      51.844   4.282  19.189  0.00  0.00    +0.000 NA
ATOM     29  C   UNL     1      52.972   4.565  18.629  0.00  0.00    +0.000 A 
ATOM     30  N   UNL     1      53.123   5.395  17.548  0.00  0.00    +0.000 N 
ATOM     31  C   UNL     1      52.058   6.006  16.920  0.00  0.00    +0.000 A 
ATOM     32  O   UNL     1      52.221   6.701  15.925  0.00  0.00    +0.000 OA
ATOM     33  C   UNL     1      50.770   5.737  17.526  0.00  0.00    +0.000 A 
ATOM     34  H   UNL     1      54.033   5.562  17.148  0.00  0.00    +0.000 HD
ENDBRANCH  21  24
ENDBRANCH  19  20
ENDBRANCH   4  19
TORSDOF 8
ENDMDL
MODEL 5
REMARK VINA RESULT:    -7.270      3.157      4.584
REMARK INTER + INTRA:         -11.687
REMARK INTER:                 -10.444
REMARK INTRA:                  -1.243
REMARK UNBOUND:                -1.229
REMARK  Name = 
REMARK  8 active torsions:
REMARK  status: ('A' for Active; 'I' for Inactive)
REMARK    1  A    between atoms: N_1  and  C_2
REMARK    2  A    between atoms: C_2  and  C_3
REMARK    3  A    between atoms: C_2  and  C_24
REMARK    4  A    between atoms: C_3  and  C_4
REMARK    5  A    between atoms: C_7  and  C_8
REMARK    6  A    between atoms: C_8  and  N_9
REMARK    7  A    between atoms: C_10  and  C_12
REMARK    8  A    between atoms: C_24  and  C_25
REMARK                            x       y       z     vdW  Elec       q    Type
REMARK                         _______ _______ _______ _____ _____    ______ ____
ROOT
ATOM      1  C   UNL     1      47.078   4.804  14.468  0.00  0.00    +0.000 A 
ATOM      2  C   UNL     1      47.867   5.944  14.598  0.00  0.00    +0.000 A 
ATOM      3  C   UNL     1      48.466   6.223  15.826  0.00  0.00    +0.000 A 
ATOM      4  C   UNL     1      48.246   5.379  16.914  0.00  0.00    +0.000 A 
ATOM      5  C   UNL     1      47.485   4.240  16.684  0.00  0.00    +0.000 A 
ATOM      6  N   UNL     1      46.905   3.936  15.497  0.00  0.00    +0.000 NA
ENDROOT
BRANCH   1   7
ATOM      7  C   UNL     1      46.276   4.541  13.213  0.00  0.00    +0.000 C 
BRANCH   7   8
ATOM      8  C   UNL     1      44.762   4.881  13.211  0.00  0.00    +0.000 C 
BRANCH   8   9
ATOM      9  N   UNL     1      44.536   6.331  13.303  0.00  0.00    +0.000 NA
ATOM     10  H   UNL     1      45.135   6.725  14.027  0.00  0.00    +0.000 HD
ATOM     11  H   UNL     1      43.579   6.510  13.604  0.00  0.00    +0.000 HD
ENDBRANCH   8   9
BRANCH   8  12
ATOM     12  C   UNL     1      44.028   4.218  12.026  0.00  0.00    +0.000 C 
BRANCH  12  13
ATOM     13  C   UNL     1      44.883   3.808  10.801  0.00  0.00    +0.000 C 
ATOM     14  C   UNL     1      45.065   4.958   9.796  0.00  0.00    +0.000 C 
ATOM     15  C   UNL     1      45.763   4.511   8.510  0.00  0.00    +0.000 C 
ATOM     16  C   UNL     1      45.060   3.321   7.865  0.00  0.00    +0.000 C 
ATOM     17  C   UNL     1      44.951   2.162   8.847  0.00  0.00    +0.000 C 
ATOM     18  C   UNL     1      44.225   2.590  10.120  0.00  0.00    +0.000 C 
ENDBRANCH  12  13
ENDBRANCH   8  12
ENDBRANCH   7   8
ENDBRANCH   1   7
BRANCH   4  19
ATOM     19  C   UNL     1      48.815   5.683  18.265  0.00  0.00    +0.000 C 
BRANCH  19  20
ATOM     20  N   UNL     1      49.915   4.811  18.582  0.00  0.00    +0.000 N 
ATOM     21  C   UNL     1      51.207   5.167  18.293  0.00  0.00    +0.000 C 
ATOM     22  O   UNL     1      51.486   6.259  17.806  0.00  0.00    +0.000 OA
ATOM     23  H   UNL     1      49.696   3.835  18.764  0.00  0.00    +0.000 HD
BRANCH  21  24
ATOM     24  C   UNL     1      52.248   4.198  18.651  0.00  0.00    +0.000 A 
ATOM     25  C   UNL     1      53.300   4.594  19.468  0.00  0.00    +0.000 A 
ATOM     26  S   UNL     1      54.398   3.340  19.825  0.00  0.00    +0.000 S 
ATOM     27  C   UNL     1      53.538   2.237  18.857  0.00  0.00    +0.000 A 
ATOM     28  N   UNL     1      53.973   0.958  18.702  0.00  0.00    +0.000 NA
ATOM     29  C   UNL     1      53.244   0.238  17.916  0.00  0.00    +0.000 A 
ATOM     30  N   UNL     1      52.111   0.677  17.279  0.00  0.00    +0.000 N 
ATOM     31  C   UNL     1      51.613   1.953  17.436  0.00  0.00    +0.000 A 
ATOM     32  O   UNL     1      50.571   2.298  16.893  0.00  0.00    +0.000 OA
ATOM     33  C   UNL     1      52.411   2.808  18.291  0.00  0.00    +0.000 A 
ATOM     34  H   UNL     1      51.577   0.057  16.691  0.00  0.00    +0.000 HD
ENDBRANCH  21  24
ENDBRANCH  19  20
ENDBRANCH   4  19
TORSDOF 8
ENDMDL
MODEL 6
REMARK VINA RESULT:    -7.213      2.539      3.350
REMARK INTER + INTRA:         -11.605
REMARK INTER:                 -10.402
REMARK INTRA:                  -1.203
REMARK UNBOUND:                -1.229
REMARK  Name = 
REMARK  8 active torsions:
REMARK  status: ('A' for Active; 'I' for Inactive)
REMARK    1  A    between atoms: N_1  and  C_2
REMARK    2  A    between atoms: C_2  and  C_3
REMARK    3  A    between atoms: C_2  and  C_24
REMARK    4  A    between atoms: C_3  and  C_4
REMARK    5  A    between atoms: C_7  and  C_8
REMARK    6  A    between atoms: C_8  and  N_9
REMARK    7  A    between atoms: C_10  and  C_12
REMARK    8  A    between atoms: C_24  and  C_25
REMARK                            x       y       z     vdW  Elec       q    Type
REMARK                         _______ _______ _______ _____ _____    ______ ____
ROOT
ATOM      1  C   UNL     1      46.966   6.225  12.409  0.00  0.00    +0.000 A 
ATOM      2  C   UNL     1      47.498   7.500  12.576  0.00  0.00    +0.000 A 
ATOM      3  C   UNL     1      48.160   7.814  13.762  0.00  0.00    +0.000 A 
ATOM      4  C   UNL     1      48.255   6.862  14.777  0.00  0.00    +0.000 A 
ATOM      5  C   UNL     1      47.737   5.602  14.509  0.00  0.00    +0.000 A 
ATOM      6  N   UNL     1      47.104   5.265  13.359  0.00  0.00    +0.000 NA
ENDROOT
BRANCH   1   7
ATOM      7  C   UNL     1      46.101   5.882  11.216  0.00  0.00    +0.000 C 
BRANCH   7   8
ATOM      8  C   UNL     1      45.071   4.729  11.350  0.00  0.00    +0.000 C 
BRANCH   8   9
ATOM      9  N   UNL     1      44.335   4.808  12.620  0.00  0.00    +0.000 NA
ATOM     10  H   UNL     1      43.834   3.935  12.780  0.00  0.00    +0.000 HD
ATOM     11  H   UNL     1      43.621   5.533  12.557  0.00  0.00    +0.000 HD
ENDBRANCH   8   9
BRANCH   8  12
ATOM     12  C   UNL     1      44.153   4.636  10.112  0.00  0.00    +0.000 C 
BRANCH  12  13
ATOM     13  C   UNL     1      44.579   3.664   8.984  0.00  0.00    +0.000 C 
ATOM     14  C   UNL     1      45.088   2.317   9.524  0.00  0.00    +0.000 C 
ATOM     15  C   UNL     1      45.665   1.423   8.426  0.00  0.00    +0.000 C 
ATOM     16  C   UNL     1      46.746   2.136   7.619  0.00  0.00    +0.000 C 
ATOM     17  C   UNL     1      46.209   3.432   7.028  0.00  0.00    +0.000 C 
ATOM     18  C   UNL     1      45.661   4.347   8.121  0.00  0.00    +0.000 C 
ENDBRANCH  12  13
ENDBRANCH   8  12
ENDBRANCH   7   8
ENDBRANCH   1   7
BRANCH   4  19
ATOM     19  C   UNL     1      48.896   7.185  16.092  0.00  0.00    +0.000 C 
BRANCH  19  20
ATOM     20  N   UNL     1      49.921   6.232  16.425  0.00  0.00    +0.000 N 
ATOM     21  C   UNL     1      50.260   5.985  17.731  0.00  0.00    +0.000 C 
ATOM     22  O   UNL     1      49.671   6.519  18.666  0.00  0.00    +0.000 OA
ATOM     23  H   UNL     1      50.562   5.961  15.685  0.00  0.00    +0.000 HD
BRANCH  21  24
ATOM     24  C   UNL     1      51.325   5.001  17.955  0.00  0.00    +0.000 A 
ATOM     25  C   UNL     1      52.546   5.421  18.467  0.00  0.00    +0.000 A 
ATOM     26  S   UNL     1      53.658   4.151  18.710  0.00  0.00    +0.000 S 
ATOM     27  C   UNL     1      52.567   3.004  18.088  0.00  0.00    +0.000 A 
ATOM     28  N   UNL     1      52.916   1.694  17.986  0.00  0.00    +0.000 NA
ATOM     29  C   UNL     1      52.006   0.938  17.469  0.00  0.00    +0.000 A 
ATOM     30  N   UNL     1      50.772   1.371  17.055  0.00  0.00    +0.000 N 
ATOM     31  C   UNL     1      50.362   2.682  17.173  0.00  0.00    +0.000 A 
ATOM     32  O   UNL     1      49.234   3.027  16.840  0.00  0.00    +0.000 OA
ATOM     33  C   UNL     1      51.358   3.575  17.727  0.00  0.00    +0.000 A 
ATOM     34  H   UNL     1      50.099   0.725  16.674  0.00  0.00    +0.000 HD
ENDBRANCH  21  24
ENDBRANCH  19  20
ENDBRANCH   4  19
TORSDOF 8
ENDMDL
MODEL 7
REMARK VINA RESULT:    -7.125      2.449      2.832
REMARK INTER + INTRA:         -11.477
REMARK INTER:                 -10.385
REMARK INTRA:                  -1.093
REMARK UNBOUND:                -1.229
REMARK  Name = 
REMARK  8 active torsions:
REMARK  status: ('A' for Active; 'I' for Inactive)
REMARK    1  A    between atoms: N_1  and  C_2
REMARK    2  A    between atoms: C_2  and  C_3
REMARK    3  A    between atoms: C_2  and  C_24
REMARK    4  A    between atoms: C_3  and  C_4
REMARK    5  A    between atoms: C_7  and  C_8
REMARK    6  A    between atoms: C_8  and  N_9
REMARK    7  A    between atoms: C_10  and  C_12
REMARK    8  A    between atoms: C_24  and  C_25
REMARK                            x       y       z     vdW  Elec       q    Type
REMARK                         _______ _______ _______ _____ _____    ______ ____
ROOT
ATOM      1  C   UNL     1      45.611   4.679  12.375  0.00  0.00    +0.000 A 
ATOM      2  C   UNL     1      46.578   4.760  13.371  0.00  0.00    +0.000 A 
ATOM      3  C   UNL     1      47.096   6.006  13.721  0.00  0.00    +0.000 A 
ATOM      4  C   UNL     1      46.663   7.150  13.052  0.00  0.00    +0.000 A 
ATOM      5  C   UNL     1      45.662   6.985  12.103  0.00  0.00    +0.000 A 
ATOM      6  N   UNL     1      45.130   5.787  11.756  0.00  0.00    +0.000 NA
ENDROOT
BRANCH   1   7
ATOM      7  C   UNL     1      45.135   3.344  11.845  0.00  0.00    +0.000 C 
BRANCH   7   8
ATOM      8  C   UNL     1      43.897   3.312  10.910  0.00  0.00    +0.000 C 
BRANCH   8   9
ATOM      9  N   UNL     1      42.777   4.078  11.474  0.00  0.00    +0.000 NA
ATOM     10  H   UNL     1      43.031   4.424  12.399  0.00  0.00    +0.000 HD
ATOM     11  H   UNL     1      41.977   3.462  11.618  0.00  0.00    +0.000 HD
ENDBRANCH   8   9
BRANCH   8  12
ATOM     12  C   UNL     1      44.259   3.723   9.467  0.00  0.00    +0.000 C 
BRANCH  12  13
ATOM     13  C   UNL     1      45.574   3.157   8.876  0.00  0.00    +0.000 C 
ATOM     14  C   UNL     1      46.020   3.902   7.606  0.00  0.00    +0.000 C 
ATOM     15  C   UNL     1      47.222   3.242   6.929  0.00  0.00    +0.000 C 
ATOM     16  C   UNL     1      46.974   1.764   6.642  0.00  0.00    +0.000 C 
ATOM     17  C   UNL     1      46.604   1.023   7.920  0.00  0.00    +0.000 C 
ATOM     18  C   UNL     1      45.383   1.654   8.586  0.00  0.00    +0.000 C 
ENDBRANCH  12  13
ENDBRANCH   8  12
ENDBRANCH   7   8
ENDBRANCH   1   7
BRANCH   4  19
ATOM     19  C   UNL     1      47.246   8.497  13.350  0.00  0.00    +0.000 C 
BRANCH  19  20
ATOM     20  N   UNL     1      47.181   8.799  14.756  0.00  0.00    +0.000 N 
ATOM     21  C   UNL     1      48.322   8.971  15.496  0.00  0.00    +0.000 C 
ATOM     22  O   UNL     1      49.439   8.930  14.987  0.00  0.00    +0.000 OA
ATOM     23  H   UNL     1      46.303   8.611  15.231  0.00  0.00    +0.000 HD
BRANCH  21  24
ATOM     24  C   UNL     1      48.139   9.266  16.921  0.00  0.00    +0.000 A 
ATOM     25  C   UNL     1      47.950  10.580  17.329  0.00  0.00    +0.000 A 
ATOM     26  S   UNL     1      47.708  10.748  19.009  0.00  0.00    +0.000 S 
ATOM     27  C   UNL     1      47.901   9.076  19.258  0.00  0.00    +0.000 A 
ATOM     28  N   UNL     1      47.840   8.546  20.508  0.00  0.00    +0.000 NA
ATOM     29  C   UNL     1      48.035   7.271  20.557  0.00  0.00    +0.000 A 
ATOM     30  N   UNL     1      48.275   6.473  19.467  0.00  0.00    +0.000 N 
ATOM     31  C   UNL     1      48.309   6.962  18.178  0.00  0.00    +0.000 A 
ATOM     32  O   UNL     1      48.475   6.215  17.221  0.00  0.00    +0.000 OA
ATOM     33  C   UNL     1      48.119   8.393  18.073  0.00  0.00    +0.000 A 
ATOM     34  H   UNL     1      48.403   5.479  19.573  0.00  0.00    +0.000 HD
ENDBRANCH  21  24
ENDBRANCH  19  20
ENDBRANCH   4  19
TORSDOF 8
ENDMDL
MODEL 8
REMARK VINA RESULT:    -7.005      2.982      8.209
REMARK INTER + INTRA:         -11.305
REMARK INTER:                  -9.650
REMARK INTRA:                  -1.655
REMARK UNBOUND:                -1.229
REMARK  Name = 
REMARK  8 active torsions:
REMARK  status: ('A' for Active; 'I' for Inactive)
REMARK    1  A    between atoms: N_1  and  C_2
REMARK    2  A    between atoms: C_2  and  C_3
REMARK    3  A    between atoms: C_2  and  C_24
REMARK    4  A    between atoms: C_3  and  C_4
REMARK    5  A    between atoms: C_7  and  C_8
REMARK    6  A    between atoms: C_8  and  N_9
REMARK    7  A    between atoms: C_10  and  C_12
REMARK    8  A    between atoms: C_24  and  C_25
REMARK                            x       y       z     vdW  Elec       q    Type
REMARK                         _______ _______ _______ _____ _____    ______ ____
ROOT
ATOM      1  C   UNL     1      49.321   8.170  15.936  0.00  0.00    +0.000 A 
ATOM      2  C   UNL     1      49.682   7.127  15.088  0.00  0.00    +0.000 A 
ATOM      3  C   UNL     1      49.140   7.072  13.804  0.00  0.00    +0.000 A 
ATOM      4  C   UNL     1      48.224   8.041  13.396  0.00  0.00    +0.000 A 
ATOM      5  C   UNL     1      47.956   9.071  14.288  0.00  0.00    +0.000 A 
ATOM      6  N   UNL     1      48.481   9.157  15.535  0.00  0.00    +0.000 NA
ENDROOT
BRANCH   1   7
ATOM      7  C   UNL     1      49.751   8.189  17.387  0.00  0.00    +0.000 C 
BRANCH   7   8
ATOM      8  C   UNL     1      48.693   7.881  18.480  0.00  0.00    +0.000 C 
BRANCH   8   9
ATOM      9  N   UNL     1      47.351   8.316  18.069  0.00  0.00    +0.000 NA
ATOM     10  H   UNL     1      46.724   7.513  18.045  0.00  0.00    +0.000 HD
ATOM     11  H   UNL     1      47.384   8.673  17.114  0.00  0.00    +0.000 HD
ENDBRANCH   8   9
BRANCH   8  12
ATOM     12  C   UNL     1      48.751   6.406  18.932  0.00  0.00    +0.000 C 
BRANCH  12  13
ATOM     13  C   UNL     1      48.897   5.331  17.827  0.00  0.00    +0.000 C 
ATOM     14  C   UNL     1      47.540   4.796  17.339  0.00  0.00    +0.000 C 
ATOM     15  C   UNL     1      47.685   3.619  16.373  0.00  0.00    +0.000 C 
ATOM     16  C   UNL     1      48.538   2.500  16.962  0.00  0.00    +0.000 C 
ATOM     17  C   UNL     1      49.906   3.027  17.374  0.00  0.00    +0.000 C 
ATOM     18  C   UNL     1      49.773   4.180  18.366  0.00  0.00    +0.000 C 
ENDBRANCH  12  13
ENDBRANCH   8  12
ENDBRANCH   7   8
ENDBRANCH   1   7
BRANCH   4  19
ATOM     19  C   UNL     1      47.567   7.976  12.051  0.00  0.00    +0.000 C 
BRANCH  19  20
ATOM     20  N   UNL     1      46.881   6.726  11.860  0.00  0.00    +0.000 N 
ATOM     21  C   UNL     1      45.513   6.672  11.789  0.00  0.00    +0.000 C 
ATOM     22  O   UNL     1      44.821   7.686  11.831  0.00  0.00    +0.000 OA
ATOM     23  H   UNL     1      47.403   5.876  12.053  0.00  0.00    +0.000 HD
BRANCH  21  24
ATOM     24  C   UNL     1      44.919   5.344  11.602  0.00  0.00    +0.000 A 
ATOM     25  C   UNL     1      44.223   4.752  12.649  0.00  0.00    +0.000 A 
ATOM     26  S   UNL     1      43.559   3.232  12.255  0.00  0.00    +0.000 S 
ATOM     27  C   UNL     1      44.223   3.286  10.691  0.00  0.00    +0.000 A 
ATOM     28  N   UNL     1      44.051   2.253   9.824  0.00  0.00    +0.000 NA
ATOM     29  C   UNL     1      44.633   2.411   8.683  0.00  0.00    +0.000 A 
ATOM     30  N   UNL     1      45.365   3.514   8.324  0.00  0.00    +0.000 N 
ATOM     31  C   UNL     1      45.536   4.600   9.156  0.00  0.00    +0.000 A 
ATOM     32  O   UNL     1      46.152   5.592   8.786  0.00  0.00    +0.000 OA
ATOM     33  C   UNL     1      44.919   4.461  10.459  0.00  0.00    +0.000 A 
ATOM     34  H   UNL     1      45.782   3.582   7.409  0.00  0.00    +0.000 HD
ENDBRANCH  21  24
ENDBRANCH  19  20
ENDBRANCH   4  19
TORSDOF 8
ENDMDL
MODEL 9
REMARK VINA RESULT:    -6.958      2.061      2.505
REMARK INTER + INTRA:         -11.237
REMARK INTER:                 -10.025
REMARK INTRA:                  -1.212
REMARK UNBOUND:                -1.229
REMARK  Name = 
REMARK  8 active torsions:
REMARK  status: ('A' for Active; 'I' for Inactive)
REMARK    1  A    between atoms: N_1  and  C_2
REMARK    2  A    between atoms: C_2  and  C_3
REMARK    3  A    between atoms: C_2  and  C_24
REMARK    4  A    between atoms: C_3  and  C_4
REMARK    5  A    between atoms: C_7  and  C_8
REMARK    6  A    between atoms: C_8  and  N_9
REMARK    7  A    between atoms: C_10  and  C_12
REMARK    8  A    between atoms: C_24  and  C_25
REMARK                            x       y       z     vdW  Elec       q    Type
REMARK                         _______ _______ _______ _____ _____    ______ ____
ROOT
ATOM      1  C   UNL     1      45.706   4.557  12.101  0.00  0.00    +0.000 A 
ATOM      2  C   UNL     1      45.956   4.250  13.435  0.00  0.00    +0.000 A 
ATOM      3  C   UNL     1      46.788   5.083  14.182  0.00  0.00    +0.000 A 
ATOM      4  C   UNL     1      47.382   6.192  13.580  0.00  0.00    +0.000 A 
ATOM      5  C   UNL     1      47.041   6.450  12.259  0.00  0.00    +0.000 A 
ATOM      6  N   UNL     1      46.222   5.667  11.515  0.00  0.00    +0.000 NA
ENDROOT
BRANCH   1   7
ATOM      7  C   UNL     1      44.946   3.604  11.203  0.00  0.00    +0.000 C 
BRANCH   7   8
ATOM      8  C   UNL     1      43.901   4.187  10.214  0.00  0.00    +0.000 C 
BRANCH   8   9
ATOM      9  N   UNL     1      43.562   5.578  10.547  0.00  0.00    +0.000 NA
ATOM     10  H   UNL     1      42.782   5.887   9.968  0.00  0.00    +0.000 HD
ATOM     11  H   UNL     1      44.344   6.187  10.310  0.00  0.00    +0.000 HD
ENDBRANCH   8   9
BRANCH   8  12
ATOM     12  C   UNL     1      44.335   3.993   8.745  0.00  0.00    +0.000 C 
BRANCH  12  13
ATOM     13  C   UNL     1      45.653   3.220   8.490  0.00  0.00    +0.000 C 
ATOM     14  C   UNL     1      46.429   3.759   7.276  0.00  0.00    +0.000 C 
ATOM     15  C   UNL     1      47.640   2.895   6.921  0.00  0.00    +0.000 C 
ATOM     16  C   UNL     1      47.258   1.432   6.725  0.00  0.00    +0.000 C 
ATOM     17  C   UNL     1      46.555   0.888   7.961  0.00  0.00    +0.000 C 
ATOM     18  C   UNL     1      45.324   1.724   8.304  0.00  0.00    +0.000 C 
ENDBRANCH  12  13
ENDBRANCH   8  12
ENDBRANCH   7   8
ENDBRANCH   1   7
BRANCH   4  19
ATOM     19  C   UNL     1      48.336   7.070  14.330  0.00  0.00    +0.000 C 
BRANCH  19  20
ATOM     20  N   UNL     1      48.772   6.449  15.553  0.00  0.00    +0.000 N 
ATOM     21  C   UNL     1      50.055   6.611  16.010  0.00  0.00    +0.000 C 
ATOM     22  O   UNL     1      50.864   7.330  15.432  0.00  0.00    +0.000 OA
ATOM     23  H   UNL     1      48.208   5.684  15.912  0.00  0.00    +0.000 HD
BRANCH  21  24
ATOM     24  C   UNL     1      50.394   5.926  17.262  0.00  0.00    +0.000 A 
ATOM     25  C   UNL     1      51.470   5.047  17.291  0.00  0.00    +0.000 A 
ATOM     26  S   UNL     1      51.758   4.369  18.829  0.00  0.00    +0.000 S 
ATOM     27  C   UNL     1      50.422   5.182  19.497  0.00  0.00    +0.000 A 
ATOM     28  N   UNL     1      50.083   5.011  20.803  0.00  0.00    +0.000 NA
ATOM     29  C   UNL     1      49.031   5.662  21.172  0.00  0.00    +0.000 A 
ATOM     30  N   UNL     1      48.292   6.480  20.355  0.00  0.00    +0.000 N 
ATOM     31  C   UNL     1      48.619   6.713  19.036  0.00  0.00    +0.000 A 
ATOM     32  O   UNL     1      47.967   7.489  18.348  0.00  0.00    +0.000 OA
ATOM     33  C   UNL     1      49.780   5.985  18.569  0.00  0.00    +0.000 A 
ATOM     34  H   UNL     1      47.489   6.975  20.711  0.00  0.00    +0.000 HD
ENDBRANCH  21  24
ENDBRANCH  19  20
ENDBRANCH   4  19
TORSDOF 8
ENDMDL
