MODEL 1
REMARK VINA RESULT:    -8.201      0.000      0.000
REMARK INTER + INTRA:         -11.899
REMARK INTER:                 -11.078
REMARK INTRA:                  -0.821
REMARK UNBOUND:                -0.821
REMARK  Name = 
REMARK  6 active torsions:
REMARK  status: ('A' for Active; 'I' for Inactive)
REMARK    1  A    between atoms: C_2  and  C_4
REMARK    2  A    between atoms: C_7  and  N_8
REMARK    3  A    between atoms: N_8  and  C_9
REMARK    4  A    between atoms: C_9  and  C_10
REMARK    5  A    between atoms: C_10  and  C_11
REMARK    6  A    between atoms: C_15  and  C_16
REMARK                            x       y       z     vdW  Elec       q    Type
REMARK                         _______ _______ _______ _____ _____    ______ ____
ROOT
ATOM      1  C   UNL     1      45.466   6.730  12.472  0.00  0.00    +0.000 C 
ENDROOT
BRANCH   1   2
ATOM      2  N   UNL     1      46.767   6.059  12.389  0.00  0.00    +0.000 N 
ATOM      3  H   UNL     1      47.521   6.706  12.170  0.00  0.00    +0.000 HD
BRANCH   2   7
ATOM      4  C   UNL     1      47.690   3.782  15.691  0.00  0.00    +0.000 A 
ATOM      5  C   UNL     1      47.835   5.159  15.722  0.00  0.00    +0.000 A 
ATOM      6  N   UNL     1      47.551   5.947  14.650  0.00  0.00    +0.000 NA
ATOM      7  C   UNL     1      47.116   5.321  13.535  0.00  0.00    +0.000 A 
ATOM      8  C   UNL     1      46.971   3.925  13.530  0.00  0.00    +0.000 A 
ATOM      9  N   UNL     1      47.256   3.118  14.586  0.00  0.00    +0.000 NA
BRANCH   4  11
ATOM     10  N   UNL     1      46.951   2.695  17.725  0.00  0.00    +0.000 N 
ATOM     11  C   UNL     1      48.008   2.980  16.904  0.00  0.00    +0.000 C 
ATOM     12  O   UNL     1      49.142   2.596  17.156  0.00  0.00    +0.000 OA
ATOM     13  H   UNL     1      47.105   2.160  18.567  0.00  0.00    +0.000 HD
ATOM     14  H   UNL     1      46.021   3.027  17.492  0.00  0.00    +0.000 HD
ENDBRANCH   4  11
ENDBRANCH   2   7
ENDBRANCH   1   2
BRANCH   1  15
ATOM     15  C   UNL     1      44.722   6.572  11.139  0.00  0.00    +0.000 C 
BRANCH  15  16
ATOM     16  C   UNL     1      44.587   5.132  10.714  0.00  0.00    +0.000 A 
ATOM     17  C   UNL     1      43.767   4.249  11.412  0.00  0.00    +0.000 A 
ATOM     18  C   UNL     1      43.696   2.935  10.981  0.00  0.00    +0.000 A 
ATOM     19  N   UNL     1      44.371   2.453   9.915  0.00  0.00    +0.000 NA
ATOM     20  C   UNL     1      45.159   3.311   9.221  0.00  0.00    +0.000 A 
ATOM     21  C   UNL     1      45.284   4.650   9.598  0.00  0.00    +0.000 A 
BRANCH  20  22
ATOM     22  C   UNL     1      45.893   2.736   8.071  0.00  0.00    +0.000 A 
ATOM     23  C   UNL     1      46.196   3.491   6.923  0.00  0.00    +0.000 A 
ATOM     24  C   UNL     1      46.924   2.944   5.860  0.00  0.00    +0.000 A 
ATOM     25  C   UNL     1      47.358   1.624   5.919  0.00  0.00    +0.000 A 
ATOM     26  C   UNL     1      47.056   0.847   7.033  0.00  0.00    +0.000 A 
ATOM     27  C   UNL     1      46.329   1.399   8.094  0.00  0.00    +0.000 A 
ENDBRANCH  20  22
ENDBRANCH  15  16
ENDBRANCH   1  15
TORSDOF 6
ENDMDL
MODEL 2
REMARK VINA RESULT:    -7.948      3.436      7.173
REMARK INTER + INTRA:         -11.556
REMARK INTER:                 -10.722
REMARK INTRA:                  -0.834
REMARK UNBOUND:                -0.821
REMARK  Name = 
REMARK  6 active torsions:
REMARK  status: ('A' for Active; 'I' for Inactive)
REMARK    1  A    between atoms: C_2  and  C_4
REMARK    2  A    between atoms: C_7  and  N_8
REMARK    3  A    between atoms: N_8  and  C_9
REMARK    4  A    between atoms: C_9  and  C_10
REMARK    5  A    between atoms: C_10  and  C_11
REMARK    6  A    between atoms: C_15  and  C_16
REMARK                            x       y       z     vdW  Elec       q    Type
REMARK                         _______ _______ _______ _____ _____    ______ ____
ROOT
ATOM      1  C   UNL     1      43.564   4.062  11.182  0.00  0.00    +0.000 C 
ENDROOT
BRANCH   1   2
ATOM      2  N   UNL     1      43.852   4.681   9.884  0.00  0.00    +0.000 N 
ATOM      3  H   UNL     1      44.187   5.637   9.980  0.00  0.00    +0.000 HD
BRANCH   2   7
ATOM      4  C   UNL     1      46.501   2.457   7.654  0.00  0.00    +0.000 A 
ATOM      5  C   UNL     1      46.370   3.819   7.441  0.00  0.00    +0.000 A 
ATOM      6  N   UNL     1      45.500   4.588   8.148  0.00  0.00    +0.000 NA
ATOM      7  C   UNL     1      44.754   3.959   9.082  0.00  0.00    +0.000 A 
ATOM      8  C   UNL     1      44.910   2.579   9.285  0.00  0.00    +0.000 A 
ATOM      9  N   UNL     1      45.767   1.789   8.584  0.00  0.00    +0.000 NA
BRANCH   4  11
ATOM     10  N   UNL     1      48.598   2.357   6.445  0.00  0.00    +0.000 N 
ATOM     11  C   UNL     1      47.481   1.676   6.851  0.00  0.00    +0.000 C 
ATOM     12  O   UNL     1      47.307   0.498   6.568  0.00  0.00    +0.000 OA
ATOM     13  H   UNL     1      49.296   1.883   5.891  0.00  0.00    +0.000 HD
ATOM     14  H   UNL     1      48.716   3.333   6.693  0.00  0.00    +0.000 HD
ENDBRANCH   4  11
ENDBRANCH   2   7
ENDBRANCH   1   2
BRANCH   1  15
ATOM     15  C   UNL     1      43.699   5.113  12.292  0.00  0.00    +0.000 C 
BRANCH  15  16
ATOM     16  C   UNL     1      45.125   5.307  12.742  0.00  0.00    +0.000 A 
ATOM     17  C   UNL     1      45.725   4.421  13.633  0.00  0.00    +0.000 A 
ATOM     18  C   UNL     1      47.032   4.660  14.020  0.00  0.00    +0.000 A 
ATOM     19  N   UNL     1      47.771   5.703  13.581  0.00  0.00    +0.000 NA
ATOM     20  C   UNL     1      47.197   6.561  12.700  0.00  0.00    +0.000 A 
ATOM     21  C   UNL     1      45.881   6.386  12.266  0.00  0.00    +0.000 A 
BRANCH  20  22
ATOM     22  C   UNL     1      48.036   7.698  12.258  0.00  0.00    +0.000 A 
ATOM     23  C   UNL     1      49.392   7.539  11.917  0.00  0.00    +0.000 A 
ATOM     24  C   UNL     1      50.163   8.617  11.465  0.00  0.00    +0.000 A 
ATOM     25  C   UNL     1      49.594   9.881  11.353  0.00  0.00    +0.000 A 
ATOM     26  C   UNL     1      48.261  10.073  11.703  0.00  0.00    +0.000 A 
ATOM     27  C   UNL     1      47.494   8.992  12.153  0.00  0.00    +0.000 A 
ENDBRANCH  20  22
ENDBRANCH  15  16
ENDBRANCH   1  15
TORSDOF 6
ENDMDL
MODEL 3
REMARK VINA RESULT:    -7.844      2.897      8.009
REMARK INTER + INTRA:         -11.416
REMARK INTER:                 -10.729
REMARK INTRA:                  -0.686
REMARK UNBOUND:                -0.821
REMARK  Name = 
REMARK  6 active torsions:
REMARK  status: ('A' for Active; 'I' for Inactive)
REMARK    1  A    between atoms: C_2  and  C_4
REMARK    2  A    between atoms: C_7  and  N_8
REMARK    3  A    between atoms: N_8  and  C_9
REMARK    4  A    between atoms: C_9  and  C_10
REMARK    5  A    between atoms: C_10  and  C_11
REMARK    6  A    between atoms: C_15  and  C_16
REMARK                            x       y       z     vdW  Elec       q    Type
REMARK                         _______ _______ _______ _____ _____    ______ ____
ROOT
ATOM      1  C   UNL     1      44.509   5.567  10.763  0.00  0.00    +0.000 C 
ENDROOT
BRANCH   1   2
ATOM      2  N   UNL     1      43.890   4.676   9.775  0.00  0.00    +0.000 N 
ATOM      3  H   UNL     1      43.238   5.168   9.169  0.00  0.00    +0.000 HD
BRANCH   2   7
ATOM      4  C   UNL     1      46.568   2.474   7.557  0.00  0.00    +0.000 A 
ATOM      5  C   UNL     1      46.492   3.848   7.408  0.00  0.00    +0.000 A 
ATOM      6  N   UNL     1      45.615   4.612   8.114  0.00  0.00    +0.000 NA
ATOM      7  C   UNL     1      44.806   3.963   8.979  0.00  0.00    +0.000 A 
ATOM      8  C   UNL     1      44.905   2.570   9.118  0.00  0.00    +0.000 A 
ATOM      9  N   UNL     1      45.768   1.787   8.418  0.00  0.00    +0.000 NA
BRANCH   4  11
ATOM     10  N   UNL     1      48.663   2.394   6.346  0.00  0.00    +0.000 N 
ATOM     11  C   UNL     1      47.559   1.700   6.761  0.00  0.00    +0.000 C 
ATOM     12  O   UNL     1      47.403   0.516   6.492  0.00  0.00    +0.000 OA
ATOM     13  H   UNL     1      49.368   1.925   5.795  0.00  0.00    +0.000 HD
ATOM     14  H   UNL     1      48.767   3.375   6.582  0.00  0.00    +0.000 HD
ENDBRANCH   4  11
ENDBRANCH   2   7
ENDBRANCH   1   2
BRANCH   1  15
ATOM     15  C   UNL     1      44.769   4.790  12.061  0.00  0.00    +0.000 C 
BRANCH  15  16
ATOM     16  C   UNL     1      46.008   5.256  12.782  0.00  0.00    +0.000 A 
ATOM     17  C   UNL     1      46.879   6.172  12.197  0.00  0.00    +0.000 A 
ATOM     18  C   UNL     1      48.008   6.550  12.903  0.00  0.00    +0.000 A 
ATOM     19  N   UNL     1      48.318   6.090  14.135  0.00  0.00    +0.000 NA
ATOM     20  C   UNL     1      47.466   5.209  14.717  0.00  0.00    +0.000 A 
ATOM     21  C   UNL     1      46.308   4.778  14.064  0.00  0.00    +0.000 A 
BRANCH  20  22
ATOM     22  C   UNL     1      47.853   4.717  16.058  0.00  0.00    +0.000 A 
ATOM     23  C   UNL     1      48.487   5.544  17.004  0.00  0.00    +0.000 A 
ATOM     24  C   UNL     1      48.812   5.075  18.282  0.00  0.00    +0.000 A 
ATOM     25  C   UNL     1      48.519   3.763  18.638  0.00  0.00    +0.000 A 
ATOM     26  C   UNL     1      47.912   2.916  17.717  0.00  0.00    +0.000 A 
ATOM     27  C   UNL     1      47.586   3.390  16.441  0.00  0.00    +0.000 A 
ENDBRANCH  20  22
ENDBRANCH  15  16
ENDBRANCH   1  15
TORSDOF 6
ENDMDL
MODEL 4
REMARK VINA RESULT:    -7.193      1.694      2.403
REMARK INTER + INTRA:         -10.537
REMARK INTER:                  -9.907
REMARK INTRA:                  -0.630
REMARK UNBOUND:                -0.821
REMARK  Name = 
REMARK  6 active torsions:
REMARK  status: ('A' for Active; 'I' for Inactive)
REMARK    1  A    between atoms: C_2  and  C_4
REMARK    2  A    between atoms: C_7  and  N_8
REMARK    3  A    between atoms: N_8  and  C_9
REMARK    4  A    between atoms: C_9  and  C_10
REMARK    5  A    between atoms: C_10  and  C_11
REMARK    6  A    between atoms: C_15  and  C_16
REMARK                            x       y       z     vdW  Elec       q    Type
REMARK                         _______ _______ _______ _____ _____    ______ ____
ROOT
ATOM      1  C   UNL     1      47.071   5.413  13.634  0.00  0.00    +0.000 C 
ENDROOT
BRANCH   1   2
ATOM      2  N   UNL     1      46.613   4.339  14.521  0.00  0.00    +0.000 N 
ATOM      3  H   UNL     1      46.691   3.422  14.088  0.00  0.00    +0.000 HD
BRANCH   2   7
ATOM      4  C   UNL     1      48.586   4.352  18.133  0.00  0.00    +0.000 A 
ATOM      5  C   UNL     1      47.782   3.284  17.773  0.00  0.00    +0.000 A 
ATOM      6  N   UNL     1      47.105   3.244  16.594  0.00  0.00    +0.000 NA
ATOM      7  C   UNL     1      47.249   4.309  15.775  0.00  0.00    +0.000 A 
ATOM      8  C   UNL     1      48.075   5.377  16.158  0.00  0.00    +0.000 A 
ATOM      9  N   UNL     1      48.754   5.441  17.335  0.00  0.00    +0.000 NA
BRANCH   4  11
ATOM     10  N   UNL     1      48.583   3.886  20.509  0.00  0.00    +0.000 N 
ATOM     11  C   UNL     1      49.308   4.326  19.434  0.00  0.00    +0.000 C 
ATOM     12  O   UNL     1      50.476   4.673  19.543  0.00  0.00    +0.000 OA
ATOM     13  H   UNL     1      49.016   3.852  21.421  0.00  0.00    +0.000 HD
ATOM     14  H   UNL     1      47.616   3.605  20.391  0.00  0.00    +0.000 HD
ENDBRANCH   4  11
ENDBRANCH   2   7
ENDBRANCH   1   2
BRANCH   1  15
ATOM     15  C   UNL     1      45.871   6.270  13.206  0.00  0.00    +0.000 C 
BRANCH  15  16
ATOM     16  C   UNL     1      45.057   5.629  12.111  0.00  0.00    +0.000 A 
ATOM     17  C   UNL     1      43.667   5.714  12.106  0.00  0.00    +0.000 A 
ATOM     18  C   UNL     1      42.973   5.092  11.081  0.00  0.00    +0.000 A 
ATOM     19  N   UNL     1      43.564   4.410  10.075  0.00  0.00    +0.000 NA
ATOM     20  C   UNL     1      44.919   4.337  10.066  0.00  0.00    +0.000 A 
ATOM     21  C   UNL     1      45.685   4.937  11.068  0.00  0.00    +0.000 A 
BRANCH  20  22
ATOM     22  C   UNL     1      45.522   3.566   8.956  0.00  0.00    +0.000 A 
ATOM     23  C   UNL     1      46.058   4.191   7.815  0.00  0.00    +0.000 A 
ATOM     24  C   UNL     1      46.660   3.450   6.791  0.00  0.00    +0.000 A 
ATOM     25  C   UNL     1      46.729   2.064   6.883  0.00  0.00    +0.000 A 
ATOM     26  C   UNL     1      46.189   1.417   7.990  0.00  0.00    +0.000 A 
ATOM     27  C   UNL     1      45.590   2.162   9.012  0.00  0.00    +0.000 A 
ENDBRANCH  20  22
ENDBRANCH  15  16
ENDBRANCH   1  15
TORSDOF 6
ENDMDL
MODEL 5
REMARK VINA RESULT:    -6.890      2.199      3.713
REMARK INTER + INTRA:         -10.127
REMARK INTER:                  -9.226
REMARK INTRA:                  -0.901
REMARK UNBOUND:                -0.821
REMARK  Name = 
REMARK  6 active torsions:
REMARK  status: ('A' for Active; 'I' for Inactive)
REMARK    1  A    between atoms: C_2  and  C_4
REMARK    2  A    between atoms: C_7  and  N_8
REMARK    3  A    between atoms: N_8  and  C_9
REMARK    4  A    between atoms: C_9  and  C_10
REMARK    5  A    between atoms: C_10  and  C_11
REMARK    6  A    between atoms: C_15  and  C_16
REMARK                            x       y       z     vdW  Elec       q    Type
REMARK                         _______ _______ _______ _____ _____    ______ ____
ROOT
ATOM      1  C   UNL     1      49.408   7.206  13.027  0.00  0.00    +0.000 C 
ENDROOT
BRANCH   1   2
ATOM      2  N   UNL     1      49.372   7.540  14.455  0.00  0.00    +0.000 N 
ATOM      3  H   UNL     1      48.848   8.393  14.638  0.00  0.00    +0.000 HD
BRANCH   2   7
ATOM      4  C   UNL     1      48.065   4.545  16.957  0.00  0.00    +0.000 A 
ATOM      5  C   UNL     1      47.552   4.668  15.677  0.00  0.00    +0.000 A 
ATOM      6  N   UNL     1      47.949   5.649  14.822  0.00  0.00    +0.000 NA
ATOM      7  C   UNL     1      48.879   6.514  15.281  0.00  0.00    +0.000 A 
ATOM      8  C   UNL     1      49.390   6.366  16.580  0.00  0.00    +0.000 A 
ATOM      9  N   UNL     1      49.001   5.399  17.454  0.00  0.00    +0.000 NA
BRANCH   4  11
ATOM     10  N   UNL     1      48.293   3.267  19.002  0.00  0.00    +0.000 N 
ATOM     11  C   UNL     1      47.594   3.441  17.838  0.00  0.00    +0.000 C 
ATOM     12  O   UNL     1      46.641   2.732  17.546  0.00  0.00    +0.000 OA
ATOM     13  H   UNL     1      48.026   2.530  19.637  0.00  0.00    +0.000 HD
ATOM     14  H   UNL     1      49.080   3.869  19.218  0.00  0.00    +0.000 HD
ENDBRANCH   4  11
ENDBRANCH   2   7
ENDBRANCH   1   2
BRANCH   1  15
ATOM     15  C   UNL     1      48.615   8.255  12.236  0.00  0.00    +0.000 C 
BRANCH  15  16
ATOM     16  C   UNL     1      47.189   7.839  11.981  0.00  0.00    +0.000 A 
ATOM     17  C   UNL     1      46.123   8.633  12.397  0.00  0.00    +0.000 A 
ATOM     18  C   UNL     1      44.835   8.191  12.147  0.00  0.00    +0.000 A 
ATOM     19  N   UNL     1      44.544   7.033  11.514  0.00  0.00    +0.000 NA
ATOM     20  C   UNL     1      45.579   6.262  11.092  0.00  0.00    +0.000 A 
ATOM     21  C   UNL     1      46.905   6.642  11.312  0.00  0.00    +0.000 A 
BRANCH  20  22
ATOM     22  C   UNL     1      45.214   4.995  10.420  0.00  0.00    +0.000 A 
ATOM     23  C   UNL     1      44.576   3.942  11.102  0.00  0.00    +0.000 A 
ATOM     24  C   UNL     1      44.203   2.765  10.443  0.00  0.00    +0.000 A 
ATOM     25  C   UNL     1      44.471   2.611   9.087  0.00  0.00    +0.000 A 
ATOM     26  C   UNL     1      45.120   3.626   8.391  0.00  0.00    +0.000 A 
ATOM     27  C   UNL     1      45.489   4.802   9.054  0.00  0.00    +0.000 A 
ENDBRANCH  20  22
ENDBRANCH  15  16
ENDBRANCH   1  15
TORSDOF 6
ENDMDL
MODEL 6
REMARK VINA RESULT:    -6.282      2.196      2.950
REMARK INTER + INTRA:          -9.306
REMARK INTER:                  -8.828
REMARK INTRA:                  -0.478
REMARK UNBOUND:                -0.821
REMARK  Name = 
REMARK  6 active torsions:
REMARK  status: ('A' for Active; 'I' for Inactive)
REMARK    1  A    between atoms: C_2  and  C_4
REMARK    2  A    between atoms: C_7  and  N_8
REMARK    3  A    between atoms: N_8  and  C_9
REMARK    4  A    between atoms: C_9  and  C_10
REMARK    5  A    between atoms: C_10  and  C_11
REMARK    6  A    between atoms: C_15  and  C_16
REMARK                            x       y       z     vdW  Elec       q    Type
REMARK                         _______ _______ _______ _____ _____    ______ ____
ROOT
ATOM      1  C   UNL     1      47.422   7.230  11.996  0.00  0.00    +0.000 C 
ENDROOT
BRANCH   1   2
ATOM      2  N   UNL     1      47.647   6.126  12.934  0.00  0.00    +0.000 N 
ATOM      3  H   UNL     1      48.289   5.429  12.562  0.00  0.00    +0.000 HD
BRANCH   2   7
ATOM      4  C   UNL     1      49.027   7.418  16.590  0.00  0.00    +0.000 A 
ATOM      5  C   UNL     1      48.697   6.088  16.392  0.00  0.00    +0.000 A 
ATOM      6  N   UNL     1      48.228   5.621  15.203  0.00  0.00    +0.000 NA
ATOM      7  C   UNL     1      48.094   6.524  14.207  0.00  0.00    +0.000 A 
ATOM      8  C   UNL     1      48.441   7.866  14.430  0.00  0.00    +0.000 A 
ATOM      9  N   UNL     1      48.904   8.355  15.611  0.00  0.00    +0.000 NA
BRANCH   4  11
ATOM     10  N   UNL     1      49.924   9.172  17.999  0.00  0.00    +0.000 N 
ATOM     11  C   UNL     1      49.545   7.859  17.914  0.00  0.00    +0.000 C 
ATOM     12  O   UNL     1      49.628   7.101  18.871  0.00  0.00    +0.000 OA
ATOM     13  H   UNL     1      50.290   9.529  18.869  0.00  0.00    +0.000 HD
ATOM     14  H   UNL     1      49.846   9.778  17.189  0.00  0.00    +0.000 HD
ENDBRANCH   4  11
ENDBRANCH   2   7
ENDBRANCH   1   2
BRANCH   1  15
ATOM     15  C   UNL     1      45.920   7.534  11.915  0.00  0.00    +0.000 C 
BRANCH  15  16
ATOM     16  C   UNL     1      45.136   6.429  11.253  0.00  0.00    +0.000 A 
ATOM     17  C   UNL     1      43.789   6.229  11.545  0.00  0.00    +0.000 A 
ATOM     18  C   UNL     1      43.126   5.189  10.916  0.00  0.00    +0.000 A 
ATOM     19  N   UNL     1      43.706   4.353  10.026  0.00  0.00    +0.000 NA
ATOM     20  C   UNL     1      45.014   4.553   9.726  0.00  0.00    +0.000 A 
ATOM     21  C   UNL     1      45.748   5.580  10.323  0.00  0.00    +0.000 A 
BRANCH  20  22
ATOM     22  C   UNL     1      45.612   3.604   8.760  0.00  0.00    +0.000 A 
ATOM     23  C   UNL     1      46.293   4.038   7.608  0.00  0.00    +0.000 A 
ATOM     24  C   UNL     1      46.887   3.130   6.724  0.00  0.00    +0.000 A 
ATOM     25  C   UNL     1      46.802   1.763   6.969  0.00  0.00    +0.000 A 
ATOM     26  C   UNL     1      46.117   1.303   8.089  0.00  0.00    +0.000 A 
ATOM     27  C   UNL     1      45.527   2.216   8.971  0.00  0.00    +0.000 A 
ENDBRANCH  20  22
ENDBRANCH  15  16
ENDBRANCH   1  15
TORSDOF 6
ENDMDL
MODEL 7
REMARK VINA RESULT:    -6.253      3.741      5.533
REMARK INTER + INTRA:          -9.267
REMARK INTER:                  -8.696
REMARK INTRA:                  -0.571
REMARK UNBOUND:                -0.821
REMARK  Name = 
REMARK  6 active torsions:
REMARK  status: ('A' for Active; 'I' for Inactive)
REMARK    1  A    between atoms: C_2  and  C_4
REMARK    2  A    between atoms: C_7  and  N_8
REMARK    3  A    between atoms: N_8  and  C_9
REMARK    4  A    between atoms: C_9  and  C_10
REMARK    5  A    between atoms: C_10  and  C_11
REMARK    6  A    between atoms: C_15  and  C_16
REMARK                            x       y       z     vdW  Elec       q    Type
REMARK                         _______ _______ _______ _____ _____    ______ ____
ROOT
ATOM      1  C   UNL     1      46.986   4.772  14.770  0.00  0.00    +0.000 C 
ENDROOT
BRANCH   1   2
ATOM      2  N   UNL     1      46.903   3.951  15.983  0.00  0.00    +0.000 N 
ATOM      3  H   UNL     1      46.237   3.188  15.885  0.00  0.00    +0.000 HD
BRANCH   2   7
ATOM      4  C   UNL     1      50.455   2.279  17.218  0.00  0.00    +0.000 A 
ATOM      5  C   UNL     1      50.031   3.493  17.732  0.00  0.00    +0.000 A 
ATOM      6  N   UNL     1      48.870   4.085  17.344  0.00  0.00    +0.000 NA
ATOM      7  C   UNL     1      48.135   3.430  16.419  0.00  0.00    +0.000 A 
ATOM      8  C   UNL     1      48.581   2.197  15.917  0.00  0.00    +0.000 A 
ATOM      9  N   UNL     1      49.742   1.592  16.285  0.00  0.00    +0.000 NA
BRANCH   4  11
ATOM     10  N   UNL     1      51.682   0.356  18.033  0.00  0.00    +0.000 N 
ATOM     11  C   UNL     1      51.733   1.682  17.695  0.00  0.00    +0.000 C 
ATOM     12  O   UNL     1      52.767   2.330  17.781  0.00  0.00    +0.000 OA
ATOM     13  H   UNL     1      52.515  -0.104  18.370  0.00  0.00    +0.000 HD
ATOM     14  H   UNL     1      50.810  -0.157  17.953  0.00  0.00    +0.000 HD
ENDBRANCH   4  11
ENDBRANCH   2   7
ENDBRANCH   1   2
BRANCH   1  15
ATOM     15  C   UNL     1      46.376   4.005  13.590  0.00  0.00    +0.000 C 
BRANCH  15  16
ATOM     16  C   UNL     1      45.350   4.813  12.837  0.00  0.00    +0.000 A 
ATOM     17  C   UNL     1      44.182   4.224  12.357  0.00  0.00    +0.000 A 
ATOM     18  C   UNL     1      43.284   5.015  11.660  0.00  0.00    +0.000 A 
ATOM     19  N   UNL     1      43.466   6.332  11.420  0.00  0.00    +0.000 NA
ATOM     20  C   UNL     1      44.594   6.915  11.898  0.00  0.00    +0.000 A 
ATOM     21  C   UNL     1      45.547   6.180  12.607  0.00  0.00    +0.000 A 
BRANCH  20  22
ATOM     22  C   UNL     1      44.761   8.354  11.597  0.00  0.00    +0.000 A 
ATOM     23  C   UNL     1      45.855   9.098  12.078  0.00  0.00    +0.000 A 
ATOM     24  C   UNL     1      46.019  10.449  11.753  0.00  0.00    +0.000 A 
ATOM     25  C   UNL     1      45.084  11.090  10.946  0.00  0.00    +0.000 A 
ATOM     26  C   UNL     1      43.982  10.386  10.473  0.00  0.00    +0.000 A 
ATOM     27  C   UNL     1      43.823   9.035  10.799  0.00  0.00    +0.000 A 
ENDBRANCH  20  22
ENDBRANCH  15  16
ENDBRANCH   1  15
TORSDOF 6
ENDMDL
MODEL 8
REMARK VINA RESULT:    -6.214      3.809      8.259
REMARK INTER + INTRA:          -9.214
REMARK INTER:                  -8.425
REMARK INTRA:                  -0.789
REMARK UNBOUND:                -0.821
REMARK  Name = 
REMARK  6 active torsions:
REMARK  status: ('A' for Active; 'I' for Inactive)
REMARK    1  A    between atoms: C_2  and  C_4
REMARK    2  A    between atoms: C_7  and  N_8
REMARK    3  A    between atoms: N_8  and  C_9
REMARK    4  A    between atoms: C_9  and  C_10
REMARK    5  A    between atoms: C_10  and  C_11
REMARK    6  A    between atoms: C_15  and  C_16
REMARK                            x       y       z     vdW  Elec       q    Type
REMARK                         _______ _______ _______ _____ _____    ______ ____
ROOT
ATOM      1  C   UNL     1      48.597   6.742  14.510  0.00  0.00    +0.000 C 
ENDROOT
BRANCH   1   2
ATOM      2  N   UNL     1      47.347   7.271  13.954  0.00  0.00    +0.000 N 
ATOM      3  H   UNL     1      47.511   7.984  13.247  0.00  0.00    +0.000 HD
BRANCH   2   7
ATOM      4  C   UNL     1      44.703   4.509  12.432  0.00  0.00    +0.000 A 
ATOM      5  C   UNL     1      45.918   4.105  12.959  0.00  0.00    +0.000 A 
ATOM      6  N   UNL     1      46.824   4.985  13.463  0.00  0.00    +0.000 NA
ATOM      7  C   UNL     1      46.486   6.293  13.425  0.00  0.00    +0.000 A 
ATOM      8  C   UNL     1      45.246   6.677  12.893  0.00  0.00    +0.000 A 
ATOM      9  N   UNL     1      44.329   5.816  12.377  0.00  0.00    +0.000 NA
BRANCH   4  11
ATOM     10  N   UNL     1      43.818   2.255  12.493  0.00  0.00    +0.000 N 
ATOM     11  C   UNL     1      43.752   3.491  11.907  0.00  0.00    +0.000 C 
ATOM     12  O   UNL     1      42.959   3.737  11.008  0.00  0.00    +0.000 OA
ATOM     13  H   UNL     1      43.203   1.521  12.175  0.00  0.00    +0.000 HD
ATOM     14  H   UNL     1      44.486   2.078  13.235  0.00  0.00    +0.000 HD
ENDBRANCH   4  11
ENDBRANCH   2   7
ENDBRANCH   1   2
BRANCH   1  15
ATOM     15  C   UNL     1      48.515   6.740  16.043  0.00  0.00    +0.000 C 
BRANCH  15  16
ATOM     16  C   UNL     1      48.598   5.354  16.630  0.00  0.00    +0.000 A 
ATOM     17  C   UNL     1      47.446   4.635  16.940  0.00  0.00    +0.000 A 
ATOM     18  C   UNL     1      47.587   3.372  17.490  0.00  0.00    +0.000 A 
ATOM     19  N   UNL     1      48.779   2.786  17.741  0.00  0.00    +0.000 NA
ATOM     20  C   UNL     1      49.904   3.476  17.427  0.00  0.00    +0.000 A 
ATOM     21  C   UNL     1      49.841   4.756  16.872  0.00  0.00    +0.000 A 
BRANCH  20  22
ATOM     22  C   UNL     1      51.186   2.804  17.734  0.00  0.00    +0.000 A 
ATOM     23  C   UNL     1      51.422   1.455  17.407  0.00  0.00    +0.000 A 
ATOM     24  C   UNL     1      52.654   0.844  17.670  0.00  0.00    +0.000 A 
ATOM     25  C   UNL     1      53.675   1.568  18.277  0.00  0.00    +0.000 A 
ATOM     26  C   UNL     1      53.464   2.897  18.630  0.00  0.00    +0.000 A 
ATOM     27  C   UNL     1      52.232   3.504  18.363  0.00  0.00    +0.000 A 
ENDBRANCH  20  22
ENDBRANCH  15  16
ENDBRANCH   1  15
TORSDOF 6
ENDMDL
MODEL 9
REMARK VINA RESULT:    -6.041      3.729      7.481
REMARK INTER + INTRA:          -8.981
REMARK INTER:                  -8.686
REMARK INTRA:                  -0.295
REMARK UNBOUND:                -0.821
REMARK  Name = 
REMARK  6 active torsions:
REMARK  status: ('A' for Active; 'I' for Inactive)
REMARK    1  A    between atoms: C_2  and  C_4
REMARK    2  A    between atoms: C_7  and  N_8
REMARK    3  A    between atoms: N_8  and  C_9
REMARK    4  A    between atoms: C_9  and  C_10
REMARK    5  A    between atoms: C_10  and  C_11
REMARK    6  A    between atoms: C_15  and  C_16
REMARK                            x       y       z     vdW  Elec       q    Type
REMARK                         _______ _______ _______ _____ _____    ______ ____
ROOT
ATOM      1  C   UNL     1      44.912   3.152  11.473  0.00  0.00    +0.000 C 
ENDROOT
BRANCH   1   2
ATOM      2  N   UNL     1      44.589   3.888  10.246  0.00  0.00    +0.000 N 
ATOM      3  H   UNL     1      44.745   4.889  10.344  0.00  0.00    +0.000 HD
BRANCH   2   7
ATOM      4  C   UNL     1      46.605   2.421   6.971  0.00  0.00    +0.000 A 
ATOM      5  C   UNL     1      46.356   3.777   7.096  0.00  0.00    +0.000 A 
ATOM      6  N   UNL     1      45.685   4.302   8.157  0.00  0.00    +0.000 NA
ATOM      7  C   UNL     1      45.262   3.431   9.098  0.00  0.00    +0.000 A 
ATOM      8  C   UNL     1      45.531   2.062   8.953  0.00  0.00    +0.000 A 
ATOM      9  N   UNL     1      46.192   1.515   7.899  0.00  0.00    +0.000 NA
BRANCH   4  11
ATOM     10  N   UNL     1      46.727   2.053   4.581  0.00  0.00    +0.000 N 
ATOM     11  C   UNL     1      47.355   1.915   5.789  0.00  0.00    +0.000 C 
ATOM     12  O   UNL     1      48.464   1.407   5.885  0.00  0.00    +0.000 OA
ATOM     13  H   UNL     1      47.182   1.722   3.743  0.00  0.00    +0.000 HD
ATOM     14  H   UNL     1      45.806   2.476   4.530  0.00  0.00    +0.000 HD
ENDBRANCH   4  11
ENDBRANCH   2   7
ENDBRANCH   1   2
BRANCH   1  15
ATOM     15  C   UNL     1      44.849   4.107  12.673  0.00  0.00    +0.000 C 
BRANCH  15  16
ATOM     16  C   UNL     1      45.064   5.547  12.285  0.00  0.00    +0.000 A 
ATOM     17  C   UNL     1      44.007   6.337  11.838  0.00  0.00    +0.000 A 
ATOM     18  C   UNL     1      44.270   7.649  11.483  0.00  0.00    +0.000 A 
ATOM     19  N   UNL     1      45.494   8.219  11.549  0.00  0.00    +0.000 NA
ATOM     20  C   UNL     1      46.524   7.459  11.999  0.00  0.00    +0.000 A 
ATOM     21  C   UNL     1      46.336   6.126  12.372  0.00  0.00    +0.000 A 
BRANCH  20  22
ATOM     22  C   UNL     1      47.849   8.117  12.039  0.00  0.00    +0.000 A 
ATOM     23  C   UNL     1      48.027   9.412  12.562  0.00  0.00    +0.000 A 
ATOM     24  C   UNL     1      49.292  10.006  12.628  0.00  0.00    +0.000 A 
ATOM     25  C   UNL     1      50.409   9.320  12.161  0.00  0.00    +0.000 A 
ATOM     26  C   UNL     1      50.261   8.048  11.619  0.00  0.00    +0.000 A 
ATOM     27  C   UNL     1      48.994   7.457  11.557  0.00  0.00    +0.000 A 
ENDBRANCH  20  22
ENDBRANCH  15  16
ENDBRANCH   1  15
TORSDOF 6
ENDMDL
