MODEL 1
REMARK VINA RESULT:    -8.025      0.000      0.000
REMARK INTER + INTRA:         -11.698
REMARK INTER:                 -10.840
REMARK INTRA:                  -0.858
REMARK UNBOUND:                -0.858
REMARK  Name = 
REMARK  7 active torsions:
REMARK  status: ('A' for Active; 'I' for Inactive)
REMARK    1  A    between atoms: C_1  and  N_2
REMARK    2  A    between atoms: C_4  and  C_5
REMARK    3  A    between atoms: N_7  and  C_8
REMARK    4  A    between atoms: C_8  and  C_9
REMARK    5  A    between atoms: C_12  and  O_13
REMARK    6  A    between atoms: O_13  and  C_14
REMARK    7  A    between atoms: C_14  and  C_15
REMARK                            x       y       z     vdW  Elec       q    Type
REMARK                         _______ _______ _______ _____ _____    ______ ____
ROOT
ATOM      1  C   UNL     1      46.899   4.567  14.574  0.00  0.00    +0.000 C 
ATOM      2  O   UNL     1      46.965   3.348  14.457  0.00  0.00    +0.000 OA
ATOM      3  N   UNL     1      45.860   5.296  14.037  0.00  0.00    +0.000 N 
ATOM      4  H   UNL     1      45.781   6.284  14.228  0.00  0.00    +0.000 HD
ENDROOT
BRANCH   1   8
ATOM      5  C   UNL     1      50.303   8.084  15.540  0.00  0.00    +0.000 C 
ATOM      6  N   UNL     1      49.446   6.930  15.686  0.00  0.00    +0.000 N 
ATOM      7  C   UNL     1      48.506   6.507  14.788  0.00  0.00    +0.000 A 
ATOM      8  C   UNL     1      47.913   5.348  15.279  0.00  0.00    +0.000 A 
ATOM      9  C   UNL     1      48.538   5.075  16.552  0.00  0.00    +0.000 A 
ATOM     10  C   UNL     1      48.471   4.151  17.593  0.00  0.00    +0.000 A 
ATOM     11 CL   UNL     1      47.341   2.889  17.590  0.00  0.00    +0.000 Cl
ATOM     12  N   UNL     1      49.247   4.243  18.688  0.00  0.00    +0.000 NA
ATOM     13  C   UNL     1      50.106   5.266  18.740  0.00  0.00    +0.000 A 
ATOM     14  N   UNL     1      50.285   6.230  17.825  0.00  0.00    +0.000 NA
ATOM     15  C   UNL     1      49.476   6.083  16.760  0.00  0.00    +0.000 A 
ENDBRANCH   1   8
BRANCH   3  16
ATOM     16  C   UNL     1      44.764   4.611  13.396  0.00  0.00    +0.000 C 
BRANCH  16  17
ATOM     17  C   UNL     1      44.937   4.540  11.903  0.00  0.00    +0.000 A 
ATOM     18  C   UNL     1      44.486   3.422  11.187  0.00  0.00    +0.000 A 
ATOM     19  C   UNL     1      44.632   3.351   9.798  0.00  0.00    +0.000 A 
ATOM     20  C   UNL     1      45.244   4.397   9.111  0.00  0.00    +0.000 A 
ATOM     21  C   UNL     1      45.698   5.511   9.819  0.00  0.00    +0.000 A 
ATOM     22  C   UNL     1      45.553   5.584  11.206  0.00  0.00    +0.000 A 
BRANCH  20  23
ATOM     23  O   UNL     1      45.464   4.460   7.767  0.00  0.00    +0.000 OA
BRANCH  23  24
ATOM     24  C   UNL     1      46.747   4.076   7.275  0.00  0.00    +0.000 C 
BRANCH  24  25
ATOM     25  C   UNL     1      46.563   2.741   6.544  0.00  0.00    +0.000 C 
ATOM     26  C   UNL     1      47.244   1.592   7.306  0.00  0.00    +0.000 C 
ATOM     27  C   UNL     1      47.134   0.291   6.524  0.00  0.00    +0.000 C 
ATOM     28  O   UNL     1      47.678   0.444   5.214  0.00  0.00    +0.000 OA
ATOM     29  C   UNL     1      46.979   1.426   4.451  0.00  0.00    +0.000 C 
ATOM     30  C   UNL     1      47.091   2.798   5.107  0.00  0.00    +0.000 C 
ENDBRANCH  24  25
ENDBRANCH  23  24
ENDBRANCH  20  23
ENDBRANCH  16  17
ENDBRANCH   3  16
TORSDOF 6
ENDMDL
MODEL 2
REMARK VINA RESULT:    -7.742      1.787      2.664
REMARK INTER + INTRA:         -11.315
REMARK INTER:                 -10.147
REMARK INTRA:                  -1.169
REMARK UNBOUND:                -0.858
REMARK  Name = 
REMARK  7 active torsions:
REMARK  status: ('A' for Active; 'I' for Inactive)
REMARK    1  A    between atoms: C_1  and  N_2
REMARK    2  A    between atoms: C_4  and  C_5
REMARK    3  A    between atoms: N_7  and  C_8
REMARK    4  A    between atoms: C_8  and  C_9
REMARK    5  A    between atoms: C_12  and  O_13
REMARK    6  A    between atoms: O_13  and  C_14
REMARK    7  A    between atoms: C_14  and  C_15
REMARK                            x       y       z     vdW  Elec       q    Type
REMARK                         _______ _______ _______ _____ _____    ______ ____
ROOT
ATOM      1  C   UNL     1      48.692   6.926  14.888  0.00  0.00    +0.000 C 
ATOM      2  O   UNL     1      49.588   6.923  14.051  0.00  0.00    +0.000 OA
ATOM      3  N   UNL     1      47.435   7.420  14.609  0.00  0.00    +0.000 N 
ATOM      4  H   UNL     1      46.691   7.324  15.284  0.00  0.00    +0.000 HD
ENDROOT
BRANCH   1   8
ATOM      5  C   UNL     1      50.122   6.660  19.660  0.00  0.00    +0.000 C 
ATOM      6  N   UNL     1      49.540   6.315  18.383  0.00  0.00    +0.000 N 
ATOM      7  C   UNL     1      49.490   7.120  17.279  0.00  0.00    +0.000 A 
ATOM      8  C   UNL     1      48.878   6.419  16.245  0.00  0.00    +0.000 A 
ATOM      9  C   UNL     1      48.537   5.120  16.777  0.00  0.00    +0.000 A 
ATOM     10  C   UNL     1      47.921   3.936  16.377  0.00  0.00    +0.000 A 
ATOM     11 CL   UNL     1      47.249   3.761  14.831  0.00  0.00    +0.000 Cl
ATOM     12  N   UNL     1      47.762   2.890  17.209  0.00  0.00    +0.000 NA
ATOM     13  C   UNL     1      48.232   3.027  18.453  0.00  0.00    +0.000 A 
ATOM     14  N   UNL     1      48.843   4.097  18.983  0.00  0.00    +0.000 NA
ATOM     15  C   UNL     1      48.964   5.107  18.102  0.00  0.00    +0.000 A 
ENDBRANCH   1   8
BRANCH   3  16
ATOM     16  C   UNL     1      47.124   7.865  13.273  0.00  0.00    +0.000 C 
BRANCH  16  17
ATOM     17  C   UNL     1      46.425   6.801  12.471  0.00  0.00    +0.000 A 
ATOM     18  C   UNL     1      45.504   5.939  13.083  0.00  0.00    +0.000 A 
ATOM     19  C   UNL     1      44.840   4.954  12.345  0.00  0.00    +0.000 A 
ATOM     20  C   UNL     1      45.102   4.813  10.983  0.00  0.00    +0.000 A 
ATOM     21  C   UNL     1      46.020   5.667  10.369  0.00  0.00    +0.000 A 
ATOM     22  C   UNL     1      46.684   6.651  11.105  0.00  0.00    +0.000 A 
BRANCH  20  23
ATOM     23  O   UNL     1      44.543   3.896  10.145  0.00  0.00    +0.000 OA
BRANCH  23  24
ATOM     24  C   UNL     1      44.378   4.249   8.773  0.00  0.00    +0.000 C 
BRANCH  24  25
ATOM     25  C   UNL     1      45.113   3.188   7.946  0.00  0.00    +0.000 C 
ATOM     26  C   UNL     1      45.509   1.983   8.815  0.00  0.00    +0.000 C 
ATOM     27  C   UNL     1      46.317   0.981   8.004  0.00  0.00    +0.000 C 
ATOM     28  O   UNL     1      47.462   1.607   7.426  0.00  0.00    +0.000 OA
ATOM     29  C   UNL     1      47.106   2.653   6.523  0.00  0.00    +0.000 C 
ATOM     30  C   UNL     1      46.353   3.760   7.252  0.00  0.00    +0.000 C 
ENDBRANCH  24  25
ENDBRANCH  23  24
ENDBRANCH  20  23
ENDBRANCH  16  17
ENDBRANCH   3  16
TORSDOF 6
ENDMDL
MODEL 3
REMARK VINA RESULT:    -7.712      1.444      2.558
REMARK INTER + INTRA:         -11.276
REMARK INTER:                 -10.332
REMARK INTRA:                  -0.944
REMARK UNBOUND:                -0.858
REMARK  Name = 
REMARK  7 active torsions:
REMARK  status: ('A' for Active; 'I' for Inactive)
REMARK    1  A    between atoms: C_1  and  N_2
REMARK    2  A    between atoms: C_4  and  C_5
REMARK    3  A    between atoms: N_7  and  C_8
REMARK    4  A    between atoms: C_8  and  C_9
REMARK    5  A    between atoms: C_12  and  O_13
REMARK    6  A    between atoms: O_13  and  C_14
REMARK    7  A    between atoms: C_14  and  C_15
REMARK                            x       y       z     vdW  Elec       q    Type
REMARK                         _______ _______ _______ _____ _____    ______ ____
ROOT
ATOM      1  C   UNL     1      46.833   4.392  14.388  0.00  0.00    +0.000 C 
ATOM      2  O   UNL     1      47.089   3.256  14.004  0.00  0.00    +0.000 OA
ATOM      3  N   UNL     1      45.655   5.026  14.056  0.00  0.00    +0.000 N 
ATOM      4  H   UNL     1      45.428   5.922  14.462  0.00  0.00    +0.000 HD
ENDROOT
BRANCH   1   8
ATOM      5  C   UNL     1      49.363   6.008  18.373  0.00  0.00    +0.000 C 
ATOM      6  N   UNL     1      48.867   5.889  17.021  0.00  0.00    +0.000 N 
ATOM      7  C   UNL     1      48.009   4.929  16.561  0.00  0.00    +0.000 A 
ATOM      8  C   UNL     1      47.751   5.171  15.216  0.00  0.00    +0.000 A 
ATOM      9  C   UNL     1      48.513   6.344  14.857  0.00  0.00    +0.000 A 
ATOM     10  C   UNL     1      48.772   7.145  13.747  0.00  0.00    +0.000 A 
ATOM     11 CL   UNL     1      48.123   6.788  12.223  0.00  0.00    +0.000 Cl
ATOM     12  N   UNL     1      49.602   8.203  13.800  0.00  0.00    +0.000 NA
ATOM     13  C   UNL     1      50.172   8.469  14.980  0.00  0.00    +0.000 A 
ATOM     14  N   UNL     1      50.024   7.795  16.129  0.00  0.00    +0.000 NA
ATOM     15  C   UNL     1      49.189   6.748  16.006  0.00  0.00    +0.000 A 
ENDBRANCH   1   8
BRANCH   3  16
ATOM     16  C   UNL     1      44.645   4.312  13.313  0.00  0.00    +0.000 C 
BRANCH  16  17
ATOM     17  C   UNL     1      44.893   4.362  11.830  0.00  0.00    +0.000 A 
ATOM     18  C   UNL     1      45.328   5.549  11.222  0.00  0.00    +0.000 A 
ATOM     19  C   UNL     1      45.572   5.604   9.846  0.00  0.00    +0.000 A 
ATOM     20  C   UNL     1      45.371   4.471   9.060  0.00  0.00    +0.000 A 
ATOM     21  C   UNL     1      44.936   3.288   9.660  0.00  0.00    +0.000 A 
ATOM     22  C   UNL     1      44.691   3.231  11.034  0.00  0.00    +0.000 A 
BRANCH  20  23
ATOM     23  O   UNL     1      45.556   4.380   7.713  0.00  0.00    +0.000 OA
BRANCH  23  24
ATOM     24  C   UNL     1      46.822   3.930   7.234  0.00  0.00    +0.000 C 
BRANCH  24  25
ATOM     25  C   UNL     1      46.579   2.606   6.501  0.00  0.00    +0.000 C 
ATOM     26  C   UNL     1      47.262   1.435   7.226  0.00  0.00    +0.000 C 
ATOM     27  C   UNL     1      47.091   0.145   6.439  0.00  0.00    +0.000 C 
ATOM     28  O   UNL     1      47.585   0.296   5.109  0.00  0.00    +0.000 OA
ATOM     29  C   UNL     1      46.880   1.301   4.382  0.00  0.00    +0.000 C 
ATOM     30  C   UNL     1      47.050   2.664   5.045  0.00  0.00    +0.000 C 
ENDBRANCH  24  25
ENDBRANCH  23  24
ENDBRANCH  20  23
ENDBRANCH  16  17
ENDBRANCH   3  16
TORSDOF 6
ENDMDL
MODEL 4
REMARK VINA RESULT:    -7.454      2.539      3.466
REMARK INTER + INTRA:         -10.927
REMARK INTER:                  -9.940
REMARK INTRA:                  -0.988
REMARK UNBOUND:                -0.858
REMARK  Name = 
REMARK  7 active torsions:
REMARK  status: ('A' for Active; 'I' for Inactive)
REMARK    1  A    between atoms: C_1  and  N_2
REMARK    2  A    between atoms: C_4  and  C_5
REMARK    3  A    between atoms: N_7  and  C_8
REMARK    4  A    between atoms: C_8  and  C_9
REMARK    5  A    between atoms: C_12  and  O_13
REMARK    6  A    between atoms: O_13  and  C_14
REMARK    7  A    between atoms: C_14  and  C_15
REMARK                            x       y       z     vdW  Elec       q    Type
REMARK                         _______ _______ _______ _____ _____    ______ ____
ROOT
ATOM      1  C   UNL     1      48.921   6.803  15.493  0.00  0.00    +0.000 C 
ATOM      2  O   UNL     1      50.005   6.886  14.927  0.00  0.00    +0.000 OA
ATOM      3  N   UNL     1      47.733   7.034  14.833  0.00  0.00    +0.000 N 
ATOM      4  H   UNL     1      46.853   6.868  15.297  0.00  0.00    +0.000 HD
ENDROOT
BRANCH   1   8
ATOM      5  C   UNL     1      48.842   4.135  19.708  0.00  0.00    +0.000 C 
ATOM      6  N   UNL     1      48.751   5.245  18.788  0.00  0.00    +0.000 N 
ATOM      7  C   UNL     1      49.025   5.204  17.449  0.00  0.00    +0.000 A 
ATOM      8  C   UNL     1      48.793   6.464  16.909  0.00  0.00    +0.000 A 
ATOM      9  C   UNL     1      48.363   7.305  18.001  0.00  0.00    +0.000 A 
ATOM     10  C   UNL     1      47.984   8.624  18.242  0.00  0.00    +0.000 A 
ATOM     11 CL   UNL     1      48.002   9.793  17.015  0.00  0.00    +0.000 Cl
ATOM     12  N   UNL     1      47.649   9.066  19.468  0.00  0.00    +0.000 NA
ATOM     13  C   UNL     1      47.685   8.174  20.465  0.00  0.00    +0.000 A 
ATOM     14  N   UNL     1      48.027   6.880  20.391  0.00  0.00    +0.000 NA
ATOM     15  C   UNL     1      48.356   6.506  19.141  0.00  0.00    +0.000 A 
ENDBRANCH   1   8
BRANCH   3  16
ATOM     16  C   UNL     1      47.745   7.292  13.413  0.00  0.00    +0.000 C 
BRANCH  16  17
ATOM     17  C   UNL     1      46.882   6.320  12.655  0.00  0.00    +0.000 A 
ATOM     18  C   UNL     1      46.612   5.049  13.181  0.00  0.00    +0.000 A 
ATOM     19  C   UNL     1      45.802   4.142  12.489  0.00  0.00    +0.000 A 
ATOM     20  C   UNL     1      45.262   4.496  11.255  0.00  0.00    +0.000 A 
ATOM     21  C   UNL     1      45.530   5.759  10.726  0.00  0.00    +0.000 A 
ATOM     22  C   UNL     1      46.338   6.666  11.414  0.00  0.00    +0.000 A 
BRANCH  20  23
ATOM     23  O   UNL     1      44.469   3.715  10.468  0.00  0.00    +0.000 OA
BRANCH  23  24
ATOM     24  C   UNL     1      44.207   4.149   9.134  0.00  0.00    +0.000 C 
BRANCH  24  25
ATOM     25  C   UNL     1      45.001   3.229   8.200  0.00  0.00    +0.000 C 
ATOM     26  C   UNL     1      45.426   1.939   8.919  0.00  0.00    +0.000 C 
ATOM     27  C   UNL     1      46.291   1.078   8.011  0.00  0.00    +0.000 C 
ATOM     28  O   UNL     1      47.422   1.814   7.546  0.00  0.00    +0.000 OA
ATOM     29  C   UNL     1      47.044   2.952   6.774  0.00  0.00    +0.000 C 
ATOM     30  C   UNL     1      46.232   3.930   7.617  0.00  0.00    +0.000 C 
ENDBRANCH  24  25
ENDBRANCH  23  24
ENDBRANCH  20  23
ENDBRANCH  16  17
ENDBRANCH   3  16
TORSDOF 6
ENDMDL
MODEL 5
REMARK VINA RESULT:    -7.285      2.321      3.507
REMARK INTER + INTRA:         -10.698
REMARK INTER:                  -9.794
REMARK INTRA:                  -0.904
REMARK UNBOUND:                -0.858
REMARK  Name = 
REMARK  7 active torsions:
REMARK  status: ('A' for Active; 'I' for Inactive)
REMARK    1  A    between atoms: C_1  and  N_2
REMARK    2  A    between atoms: C_4  and  C_5
REMARK    3  A    between atoms: N_7  and  C_8
REMARK    4  A    between atoms: C_8  and  C_9
REMARK    5  A    between atoms: C_12  and  O_13
REMARK    6  A    between atoms: O_13  and  C_14
REMARK    7  A    between atoms: C_14  and  C_15
REMARK                            x       y       z     vdW  Elec       q    Type
REMARK                         _______ _______ _______ _____ _____    ______ ____
ROOT
ATOM      1  C   UNL     1      49.156   6.892  16.255  0.00  0.00    +0.000 C 
ATOM      2  O   UNL     1      50.223   6.344  16.002  0.00  0.00    +0.000 OA
ATOM      3  N   UNL     1      48.326   7.365  15.261  0.00  0.00    +0.000 N 
ATOM      4  H   UNL     1      47.412   7.727  15.491  0.00  0.00    +0.000 HD
ENDROOT
BRANCH   1   8
ATOM      5  C   UNL     1      47.428   9.172  20.342  0.00  0.00    +0.000 C 
ATOM      6  N   UNL     1      47.914   8.147  19.447  0.00  0.00    +0.000 N 
ATOM      7  C   UNL     1      48.219   8.313  18.125  0.00  0.00    +0.000 A 
ATOM      8  C   UNL     1      48.679   7.101  17.620  0.00  0.00    +0.000 A 
ATOM      9  C   UNL     1      48.634   6.158  18.713  0.00  0.00    +0.000 A 
ATOM     10  C   UNL     1      48.904   4.816  18.971  0.00  0.00    +0.000 A 
ATOM     11 CL   UNL     1      49.420   3.762  17.748  0.00  0.00    +0.000 Cl
ATOM     12  N   UNL     1      48.709   4.261  20.181  0.00  0.00    +0.000 NA
ATOM     13  C   UNL     1      48.245   5.061  21.147  0.00  0.00    +0.000 A 
ATOM     14  N   UNL     1      47.939   6.363  21.054  0.00  0.00    +0.000 NA
ATOM     15  C   UNL     1      48.151   6.853  19.819  0.00  0.00    +0.000 A 
ENDBRANCH   1   8
BRANCH   3  16
ATOM     16  C   UNL     1      48.665   7.133  13.878  0.00  0.00    +0.000 C 
BRANCH  16  17
ATOM     17  C   UNL     1      47.590   6.370  13.152  0.00  0.00    +0.000 A 
ATOM     18  C   UNL     1      47.095   6.833  11.924  0.00  0.00    +0.000 A 
ATOM     19  C   UNL     1      46.103   6.126  11.236  0.00  0.00    +0.000 A 
ATOM     20  C   UNL     1      45.587   4.951  11.777  0.00  0.00    +0.000 A 
ATOM     21  C   UNL     1      46.074   4.487  13.000  0.00  0.00    +0.000 A 
ATOM     22  C   UNL     1      47.065   5.191  13.689  0.00  0.00    +0.000 A 
BRANCH  20  23
ATOM     23  O   UNL     1      44.616   4.168  11.228  0.00  0.00    +0.000 OA
BRANCH  23  24
ATOM     24  C   UNL     1      44.036   4.582   9.992  0.00  0.00    +0.000 C 
BRANCH  24  25
ATOM     25  C   UNL     1      44.613   3.674   8.901  0.00  0.00    +0.000 C 
ATOM     26  C   UNL     1      45.051   2.318   9.479  0.00  0.00    +0.000 C 
ATOM     27  C   UNL     1      45.706   1.463   8.405  0.00  0.00    +0.000 C 
ATOM     28  O   UNL     1      46.802   2.156   7.809  0.00  0.00    +0.000 OA
ATOM     29  C   UNL     1      46.393   3.360   7.164  0.00  0.00    +0.000 C 
ATOM     30  C   UNL     1      45.788   4.332   8.171  0.00  0.00    +0.000 C 
ENDBRANCH  24  25
ENDBRANCH  23  24
ENDBRANCH  20  23
ENDBRANCH  16  17
ENDBRANCH   3  16
TORSDOF 6
ENDMDL
MODEL 6
REMARK VINA RESULT:    -7.147      2.467      3.307
REMARK INTER + INTRA:         -10.512
REMARK INTER:                  -9.620
REMARK INTRA:                  -0.892
REMARK UNBOUND:                -0.858
REMARK  Name = 
REMARK  7 active torsions:
REMARK  status: ('A' for Active; 'I' for Inactive)
REMARK    1  A    between atoms: C_1  and  N_2
REMARK    2  A    between atoms: C_4  and  C_5
REMARK    3  A    between atoms: N_7  and  C_8
REMARK    4  A    between atoms: C_8  and  C_9
REMARK    5  A    between atoms: C_12  and  O_13
REMARK    6  A    between atoms: O_13  and  C_14
REMARK    7  A    between atoms: C_14  and  C_15
REMARK                            x       y       z     vdW  Elec       q    Type
REMARK                         _______ _______ _______ _____ _____    ______ ____
ROOT
ATOM      1  C   UNL     1      48.472   7.427  15.116  0.00  0.00    +0.000 C 
ATOM      2  O   UNL     1      48.272   8.635  15.178  0.00  0.00    +0.000 OA
ATOM      3  N   UNL     1      47.758   6.612  14.264  0.00  0.00    +0.000 N 
ATOM      4  H   UNL     1      48.006   5.639  14.165  0.00  0.00    +0.000 HD
ENDROOT
BRANCH   1   8
ATOM      5  C   UNL     1      50.482   4.534  18.648  0.00  0.00    +0.000 C 
ATOM      6  N   UNL     1      50.351   5.453  17.541  0.00  0.00    +0.000 N 
ATOM      7  C   UNL     1      49.180   5.835  16.948  0.00  0.00    +0.000 A 
ATOM      8  C   UNL     1      49.469   6.749  15.940  0.00  0.00    +0.000 A 
ATOM      9  C   UNL     1      50.905   6.911  15.934  0.00  0.00    +0.000 A 
ATOM     10  C   UNL     1      51.893   7.605  15.240  0.00  0.00    +0.000 A 
ATOM     11 CL   UNL     1      51.520   8.601  13.921  0.00  0.00    +0.000 Cl
ATOM     12  N   UNL     1      53.201   7.477  15.528  0.00  0.00    +0.000 NA
ATOM     13  C   UNL     1      53.524   6.650  16.528  0.00  0.00    +0.000 A 
ATOM     14  N   UNL     1      52.693   5.916  17.283  0.00  0.00    +0.000 NA
ATOM     15  C   UNL     1      51.403   6.086  16.940  0.00  0.00    +0.000 A 
ENDBRANCH   1   8
BRANCH   3  16
ATOM     16  C   UNL     1      46.809   7.196  13.347  0.00  0.00    +0.000 C 
BRANCH  16  17
ATOM     17  C   UNL     1      46.226   6.173  12.410  0.00  0.00    +0.000 A 
ATOM     18  C   UNL     1      45.687   4.978  12.908  0.00  0.00    +0.000 A 
ATOM     19  C   UNL     1      45.132   4.025  12.046  0.00  0.00    +0.000 A 
ATOM     20  C   UNL     1      45.122   4.256  10.672  0.00  0.00    +0.000 A 
ATOM     21  C   UNL     1      45.660   5.442  10.171  0.00  0.00    +0.000 A 
ATOM     22  C   UNL     1      46.214   6.395  11.029  0.00  0.00    +0.000 A 
BRANCH  20  23
ATOM     23  O   UNL     1      44.629   3.417   9.718  0.00  0.00    +0.000 OA
BRANCH  23  24
ATOM     24  C   UNL     1      44.621   3.867   8.364  0.00  0.00    +0.000 C 
BRANCH  24  25
ATOM     25  C   UNL     1      45.502   2.900   7.565  0.00  0.00    +0.000 C 
ATOM     26  C   UNL     1      45.881   1.670   8.406  0.00  0.00    +0.000 C 
ATOM     27  C   UNL     1      46.829   0.764   7.635  0.00  0.00    +0.000 C 
ATOM     28  O   UNL     1      47.985   1.487   7.215  0.00  0.00    +0.000 OA
ATOM     29  C   UNL     1      47.660   2.562   6.336  0.00  0.00    +0.000 C 
ATOM     30  C   UNL     1      46.769   3.581   7.039  0.00  0.00    +0.000 C 
ENDBRANCH  24  25
ENDBRANCH  23  24
ENDBRANCH  20  23
ENDBRANCH  16  17
ENDBRANCH   3  16
TORSDOF 6
ENDMDL
MODEL 7
REMARK VINA RESULT:    -6.955      3.175      4.498
REMARK INTER + INTRA:         -10.253
REMARK INTER:                  -9.348
REMARK INTRA:                  -0.905
REMARK UNBOUND:                -0.858
REMARK  Name = 
REMARK  7 active torsions:
REMARK  status: ('A' for Active; 'I' for Inactive)
REMARK    1  A    between atoms: C_1  and  N_2
REMARK    2  A    between atoms: C_4  and  C_5
REMARK    3  A    between atoms: N_7  and  C_8
REMARK    4  A    between atoms: C_8  and  C_9
REMARK    5  A    between atoms: C_12  and  O_13
REMARK    6  A    between atoms: O_13  and  C_14
REMARK    7  A    between atoms: C_14  and  C_15
REMARK                            x       y       z     vdW  Elec       q    Type
REMARK                         _______ _______ _______ _____ _____    ______ ____
ROOT
ATOM      1  C   UNL     1      48.694   7.362  14.501  0.00  0.00    +0.000 C 
ATOM      2  O   UNL     1      49.453   6.565  15.040  0.00  0.00    +0.000 OA
ATOM      3  N   UNL     1      47.445   6.991  14.051  0.00  0.00    +0.000 N 
ATOM      4  H   UNL     1      46.804   7.686  13.697  0.00  0.00    +0.000 HD
ENDROOT
BRANCH   1   8
ATOM      5  C   UNL     1      49.153  12.275  15.240  0.00  0.00    +0.000 C 
ATOM      6  N   UNL     1      49.231  10.968  14.628  0.00  0.00    +0.000 N 
ATOM      7  C   UNL     1      48.835   9.790  15.195  0.00  0.00    +0.000 A 
ATOM      8  C   UNL     1      49.046   8.763  14.281  0.00  0.00    +0.000 A 
ATOM      9  C   UNL     1      49.612   9.375  13.101  0.00  0.00    +0.000 A 
ATOM     10  C   UNL     1      50.081   9.018  11.839  0.00  0.00    +0.000 A 
ATOM     11 CL   UNL     1      50.136   7.400  11.336  0.00  0.00    +0.000 Cl
ATOM     12  N   UNL     1      50.579   9.919  10.973  0.00  0.00    +0.000 NA
ATOM     13  C   UNL     1      50.600  11.196  11.372  0.00  0.00    +0.000 A 
ATOM     14  N   UNL     1      50.189  11.692  12.548  0.00  0.00    +0.000 NA
ATOM     15  C   UNL     1      49.709  10.739  13.367  0.00  0.00    +0.000 A 
ENDBRANCH   1   8
BRANCH   3  16
ATOM     16  C   UNL     1      46.967   5.652  14.297  0.00  0.00    +0.000 C 
BRANCH  16  17
ATOM     17  C   UNL     1      46.304   5.057  13.084  0.00  0.00    +0.000 A 
ATOM     18  C   UNL     1      45.999   3.689  13.040  0.00  0.00    +0.000 A 
ATOM     19  C   UNL     1      45.372   3.128  11.922  0.00  0.00    +0.000 A 
ATOM     20  C   UNL     1      45.054   3.931  10.829  0.00  0.00    +0.000 A 
ATOM     21  C   UNL     1      45.358   5.293  10.867  0.00  0.00    +0.000 A 
ATOM     22  C   UNL     1      45.984   5.855  11.982  0.00  0.00    +0.000 A 
BRANCH  20  23
ATOM     23  O   UNL     1      44.456   3.523   9.674  0.00  0.00    +0.000 OA
BRANCH  23  24
ATOM     24  C   UNL     1      44.856   4.142   8.453  0.00  0.00    +0.000 C 
BRANCH  24  25
ATOM     25  C   UNL     1      45.616   3.085   7.643  0.00  0.00    +0.000 C 
ATOM     26  C   UNL     1      45.871   1.821   8.480  0.00  0.00    +0.000 C 
ATOM     27  C   UNL     1      46.705   0.818   7.697  0.00  0.00    +0.000 C 
ATOM     28  O   UNL     1      47.927   1.412   7.261  0.00  0.00    +0.000 OA
ATOM     29  C   UNL     1      47.708   2.517   6.385  0.00  0.00    +0.000 C 
ATOM     30  C   UNL     1      46.942   3.625   7.099  0.00  0.00    +0.000 C 
ENDBRANCH  24  25
ENDBRANCH  23  24
ENDBRANCH  20  23
ENDBRANCH  16  17
ENDBRANCH   3  16
TORSDOF 6
ENDMDL
MODEL 8
REMARK VINA RESULT:    -6.752      2.790      3.949
REMARK INTER + INTRA:          -9.979
REMARK INTER:                  -8.981
REMARK INTRA:                  -0.998
REMARK UNBOUND:                -0.858
REMARK  Name = 
REMARK  7 active torsions:
REMARK  status: ('A' for Active; 'I' for Inactive)
REMARK    1  A    between atoms: C_1  and  N_2
REMARK    2  A    between atoms: C_4  and  C_5
REMARK    3  A    between atoms: N_7  and  C_8
REMARK    4  A    between atoms: C_8  and  C_9
REMARK    5  A    between atoms: C_12  and  O_13
REMARK    6  A    between atoms: O_13  and  C_14
REMARK    7  A    between atoms: C_14  and  C_15
REMARK                            x       y       z     vdW  Elec       q    Type
REMARK                         _______ _______ _______ _____ _____    ______ ____
ROOT
ATOM      1  C   UNL     1      48.494   5.497  17.243  0.00  0.00    +0.000 C 
ATOM      2  O   UNL     1      49.525   4.836  17.278  0.00  0.00    +0.000 OA
ATOM      3  N   UNL     1      47.496   5.244  16.326  0.00  0.00    +0.000 N 
ATOM      4  H   UNL     1      46.619   5.741  16.378  0.00  0.00    +0.000 HD
ENDROOT
BRANCH   1   8
ATOM      5  C   UNL     1      47.366   8.013  21.401  0.00  0.00    +0.000 C 
ATOM      6  N   UNL     1      47.716   7.719  20.030  0.00  0.00    +0.000 N 
ATOM      7  C   UNL     1      47.961   6.478  19.512  0.00  0.00    +0.000 A 
ATOM      8  C   UNL     1      48.236   6.610  18.155  0.00  0.00    +0.000 A 
ATOM      9  C   UNL     1      48.156   8.020  17.856  0.00  0.00    +0.000 A 
ATOM     10  C   UNL     1      48.314   8.889  16.778  0.00  0.00    +0.000 A 
ATOM     11 CL   UNL     1      48.788   8.333  15.249  0.00  0.00    +0.000 Cl
ATOM     12  N   UNL     1      48.167  10.221  16.899  0.00  0.00    +0.000 NA
ATOM     13  C   UNL     1      47.850  10.689  18.111  0.00  0.00    +0.000 A 
ATOM     14  N   UNL     1      47.668   9.985  19.237  0.00  0.00    +0.000 NA
ATOM     15  C   UNL     1      47.835   8.663  19.048  0.00  0.00    +0.000 A 
ENDBRANCH   1   8
BRANCH   3  16
ATOM     16  C   UNL     1      47.615   4.114  15.436  0.00  0.00    +0.000 C 
BRANCH  16  17
ATOM     17  C   UNL     1      46.913   4.349  14.126  0.00  0.00    +0.000 A 
ATOM     18  C   UNL     1      46.139   3.336  13.542  0.00  0.00    +0.000 A 
ATOM     19  C   UNL     1      45.474   3.548  12.330  0.00  0.00    +0.000 A 
ATOM     20  C   UNL     1      45.586   4.777  11.683  0.00  0.00    +0.000 A 
ATOM     21  C   UNL     1      46.357   5.787  12.258  0.00  0.00    +0.000 A 
ATOM     22  C   UNL     1      47.023   5.578  13.468  0.00  0.00    +0.000 A 
BRANCH  20  23
ATOM     23  O   UNL     1      45.007   5.120  10.498  0.00  0.00    +0.000 OA
BRANCH  23  24
ATOM     24  C   UNL     1      44.066   4.216   9.921  0.00  0.00    +0.000 C 
BRANCH  24  25
ATOM     25  C   UNL     1      44.768   3.532   8.742  0.00  0.00    +0.000 C 
ATOM     26  C   UNL     1      45.297   2.145   9.139  0.00  0.00    +0.000 C 
ATOM     27  C   UNL     1      46.071   1.517   7.990  0.00  0.00    +0.000 C 
ATOM     28  O   UNL     1      47.127   2.378   7.564  0.00  0.00    +0.000 OA
ATOM     29  C   UNL     1      46.641   3.628   7.079  0.00  0.00    +0.000 C 
ATOM     30  C   UNL     1      45.910   4.386   8.183  0.00  0.00    +0.000 C 
ENDBRANCH  24  25
ENDBRANCH  23  24
ENDBRANCH  20  23
ENDBRANCH  16  17
ENDBRANCH   3  16
TORSDOF 6
ENDMDL
MODEL 9
REMARK VINA RESULT:    -6.705      3.243      4.274
REMARK INTER + INTRA:          -9.916
REMARK INTER:                  -9.023
REMARK INTRA:                  -0.892
REMARK UNBOUND:                -0.858
REMARK  Name = 
REMARK  7 active torsions:
REMARK  status: ('A' for Active; 'I' for Inactive)
REMARK    1  A    between atoms: C_1  and  N_2
REMARK    2  A    between atoms: C_4  and  C_5
REMARK    3  A    between atoms: N_7  and  C_8
REMARK    4  A    between atoms: C_8  and  C_9
REMARK    5  A    between atoms: C_12  and  O_13
REMARK    6  A    between atoms: O_13  and  C_14
REMARK    7  A    between atoms: C_14  and  C_15
REMARK                            x       y       z     vdW  Elec       q    Type
REMARK                         _______ _______ _______ _____ _____    ______ ____
ROOT
ATOM      1  C   UNL     1      48.572   7.880  12.965  0.00  0.00    +0.000 C 
ATOM      2  O   UNL     1      47.735   8.773  13.038  0.00  0.00    +0.000 OA
ATOM      3  N   UNL     1      48.279   6.576  13.303  0.00  0.00    +0.000 N 
ATOM      4  H   UNL     1      48.957   5.845  13.145  0.00  0.00    +0.000 HD
ENDROOT
BRANCH   1   8
ATOM      5  C   UNL     1      52.712   7.792  10.182  0.00  0.00    +0.000 C 
ATOM      6  N   UNL     1      51.797   8.057  11.269  0.00  0.00    +0.000 N 
ATOM      7  C   UNL     1      50.473   7.718  11.306  0.00  0.00    +0.000 A 
ATOM      8  C   UNL     1      49.946   8.119  12.529  0.00  0.00    +0.000 A 
ATOM      9  C   UNL     1      51.027   8.742  13.257  0.00  0.00    +0.000 A 
ATOM     10  C   UNL     1      51.263   9.371  14.477  0.00  0.00    +0.000 A 
ATOM     11 CL   UNL     1      50.020   9.632  15.599  0.00  0.00    +0.000 Cl
ATOM     12  N   UNL     1      52.468   9.869  14.810  0.00  0.00    +0.000 NA
ATOM     13  C   UNL     1      53.452   9.727  13.914  0.00  0.00    +0.000 A 
ATOM     14  N   UNL     1      53.380   9.151  12.706  0.00  0.00    +0.000 NA
ATOM     15  C   UNL     1      52.149   8.681  12.434  0.00  0.00    +0.000 A 
ENDBRANCH   1   8
BRANCH   3  16
ATOM     16  C   UNL     1      46.928   6.219  13.665  0.00  0.00    +0.000 C 
BRANCH  16  17
ATOM     17  C   UNL     1      46.242   5.431  12.582  0.00  0.00    +0.000 A 
ATOM     18  C   UNL     1      45.756   4.142  12.840  0.00  0.00    +0.000 A 
ATOM     19  C   UNL     1      45.107   3.405  11.844  0.00  0.00    +0.000 A 
ATOM     20  C   UNL     1      44.948   3.949  10.572  0.00  0.00    +0.000 A 
ATOM     21  C   UNL     1      45.433   5.231  10.308  0.00  0.00    +0.000 A 
ATOM     22  C   UNL     1      46.081   5.969  11.301  0.00  0.00    +0.000 A 
BRANCH  20  23
ATOM     23  O   UNL     1      44.350   3.346   9.505  0.00  0.00    +0.000 OA
BRANCH  23  24
ATOM     24  C   UNL     1      44.581   3.890   8.207  0.00  0.00    +0.000 C 
BRANCH  24  25
ATOM     25  C   UNL     1      45.494   2.906   7.466  0.00  0.00    +0.000 C 
ATOM     26  C   UNL     1      45.861   1.708   8.357  0.00  0.00    +0.000 C 
ATOM     27  C   UNL     1      46.840   0.788   7.643  0.00  0.00    +0.000 C 
ATOM     28  O   UNL     1      48.001   1.510   7.233  0.00  0.00    +0.000 OA
ATOM     29  C   UNL     1      47.691   2.552   6.311  0.00  0.00    +0.000 C 
ATOM     30  C   UNL     1      46.769   3.584   6.954  0.00  0.00    +0.000 C 
ENDBRANCH  24  25
ENDBRANCH  23  24
ENDBRANCH  20  23
ENDBRANCH  16  17
ENDBRANCH   3  16
TORSDOF 6
ENDMDL
