MODEL 1
REMARK VINA RESULT:    -7.259      0.000      0.000
REMARK INTER + INTRA:          -9.542
REMARK INTER:                  -8.956
REMARK INTRA:                  -0.586
REMARK UNBOUND:                -0.586
REMARK  Name = 
REMARK  4 active torsions:
REMARK  status: ('A' for Active; 'I' for Inactive)
REMARK    1  A    between atoms: C_5  and  N_6
REMARK    2  A    between atoms: N_6  and  C_7
REMARK    3  A    between atoms: C_7  and  C_8
REMARK    4  A    between atoms: C_12  and  C_13
REMARK                            x       y       z     vdW  Elec       q    Type
REMARK                         _______ _______ _______ _____ _____    ______ ____
ROOT
ATOM      1  C   UNL     1      43.734   4.842  11.530  0.00  0.00    +0.000 C 
ATOM      2  C   UNL     1      42.461   5.282  12.253  0.00  0.00    +0.000 C 
ATOM      3  C   UNL     1      42.953   6.063  11.079  0.00  0.00    +0.000 C 
ENDROOT
BRANCH   1   4
ATOM      4  C   UNL     1      45.044   5.074  12.299  0.00  0.00    +0.000 A 
ATOM      5  C   UNL     1      45.591   4.073  13.099  0.00  0.00    +0.000 A 
ATOM      6  C   UNL     1      46.860   4.241  13.637  0.00  0.00    +0.000 A 
ATOM      7  C   UNL     1      47.563   5.408  13.364  0.00  0.00    +0.000 A 
ATOM      8  C   UNL     1      46.963   6.397  12.589  0.00  0.00    +0.000 A 
ATOM      9  N   UNL     1      45.708   6.248  12.096  0.00  0.00    +0.000 NA
BRANCH   8  10
ATOM     10  C   UNL     1      47.657   7.642  12.208  0.00  0.00    +0.000 A 
ATOM     11  C   UNL     1      47.014   8.888  12.247  0.00  0.00    +0.000 A 
ATOM     12  C   UNL     1      47.718  10.028  11.890  0.00  0.00    +0.000 A 
ATOM     13  N   UNL     1      49.008  10.023  11.499  0.00  0.00    +0.000 NA
ATOM     14  C   UNL     1      49.624   8.823  11.480  0.00  0.00    +0.000 A 
ATOM     15  C   UNL     1      49.005   7.632  11.822  0.00  0.00    +0.000 A 
ENDBRANCH   8  10
ENDBRANCH   1   4
BRANCH   1  16
ATOM     16  N   UNL     1      43.637   3.561  10.788  0.00  0.00    +0.000 N 
ATOM     17  H   UNL     1      43.581   2.751  11.400  0.00  0.00    +0.000 HD
BRANCH  16  22
ATOM     18 CL   UNL     1      47.252   2.844   6.271  0.00  0.00    +0.000 Cl
ATOM     19  C   UNL     1      46.178   3.012   7.592  0.00  0.00    +0.000 A 
ATOM     20  C   UNL     1      45.856   1.950   8.416  0.00  0.00    +0.000 A 
ATOM     21  N   UNL     1      45.007   2.065   9.475  0.00  0.00    +0.000 NA
ATOM     22  C   UNL     1      44.476   3.293   9.683  0.00  0.00    +0.000 A 
ATOM     23  C   UNL     1      44.834   4.354   8.838  0.00  0.00    +0.000 A 
ATOM     24  N   UNL     1      45.675   4.247   7.776  0.00  0.00    +0.000 NA
ENDBRANCH  16  22
ENDBRANCH   1  16
TORSDOF 4
ENDMDL
MODEL 2
REMARK VINA RESULT:    -7.237      2.037      3.581
REMARK INTER + INTRA:          -9.515
REMARK INTER:                  -9.277
REMARK INTRA:                  -0.238
REMARK UNBOUND:                -0.586
REMARK  Name = 
REMARK  4 active torsions:
REMARK  status: ('A' for Active; 'I' for Inactive)
REMARK    1  A    between atoms: C_5  and  N_6
REMARK    2  A    between atoms: N_6  and  C_7
REMARK    3  A    between atoms: C_7  and  C_8
REMARK    4  A    between atoms: C_12  and  C_13
REMARK                            x       y       z     vdW  Elec       q    Type
REMARK                         _______ _______ _______ _____ _____    ______ ____
ROOT
ATOM      1  C   UNL     1      44.005   4.790  11.776  0.00  0.00    +0.000 C 
ATOM      2  C   UNL     1      42.894   5.039  12.795  0.00  0.00    +0.000 C 
ATOM      3  C   UNL     1      42.912   5.812  11.517  0.00  0.00    +0.000 C 
ENDROOT
BRANCH   1   4
ATOM      4  C   UNL     1      45.395   5.314  12.172  0.00  0.00    +0.000 A 
ATOM      5  C   UNL     1      46.006   6.335  11.448  0.00  0.00    +0.000 A 
ATOM      6  C   UNL     1      47.175   6.912  11.929  0.00  0.00    +0.000 A 
ATOM      7  C   UNL     1      47.711   6.461  13.128  0.00  0.00    +0.000 A 
ATOM      8  C   UNL     1      47.085   5.414  13.800  0.00  0.00    +0.000 A 
ATOM      9  N   UNL     1      45.966   4.824  13.310  0.00  0.00    +0.000 NA
BRANCH   8  10
ATOM     10  C   UNL     1      47.556   4.908  15.104  0.00  0.00    +0.000 A 
ATOM     11  C   UNL     1      47.321   3.588  15.514  0.00  0.00    +0.000 A 
ATOM     12  C   UNL     1      47.797   3.162  16.744  0.00  0.00    +0.000 A 
ATOM     13  N   UNL     1      48.487   3.947  17.595  0.00  0.00    +0.000 NA
ATOM     14  C   UNL     1      48.724   5.211  17.187  0.00  0.00    +0.000 A 
ATOM     15  C   UNL     1      48.291   5.725  15.975  0.00  0.00    +0.000 A 
ENDBRANCH   8  10
ENDBRANCH   1   4
BRANCH   1  16
ATOM     16  N   UNL     1      43.978   3.464  11.112  0.00  0.00    +0.000 N 
ATOM     17  H   UNL     1      44.170   2.696  11.750  0.00  0.00    +0.000 HD
BRANCH  16  22
ATOM     18 CL   UNL     1      46.782   3.000   6.021  0.00  0.00    +0.000 Cl
ATOM     19  C   UNL     1      45.949   3.093   7.512  0.00  0.00    +0.000 A 
ATOM     20  C   UNL     1      45.861   2.015   8.372  0.00  0.00    +0.000 A 
ATOM     21  N   UNL     1      45.206   2.070   9.566  0.00  0.00    +0.000 NA
ATOM     22  C   UNL     1      44.627   3.254   9.874  0.00  0.00    +0.000 A 
ATOM     23  C   UNL     1      44.746   4.335   8.986  0.00  0.00    +0.000 A 
ATOM     24  N   UNL     1      45.391   4.286   7.791  0.00  0.00    +0.000 NA
ENDBRANCH  16  22
ENDBRANCH   1  16
TORSDOF 4
ENDMDL
MODEL 3
REMARK VINA RESULT:    -7.157      3.057      6.589
REMARK INTER + INTRA:          -9.416
REMARK INTER:                  -8.906
REMARK INTRA:                  -0.511
REMARK UNBOUND:                -0.586
REMARK  Name = 
REMARK  4 active torsions:
REMARK  status: ('A' for Active; 'I' for Inactive)
REMARK    1  A    between atoms: C_5  and  N_6
REMARK    2  A    between atoms: N_6  and  C_7
REMARK    3  A    between atoms: C_7  and  C_8
REMARK    4  A    between atoms: C_12  and  C_13
REMARK                            x       y       z     vdW  Elec       q    Type
REMARK                         _______ _______ _______ _____ _____    ______ ____
ROOT
ATOM      1  C   UNL     1      46.378   7.106  12.492  0.00  0.00    +0.000 C 
ATOM      2  C   UNL     1      46.586   8.465  11.823  0.00  0.00    +0.000 C 
ATOM      3  C   UNL     1      45.883   8.388  13.139  0.00  0.00    +0.000 C 
ENDROOT
BRANCH   1   4
ATOM      4  C   UNL     1      45.338   6.194  11.824  0.00  0.00    +0.000 A 
ATOM      5  C   UNL     1      43.976   6.374  12.056  0.00  0.00    +0.000 A 
ATOM      6  C   UNL     1      43.051   5.658  11.306  0.00  0.00    +0.000 A 
ATOM      7  C   UNL     1      43.504   4.775  10.335  0.00  0.00    +0.000 A 
ATOM      8  C   UNL     1      44.875   4.600  10.162  0.00  0.00    +0.000 A 
ATOM      9  N   UNL     1      45.777   5.271  10.921  0.00  0.00    +0.000 NA
BRANCH   8  10
ATOM     10  C   UNL     1      45.442   3.723   9.120  0.00  0.00    +0.000 A 
ATOM     11  C   UNL     1      46.093   4.240   7.991  0.00  0.00    +0.000 A 
ATOM     12  C   UNL     1      46.619   3.369   7.049  0.00  0.00    +0.000 A 
ATOM     13  N   UNL     1      46.546   2.027   7.144  0.00  0.00    +0.000 NA
ATOM     14  C   UNL     1      45.934   1.536   8.241  0.00  0.00    +0.000 A 
ATOM     15  C   UNL     1      45.381   2.327   9.236  0.00  0.00    +0.000 A 
ENDBRANCH   8  10
ENDBRANCH   1   4
BRANCH   1  16
ATOM     16  N   UNL     1      47.610   6.437  12.976  0.00  0.00    +0.000 N 
ATOM     17  H   UNL     1      48.091   5.915  12.248  0.00  0.00    +0.000 HD
BRANCH  16  22
ATOM     18 CL   UNL     1      47.610   3.118  17.769  0.00  0.00    +0.000 Cl
ATOM     19  C   UNL     1      47.617   4.128  16.388  0.00  0.00    +0.000 A 
ATOM     20  C   UNL     1      48.369   5.286  16.330  0.00  0.00    +0.000 A 
ATOM     21  N   UNL     1      48.391   6.101  15.238  0.00  0.00    +0.000 NA
ATOM     22  C   UNL     1      47.621   5.719  14.192  0.00  0.00    +0.000 A 
ATOM     23  C   UNL     1      46.880   4.529  14.276  0.00  0.00    +0.000 A 
ATOM     24  N   UNL     1      46.847   3.715  15.364  0.00  0.00    +0.000 NA
ENDBRANCH  16  22
ENDBRANCH   1  16
TORSDOF 4
ENDMDL
MODEL 4
REMARK VINA RESULT:    -6.708      1.578      2.311
REMARK INTER + INTRA:          -8.862
REMARK INTER:                  -8.914
REMARK INTRA:                   0.052
REMARK UNBOUND:                -0.586
REMARK  Name = 
REMARK  4 active torsions:
REMARK  status: ('A' for Active; 'I' for Inactive)
REMARK    1  A    between atoms: C_5  and  N_6
REMARK    2  A    between atoms: N_6  and  C_7
REMARK    3  A    between atoms: C_7  and  C_8
REMARK    4  A    between atoms: C_12  and  C_13
REMARK                            x       y       z     vdW  Elec       q    Type
REMARK                         _______ _______ _______ _____ _____    ______ ____
ROOT
ATOM      1  C   UNL     1      43.898   5.133  11.705  0.00  0.00    +0.000 C 
ATOM      2  C   UNL     1      43.602   3.915  12.580  0.00  0.00    +0.000 C 
ATOM      3  C   UNL     1      42.713   5.113  12.654  0.00  0.00    +0.000 C 
ENDROOT
BRANCH   1   4
ATOM      4  C   UNL     1      45.128   5.957  12.114  0.00  0.00    +0.000 A 
ATOM      5  C   UNL     1      46.334   5.334  12.429  0.00  0.00    +0.000 A 
ATOM      6  C   UNL     1      47.475   6.103  12.620  0.00  0.00    +0.000 A 
ATOM      7  C   UNL     1      47.391   7.484  12.490  0.00  0.00    +0.000 A 
ATOM      8  C   UNL     1      46.159   8.066  12.209  0.00  0.00    +0.000 A 
ATOM      9  N   UNL     1      45.037   7.318  12.061  0.00  0.00    +0.000 NA
BRANCH   8  10
ATOM     10  C   UNL     1      45.990   9.518  12.002  0.00  0.00    +0.000 A 
ATOM     11  C   UNL     1      44.732  10.090  11.766  0.00  0.00    +0.000 A 
ATOM     12  C   UNL     1      44.631  11.462  11.592  0.00  0.00    +0.000 A 
ATOM     13  N   UNL     1      45.681  12.304  11.634  0.00  0.00    +0.000 NA
ATOM     14  C   UNL     1      46.886  11.749  11.878  0.00  0.00    +0.000 A 
ATOM     15  C   UNL     1      47.086  10.391  12.068  0.00  0.00    +0.000 A 
ENDBRANCH   8  10
ENDBRANCH   1   4
BRANCH   1  16
ATOM     16  N   UNL     1      43.707   4.934  10.247  0.00  0.00    +0.000 N 
ATOM     17  H   UNL     1      42.746   4.717   9.999  0.00  0.00    +0.000 HD
BRANCH  16  22
ATOM     18 CL   UNL     1      47.122   1.372   7.141  0.00  0.00    +0.000 Cl
ATOM     19  C   UNL     1      46.151   2.449   8.049  0.00  0.00    +0.000 A 
ATOM     20  C   UNL     1      46.194   3.817   7.856  0.00  0.00    +0.000 A 
ATOM     21  N   UNL     1      45.426   4.690   8.566  0.00  0.00    +0.000 NA
ATOM     22  C   UNL     1      44.606   4.145   9.494  0.00  0.00    +0.000 A 
ATOM     23  C   UNL     1      44.574   2.751   9.657  0.00  0.00    +0.000 A 
ATOM     24  N   UNL     1      45.342   1.874   8.958  0.00  0.00    +0.000 NA
ENDBRANCH  16  22
ENDBRANCH   1  16
TORSDOF 4
ENDMDL
MODEL 5
REMARK VINA RESULT:    -6.675      3.149      6.608
REMARK INTER + INTRA:          -8.822
REMARK INTER:                  -8.135
REMARK INTRA:                  -0.687
REMARK UNBOUND:                -0.586
REMARK  Name = 
REMARK  4 active torsions:
REMARK  status: ('A' for Active; 'I' for Inactive)
REMARK    1  A    between atoms: C_5  and  N_6
REMARK    2  A    between atoms: N_6  and  C_7
REMARK    3  A    between atoms: C_7  and  C_8
REMARK    4  A    between atoms: C_12  and  C_13
REMARK                            x       y       z     vdW  Elec       q    Type
REMARK                         _______ _______ _______ _____ _____    ______ ____
ROOT
ATOM      1  C   UNL     1      45.824   7.447  12.500  0.00  0.00    +0.000 C 
ATOM      2  C   UNL     1      46.987   7.129  13.440  0.00  0.00    +0.000 C 
ATOM      3  C   UNL     1      47.264   7.504  12.021  0.00  0.00    +0.000 C 
ENDROOT
BRANCH   1   4
ATOM      4  C   UNL     1      44.974   6.242  12.068  0.00  0.00    +0.000 A 
ATOM      5  C   UNL     1      43.693   6.051  12.580  0.00  0.00    +0.000 A 
ATOM      6  C   UNL     1      42.879   5.061  12.043  0.00  0.00    +0.000 A 
ATOM      7  C   UNL     1      43.361   4.279  11.000  0.00  0.00    +0.000 A 
ATOM      8  C   UNL     1      44.661   4.482  10.544  0.00  0.00    +0.000 A 
ATOM      9  N   UNL     1      45.468   5.422  11.095  0.00  0.00    +0.000 NA
BRANCH   8  10
ATOM     10  C   UNL     1      45.233   3.733   9.409  0.00  0.00    +0.000 A 
ATOM     11  C   UNL     1      45.845   4.384   8.327  0.00  0.00    +0.000 A 
ATOM     12  C   UNL     1      46.377   3.630   7.293  0.00  0.00    +0.000 A 
ATOM     13  N   UNL     1      46.349   2.283   7.252  0.00  0.00    +0.000 NA
ATOM     14  C   UNL     1      45.775   1.664   8.304  0.00  0.00    +0.000 A 
ATOM     15  C   UNL     1      45.218   2.331   9.384  0.00  0.00    +0.000 A 
ENDBRANCH   8  10
ENDBRANCH   1   4
BRANCH   1  16
ATOM     16  N   UNL     1      45.076   8.690  12.807  0.00  0.00    +0.000 N 
ATOM     17  H   UNL     1      44.219   8.520  13.327  0.00  0.00    +0.000 HD
BRANCH  16  22
ATOM     18 CL   UNL     1      43.813  12.684   8.752  0.00  0.00    +0.000 Cl
ATOM     19  C   UNL     1      44.226  11.525   9.941  0.00  0.00    +0.000 A 
ATOM     20  C   UNL     1      45.259  11.728  10.836  0.00  0.00    +0.000 A 
ATOM     21  N   UNL     1      45.600  10.819  11.792  0.00  0.00    +0.000 NA
ATOM     22  C   UNL     1      44.870   9.680  11.820  0.00  0.00    +0.000 A 
ATOM     23  C   UNL     1      43.817   9.510  10.907  0.00  0.00    +0.000 A 
ATOM     24  N   UNL     1      43.475  10.408   9.946  0.00  0.00    +0.000 NA
ENDBRANCH  16  22
ENDBRANCH   1  16
TORSDOF 4
ENDMDL
MODEL 6
REMARK VINA RESULT:    -5.913      3.812      7.403
REMARK INTER + INTRA:          -7.881
REMARK INTER:                  -7.308
REMARK INTRA:                  -0.573
REMARK UNBOUND:                -0.586
REMARK  Name = 
REMARK  4 active torsions:
REMARK  status: ('A' for Active; 'I' for Inactive)
REMARK    1  A    between atoms: C_5  and  N_6
REMARK    2  A    between atoms: N_6  and  C_7
REMARK    3  A    between atoms: C_7  and  C_8
REMARK    4  A    between atoms: C_12  and  C_13
REMARK                            x       y       z     vdW  Elec       q    Type
REMARK                         _______ _______ _______ _____ _____    ______ ____
ROOT
ATOM      1  C   UNL     1      48.984   7.881  12.540  0.00  0.00    +0.000 C 
ATOM      2  C   UNL     1      49.751   8.149  11.245  0.00  0.00    +0.000 C 
ATOM      3  C   UNL     1      49.551   9.255  12.228  0.00  0.00    +0.000 C 
ENDROOT
BRANCH   1   4
ATOM      4  C   UNL     1      47.469   7.679  12.381  0.00  0.00    +0.000 A 
ATOM      5  C   UNL     1      46.571   8.669  12.772  0.00  0.00    +0.000 A 
ATOM      6  C   UNL     1      45.225   8.540  12.455  0.00  0.00    +0.000 A 
ATOM      7  C   UNL     1      44.800   7.422  11.748  0.00  0.00    +0.000 A 
ATOM      8  C   UNL     1      45.726   6.440  11.409  0.00  0.00    +0.000 A 
ATOM      9  N   UNL     1      47.034   6.549  11.753  0.00  0.00    +0.000 NA
BRANCH   8  10
ATOM     10  C   UNL     1      45.371   5.248  10.615  0.00  0.00    +0.000 A 
ATOM     11  C   UNL     1      44.671   4.169  11.174  0.00  0.00    +0.000 A 
ATOM     12  C   UNL     1      44.352   3.080  10.378  0.00  0.00    +0.000 A 
ATOM     13  N   UNL     1      44.675   2.982   9.073  0.00  0.00    +0.000 NA
ATOM     14  C   UNL     1      45.333   4.031   8.538  0.00  0.00    +0.000 A 
ATOM     15  C   UNL     1      45.692   5.163   9.252  0.00  0.00    +0.000 A 
ENDBRANCH   8  10
ENDBRANCH   1   4
BRANCH   1  16
ATOM     16  N   UNL     1      49.659   6.983  13.508  0.00  0.00    +0.000 N 
ATOM     17  H   UNL     1      49.749   6.029  13.168  0.00  0.00    +0.000 HD
BRANCH  16  22
ATOM     18 CL   UNL     1      48.047   7.400  19.096  0.00  0.00    +0.000 Cl
ATOM     19  C   UNL     1      48.536   7.236  17.464  0.00  0.00    +0.000 A 
ATOM     20  C   UNL     1      48.568   6.011  16.827  0.00  0.00    +0.000 A 
ATOM     21  N   UNL     1      48.950   5.861  15.527  0.00  0.00    +0.000 NA
ATOM     22  C   UNL     1      49.311   6.992  14.878  0.00  0.00    +0.000 A 
ATOM     23  C   UNL     1      49.254   8.224  15.548  0.00  0.00    +0.000 A 
ATOM     24  N   UNL     1      48.881   8.381  16.845  0.00  0.00    +0.000 NA
ENDBRANCH  16  22
ENDBRANCH   1  16
TORSDOF 4
ENDMDL
MODEL 7
REMARK VINA RESULT:    -5.878      3.615      5.966
REMARK INTER + INTRA:          -7.839
REMARK INTER:                  -7.283
REMARK INTRA:                  -0.555
REMARK UNBOUND:                -0.586
REMARK  Name = 
REMARK  4 active torsions:
REMARK  status: ('A' for Active; 'I' for Inactive)
REMARK    1  A    between atoms: C_5  and  N_6
REMARK    2  A    between atoms: N_6  and  C_7
REMARK    3  A    between atoms: C_7  and  C_8
REMARK    4  A    between atoms: C_12  and  C_13
REMARK                            x       y       z     vdW  Elec       q    Type
REMARK                         _______ _______ _______ _____ _____    ______ ____
ROOT
ATOM      1  C   UNL     1      47.452   7.851  12.933  0.00  0.00    +0.000 C 
ATOM      2  C   UNL     1      48.100   8.799  11.924  0.00  0.00    +0.000 C 
ATOM      3  C   UNL     1      48.313   7.326  11.797  0.00  0.00    +0.000 C 
ENDROOT
BRANCH   1   4
ATOM      4  C   UNL     1      48.062   7.869  14.343  0.00  0.00    +0.000 A 
ATOM      5  C   UNL     1      48.120   9.048  15.082  0.00  0.00    +0.000 A 
ATOM      6  C   UNL     1      48.508   9.005  16.415  0.00  0.00    +0.000 A 
ATOM      7  C   UNL     1      48.829   7.782  16.988  0.00  0.00    +0.000 A 
ATOM      8  C   UNL     1      48.791   6.633  16.203  0.00  0.00    +0.000 A 
ATOM      9  N   UNL     1      48.449   6.680  14.891  0.00  0.00    +0.000 NA
BRANCH   8  10
ATOM     10  C   UNL     1      49.066   5.287  16.743  0.00  0.00    +0.000 A 
ATOM     11  C   UNL     1      50.296   4.963  17.333  0.00  0.00    +0.000 A 
ATOM     12  C   UNL     1      50.495   3.687  17.835  0.00  0.00    +0.000 A 
ATOM     13  N   UNL     1      49.567   2.711  17.797  0.00  0.00    +0.000 NA
ATOM     14  C   UNL     1      48.380   3.034  17.243  0.00  0.00    +0.000 A 
ATOM     15  C   UNL     1      48.087   4.283  16.718  0.00  0.00    +0.000 A 
ENDBRANCH   8  10
ENDBRANCH   1   4
BRANCH   1  16
ATOM     16  N   UNL     1      45.973   7.762  12.868  0.00  0.00    +0.000 N 
ATOM     17  H   UNL     1      45.515   8.181  13.673  0.00  0.00    +0.000 HD
BRANCH  16  22
ATOM     18 CL   UNL     1      43.264   2.720  11.756  0.00  0.00    +0.000 Cl
ATOM     19  C   UNL     1      44.061   4.208  12.038  0.00  0.00    +0.000 A 
ATOM     20  C   UNL     1      43.922   5.288  11.188  0.00  0.00    +0.000 A 
ATOM     21  N   UNL     1      44.545   6.481  11.398  0.00  0.00    +0.000 NA
ATOM     22  C   UNL     1      45.329   6.559  12.499  0.00  0.00    +0.000 A 
ATOM     23  C   UNL     1      45.438   5.450  13.351  0.00  0.00    +0.000 A 
ATOM     24  N   UNL     1      44.826   4.254  13.145  0.00  0.00    +0.000 NA
ENDBRANCH  16  22
ENDBRANCH   1  16
TORSDOF 4
ENDMDL
MODEL 8
REMARK VINA RESULT:    -5.786      5.623      8.738
REMARK INTER + INTRA:          -7.725
REMARK INTER:                  -7.206
REMARK INTRA:                  -0.519
REMARK UNBOUND:                -0.586
REMARK  Name = 
REMARK  4 active torsions:
REMARK  status: ('A' for Active; 'I' for Inactive)
REMARK    1  A    between atoms: C_5  and  N_6
REMARK    2  A    between atoms: N_6  and  C_7
REMARK    3  A    between atoms: C_7  and  C_8
REMARK    4  A    between atoms: C_12  and  C_13
REMARK                            x       y       z     vdW  Elec       q    Type
REMARK                         _______ _______ _______ _____ _____    ______ ____
ROOT
ATOM      1  C   UNL     1      47.893   4.181  16.966  0.00  0.00    +0.000 C 
ATOM      2  C   UNL     1      48.120   2.685  16.756  0.00  0.00    +0.000 C 
ATOM      3  C   UNL     1      49.278   3.569  17.087  0.00  0.00    +0.000 C 
ENDROOT
BRANCH   1   4
ATOM      4  C   UNL     1      47.576   4.986  15.696  0.00  0.00    +0.000 A 
ATOM      5  C   UNL     1      48.435   5.989  15.252  0.00  0.00    +0.000 A 
ATOM      6  C   UNL     1      48.222   6.576  14.012  0.00  0.00    +0.000 A 
ATOM      7  C   UNL     1      47.153   6.150  13.234  0.00  0.00    +0.000 A 
ATOM      8  C   UNL     1      46.299   5.170  13.733  0.00  0.00    +0.000 A 
ATOM      9  N   UNL     1      46.485   4.624  14.961  0.00  0.00    +0.000 NA
BRANCH   8  10
ATOM     10  C   UNL     1      45.172   4.621  12.954  0.00  0.00    +0.000 A 
ATOM     11  C   UNL     1      43.931   5.271  12.891  0.00  0.00    +0.000 A 
ATOM     12  C   UNL     1      42.911   4.718  12.133  0.00  0.00    +0.000 A 
ATOM     13  N   UNL     1      43.030   3.570  11.437  0.00  0.00    +0.000 NA
ATOM     14  C   UNL     1      44.231   2.959  11.489  0.00  0.00    +0.000 A 
ATOM     15  C   UNL     1      45.310   3.438  12.215  0.00  0.00    +0.000 A 
ENDBRANCH   8  10
ENDBRANCH   1   4
BRANCH   1  16
ATOM     16  N   UNL     1      47.116   4.546  18.175  0.00  0.00    +0.000 N 
ATOM     17  H   UNL     1      46.135   4.727  17.977  0.00  0.00    +0.000 HD
BRANCH  16  22
ATOM     18 CL   UNL     1      48.838   8.652  21.940  0.00  0.00    +0.000 Cl
ATOM     19  C   UNL     1      48.368   7.422  20.848  0.00  0.00    +0.000 A 
ATOM     20  C   UNL     1      48.622   6.086  21.093  0.00  0.00    +0.000 A 
ATOM     21  N   UNL     1      48.251   5.092  20.237  0.00  0.00    +0.000 NA
ATOM     22  C   UNL     1      47.615   5.483  19.109  0.00  0.00    +0.000 A 
ATOM     23  C   UNL     1      47.358   6.846  18.896  0.00  0.00    +0.000 A 
ATOM     24  N   UNL     1      47.730   7.844  19.740  0.00  0.00    +0.000 NA
ENDBRANCH  16  22
ENDBRANCH   1  16
TORSDOF 4
ENDMDL
MODEL 9
REMARK VINA RESULT:    -5.645      2.795      6.555
REMARK INTER + INTRA:          -7.551
REMARK INTER:                  -7.062
REMARK INTRA:                  -0.488
REMARK UNBOUND:                -0.586
REMARK  Name = 
REMARK  4 active torsions:
REMARK  status: ('A' for Active; 'I' for Inactive)
REMARK    1  A    between atoms: C_5  and  N_6
REMARK    2  A    between atoms: N_6  and  C_7
REMARK    3  A    between atoms: C_7  and  C_8
REMARK    4  A    between atoms: C_12  and  C_13
REMARK                            x       y       z     vdW  Elec       q    Type
REMARK                         _______ _______ _______ _____ _____    ______ ____
ROOT
ATOM      1  C   UNL     1      48.136   8.440  12.762  0.00  0.00    +0.000 C 
ATOM      2  C   UNL     1      49.612   8.806  12.906  0.00  0.00    +0.000 C 
ATOM      3  C   UNL     1      49.045   8.541  11.550  0.00  0.00    +0.000 C 
ENDROOT
BRANCH   1   4
ATOM      4  C   UNL     1      47.752   7.035  13.253  0.00  0.00    +0.000 A 
ATOM      5  C   UNL     1      48.201   6.561  14.484  0.00  0.00    +0.000 A 
ATOM      6  C   UNL     1      47.697   5.367  14.985  0.00  0.00    +0.000 A 
ATOM      7  C   UNL     1      46.750   4.668  14.247  0.00  0.00    +0.000 A 
ATOM      8  C   UNL     1      46.357   5.161  13.006  0.00  0.00    +0.000 A 
ATOM      9  N   UNL     1      46.878   6.307  12.500  0.00  0.00    +0.000 NA
BRANCH   8  10
ATOM     10  C   UNL     1      45.320   4.511  12.181  0.00  0.00    +0.000 A 
ATOM     11  C   UNL     1      45.098   4.880  10.846  0.00  0.00    +0.000 A 
ATOM     12  C   UNL     1      44.119   4.227  10.114  0.00  0.00    +0.000 A 
ATOM     13  N   UNL     1      43.347   3.239  10.606  0.00  0.00    +0.000 NA
ATOM     14  C   UNL     1      43.577   2.878  11.885  0.00  0.00    +0.000 A 
ATOM     15  C   UNL     1      44.534   3.469  12.694  0.00  0.00    +0.000 A 
ENDBRANCH   8  10
ENDBRANCH   1   4
BRANCH   1  16
ATOM     16  N   UNL     1      47.174   9.523  13.083  0.00  0.00    +0.000 N 
ATOM     17  H   UNL     1      46.738   9.409  13.994  0.00  0.00    +0.000 HD
BRANCH  16  22
ATOM     18 CL   UNL     1      42.971  11.176   9.397  0.00  0.00    +0.000 Cl
ATOM     19  C   UNL     1      44.234  10.712  10.452  0.00  0.00    +0.000 A 
ATOM     20  C   UNL     1      45.365  11.486  10.629  0.00  0.00    +0.000 A 
ATOM     21  N   UNL     1      46.379  11.136  11.469  0.00  0.00    +0.000 NA
ATOM     22  C   UNL     1      46.228   9.965  12.130  0.00  0.00    +0.000 A 
ATOM     23  C   UNL     1      45.062   9.208  11.941  0.00  0.00    +0.000 A 
ATOM     24  N   UNL     1      44.049   9.547  11.101  0.00  0.00    +0.000 NA
ENDBRANCH  16  22
ENDBRANCH   1  16
TORSDOF 4
ENDMDL
