MODEL 1
REMARK VINA RESULT:    -9.443      0.000      0.000
REMARK INTER + INTRA:         -14.349
REMARK INTER:                 -13.031
REMARK INTRA:                  -1.319
REMARK UNBOUND:                -1.319
REMARK  Name = 
REMARK  8 active torsions:
REMARK  status: ('A' for Active; 'I' for Inactive)
REMARK    1  A    between atoms: C_1  and  C_2
REMARK    2  A    between atoms: C_2  and  N_3
REMARK    3  A    between atoms: C_2  and  C_16
REMARK    4  A    between atoms: C_4  and  C_6
REMARK    5  A    between atoms: C_19  and  O_20
REMARK    6  A    between atoms: C_21  and  C_22
REMARK    7  A    between atoms: C_22  and  N_23
REMARK    8  A    between atoms: C_24  and  C_26
REMARK                            x       y       z     vdW  Elec       q    Type
REMARK                         _______ _______ _______ _____ _____    ______ ____
ROOT
ATOM      1  C   UNL     1      45.575   5.820  12.391  0.00  0.00    +0.000 A 
ATOM      2  C   UNL     1      45.163   4.867  13.331  0.00  0.00    +0.000 A 
ATOM      3  C   UNL     1      44.260   3.862  12.976  0.00  0.00    +0.000 A 
ATOM      4  C   UNL     1      43.768   3.794  11.672  0.00  0.00    +0.000 A 
ATOM      5  C   UNL     1      44.176   4.711  10.700  0.00  0.00    +0.000 A 
ATOM      6  C   UNL     1      45.069   5.731  11.080  0.00  0.00    +0.000 A 
ENDROOT
BRANCH   1   8
ATOM      7  C   UNL     1      45.877   8.307  12.645  0.00  0.00    +0.000 C 
ATOM      8  C   UNL     1      46.536   6.930  12.801  0.00  0.00    +0.000 C 
BRANCH   8   9
ATOM      9  N   UNL     1      47.015   6.690  14.153  0.00  0.00    +0.000 N 
ATOM     10  C   UNL     1      48.342   6.509  14.448  0.00  0.00    +0.000 C 
ATOM     11  O   UNL     1      49.226   6.579  13.598  0.00  0.00    +0.000 OA
ATOM     12  H   UNL     1      46.324   6.365  14.824  0.00  0.00    +0.000 HD
BRANCH  10  13
ATOM     13  C   UNL     1      48.676   6.277  15.855  0.00  0.00    +0.000 A 
ATOM     14  C   UNL     1      49.306   7.274  16.587  0.00  0.00    +0.000 A 
ATOM     15  S   UNL     1      49.645   6.830  18.197  0.00  0.00    +0.000 S 
ATOM     16  C   UNL     1      48.993   5.274  17.962  0.00  0.00    +0.000 A 
ATOM     17  N   UNL     1      49.019   4.347  18.956  0.00  0.00    +0.000 NA
ATOM     18  C   UNL     1      48.518   3.202  18.627  0.00  0.00    +0.000 A 
ATOM     19  N   UNL     1      47.983   2.908  17.401  0.00  0.00    +0.000 N 
ATOM     20  C   UNL     1      47.907   3.820  16.376  0.00  0.00    +0.000 A 
ATOM     21  O   UNL     1      47.379   3.539  15.304  0.00  0.00    +0.000 OA
ATOM     22  C   UNL     1      48.486   5.111  16.685  0.00  0.00    +0.000 A 
ATOM     23  H   UNL     1      47.585   1.996  17.216  0.00  0.00    +0.000 HD
ENDBRANCH  10  13
ENDBRANCH   8   9
ENDBRANCH   1   8
BRANCH   4  24
ATOM     24  O   UNL     1      42.877   2.813  11.332  0.00  0.00    +0.000 OA
ATOM     25  H   UNL     1      42.582   2.373  12.146  0.00  0.00    +0.000 HD
ENDBRANCH   4  24
BRANCH   5  26
ATOM     26  C   UNL     1      43.705   4.631   9.269  0.00  0.00    +0.000 C 
BRANCH  26  27
ATOM     27  N   UNL     1      44.434   3.654   8.488  0.00  0.00    +0.000 N 
ATOM     28  C   UNL     1      45.676   3.915   7.951  0.00  0.00    +0.000 C 
ATOM     29  O   UNL     1      46.262   4.985   8.082  0.00  0.00    +0.000 OA
ATOM     30  H   UNL     1      44.045   2.724   8.455  0.00  0.00    +0.000 HD
BRANCH  28  31
ATOM     31  C   UNL     1      46.324   2.800   7.200  0.00  0.00    +0.000 A 
ATOM     32  C   UNL     1      46.580   1.554   7.787  0.00  0.00    +0.000 A 
ATOM     33  C   UNL     1      47.166   0.530   7.037  0.00  0.00    +0.000 A 
ATOM     34  C   UNL     1      47.493   0.742   5.699  0.00  0.00    +0.000 A 
ATOM     35  C   UNL     1      47.237   1.976   5.104  0.00  0.00    +0.000 A 
ATOM     36  C   UNL     1      46.652   3.002   5.852  0.00  0.00    +0.000 A 
ENDBRANCH  28  31
ENDBRANCH  26  27
ENDBRANCH   5  26
TORSDOF 7
ENDMDL
MODEL 2
REMARK VINA RESULT:    -9.096      0.953      1.377
REMARK INTER + INTRA:         -13.871
REMARK INTER:                 -12.669
REMARK INTRA:                  -1.203
REMARK UNBOUND:                -1.319
REMARK  Name = 
REMARK  8 active torsions:
REMARK  status: ('A' for Active; 'I' for Inactive)
REMARK    1  A    between atoms: C_1  and  C_2
REMARK    2  A    between atoms: C_2  and  N_3
REMARK    3  A    between atoms: C_2  and  C_16
REMARK    4  A    between atoms: C_4  and  C_6
REMARK    5  A    between atoms: C_19  and  O_20
REMARK    6  A    between atoms: C_21  and  C_22
REMARK    7  A    between atoms: C_22  and  N_23
REMARK    8  A    between atoms: C_24  and  C_26
REMARK                            x       y       z     vdW  Elec       q    Type
REMARK                         _______ _______ _______ _____ _____    ______ ____
ROOT
ATOM      1  C   UNL     1      46.202   6.166  12.723  0.00  0.00    +0.000 A 
ATOM      2  C   UNL     1      46.350   5.101  13.621  0.00  0.00    +0.000 A 
ATOM      3  C   UNL     1      45.721   3.876  13.382  0.00  0.00    +0.000 A 
ATOM      4  C   UNL     1      44.945   3.703  12.236  0.00  0.00    +0.000 A 
ATOM      5  C   UNL     1      44.794   4.734  11.304  0.00  0.00    +0.000 A 
ATOM      6  C   UNL     1      45.416   5.968  11.572  0.00  0.00    +0.000 A 
ENDROOT
BRANCH   1   8
ATOM      7  C   UNL     1      45.911   8.668  12.711  0.00  0.00    +0.000 C 
ATOM      8  C   UNL     1      46.866   7.507  13.013  0.00  0.00    +0.000 C 
BRANCH   8   9
ATOM      9  N   UNL     1      47.353   7.527  14.384  0.00  0.00    +0.000 N 
ATOM     10  C   UNL     1      48.636   7.178  14.720  0.00  0.00    +0.000 C 
ATOM     11  O   UNL     1      49.479   6.864  13.884  0.00  0.00    +0.000 OA
ATOM     12  H   UNL     1      46.645   7.517  15.113  0.00  0.00    +0.000 HD
BRANCH  10  13
ATOM     13  C   UNL     1      48.983   7.247  16.142  0.00  0.00    +0.000 A 
ATOM     14  C   UNL     1      49.354   8.462  16.701  0.00  0.00    +0.000 A 
ATOM     15  S   UNL     1      49.750   8.359  18.356  0.00  0.00    +0.000 S 
ATOM     16  C   UNL     1      49.474   6.679  18.373  0.00  0.00    +0.000 A 
ATOM     17  N   UNL     1      49.689   5.947  19.499  0.00  0.00    +0.000 NA
ATOM     18  C   UNL     1      49.468   4.681  19.358  0.00  0.00    +0.000 A 
ATOM     19  N   UNL     1      49.041   4.087  18.199  0.00  0.00    +0.000 N 
ATOM     20  C   UNL     1      48.782   4.790  17.047  0.00  0.00    +0.000 A 
ATOM     21  O   UNL     1      48.355   4.234  16.039  0.00  0.00    +0.000 OA
ATOM     22  C   UNL     1      49.046   6.210  17.144  0.00  0.00    +0.000 A 
ATOM     23  H   UNL     1      48.865   3.091  18.163  0.00  0.00    +0.000 HD
ENDBRANCH  10  13
ENDBRANCH   8   9
ENDBRANCH   1   8
BRANCH   4  24
ATOM     24  O   UNL     1      44.325   2.504  12.012  0.00  0.00    +0.000 OA
ATOM     25  H   UNL     1      44.627   2.158  11.157  0.00  0.00    +0.000 HD
ENDBRANCH   4  24
BRANCH   5  26
ATOM     26  C   UNL     1      44.007   4.558  10.030  0.00  0.00    +0.000 C 
BRANCH  26  27
ATOM     27  N   UNL     1      44.639   3.649   9.097  0.00  0.00    +0.000 N 
ATOM     28  C   UNL     1      45.689   4.030   8.290  0.00  0.00    +0.000 C 
ATOM     29  O   UNL     1      46.170   5.158   8.288  0.00  0.00    +0.000 OA
ATOM     30  H   UNL     1      44.355   2.683   9.149  0.00  0.00    +0.000 HD
BRANCH  28  31
ATOM     31  C   UNL     1      46.264   2.976   7.403  0.00  0.00    +0.000 A 
ATOM     32  C   UNL     1      46.614   3.231   6.071  0.00  0.00    +0.000 A 
ATOM     33  C   UNL     1      47.173   2.219   5.285  0.00  0.00    +0.000 A 
ATOM     34  C   UNL     1      47.391   0.953   5.825  0.00  0.00    +0.000 A 
ATOM     35  C   UNL     1      47.051   0.691   7.151  0.00  0.00    +0.000 A 
ATOM     36  C   UNL     1      46.492   1.701   7.939  0.00  0.00    +0.000 A 
ENDBRANCH  28  31
ENDBRANCH  26  27
ENDBRANCH   5  26
TORSDOF 7
ENDMDL
MODEL 3
REMARK VINA RESULT:    -8.669      1.845      2.337
REMARK INTER + INTRA:         -13.282
REMARK INTER:                 -12.075
REMARK INTRA:                  -1.208
REMARK UNBOUND:                -1.319
REMARK  Name = 
REMARK  8 active torsions:
REMARK  status: ('A' for Active; 'I' for Inactive)
REMARK    1  A    between atoms: C_1  and  C_2
REMARK    2  A    between atoms: C_2  and  N_3
REMARK    3  A    between atoms: C_2  and  C_16
REMARK    4  A    between atoms: C_4  and  C_6
REMARK    5  A    between atoms: C_19  and  O_20
REMARK    6  A    between atoms: C_21  and  C_22
REMARK    7  A    between atoms: C_22  and  N_23
REMARK    8  A    between atoms: C_24  and  C_26
REMARK                            x       y       z     vdW  Elec       q    Type
REMARK                         _______ _______ _______ _____ _____    ______ ____
ROOT
ATOM      1  C   UNL     1      46.732   6.309  12.739  0.00  0.00    +0.000 A 
ATOM      2  C   UNL     1      45.981   7.458  12.456  0.00  0.00    +0.000 A 
ATOM      3  C   UNL     1      44.758   7.361  11.786  0.00  0.00    +0.000 A 
ATOM      4  C   UNL     1      44.271   6.112  11.400  0.00  0.00    +0.000 A 
ATOM      5  C   UNL     1      44.979   4.942  11.687  0.00  0.00    +0.000 A 
ATOM      6  C   UNL     1      46.219   5.059  12.343  0.00  0.00    +0.000 A 
ENDROOT
BRANCH   1   8
ATOM      7  C   UNL     1      49.060   7.261  12.602  0.00  0.00    +0.000 C 
ATOM      8  C   UNL     1      48.079   6.432  13.441  0.00  0.00    +0.000 C 
BRANCH   8   9
ATOM      9  N   UNL     1      47.888   6.977  14.776  0.00  0.00    +0.000 N 
ATOM     10  C   UNL     1      48.771   6.753  15.801  0.00  0.00    +0.000 C 
ATOM     11  O   UNL     1      49.808   6.112  15.655  0.00  0.00    +0.000 OA
ATOM     12  H   UNL     1      46.945   7.276  15.010  0.00  0.00    +0.000 HD
BRANCH  10  13
ATOM     13  C   UNL     1      48.448   7.367  17.092  0.00  0.00    +0.000 A 
ATOM     14  C   UNL     1      48.579   8.739  17.253  0.00  0.00    +0.000 A 
ATOM     15  S   UNL     1      48.187   9.283  18.821  0.00  0.00    +0.000 S 
ATOM     16  C   UNL     1      47.864   7.696  19.348  0.00  0.00    +0.000 A 
ATOM     17  N   UNL     1      47.522   7.446  20.640  0.00  0.00    +0.000 NA
ATOM     18  C   UNL     1      47.336   6.194  20.906  0.00  0.00    +0.000 A 
ATOM     19  N   UNL     1      47.449   5.178  19.995  0.00  0.00    +0.000 N 
ATOM     20  C   UNL     1      47.761   5.385  18.673  0.00  0.00    +0.000 A 
ATOM     21  O   UNL     1      47.809   4.457  17.872  0.00  0.00    +0.000 OA
ATOM     22  C   UNL     1      48.012   6.770  18.332  0.00  0.00    +0.000 A 
ATOM     23  H   UNL     1      47.266   4.220  20.265  0.00  0.00    +0.000 HD
ENDBRANCH  10  13
ENDBRANCH   8   9
ENDBRANCH   1   8
BRANCH   4  24
ATOM     24  O   UNL     1      43.078   6.025  10.737  0.00  0.00    +0.000 OA
ATOM     25  H   UNL     1      43.226   6.261   9.807  0.00  0.00    +0.000 HD
ENDBRANCH   4  24
BRANCH   5  26
ATOM     26  C   UNL     1      44.452   3.575  11.332  0.00  0.00    +0.000 C 
BRANCH  26  27
ATOM     27  N   UNL     1      45.184   2.951  10.249  0.00  0.00    +0.000 N 
ATOM     28  C   UNL     1      45.028   3.331   8.934  0.00  0.00    +0.000 C 
ATOM     29  O   UNL     1      44.260   4.216   8.570  0.00  0.00    +0.000 OA
ATOM     30  H   UNL     1      45.910   2.303  10.514  0.00  0.00    +0.000 HD
BRANCH  28  31
ATOM     31  C   UNL     1      45.876   2.624   7.931  0.00  0.00    +0.000 A 
ATOM     32  C   UNL     1      46.306   1.303   8.116  0.00  0.00    +0.000 A 
ATOM     33  C   UNL     1      47.079   0.672   7.136  0.00  0.00    +0.000 A 
ATOM     34  C   UNL     1      47.420   1.352   5.968  0.00  0.00    +0.000 A 
ATOM     35  C   UNL     1      46.991   2.664   5.772  0.00  0.00    +0.000 A 
ATOM     36  C   UNL     1      46.219   3.297   6.750  0.00  0.00    +0.000 A 
ENDBRANCH  28  31
ENDBRANCH  26  27
ENDBRANCH   5  26
TORSDOF 7
ENDMDL
MODEL 4
REMARK VINA RESULT:    -8.554      2.364      3.420
REMARK INTER + INTRA:         -13.124
REMARK INTER:                 -11.670
REMARK INTRA:                  -1.454
REMARK UNBOUND:                -1.319
REMARK  Name = 
REMARK  8 active torsions:
REMARK  status: ('A' for Active; 'I' for Inactive)
REMARK    1  A    between atoms: C_1  and  C_2
REMARK    2  A    between atoms: C_2  and  N_3
REMARK    3  A    between atoms: C_2  and  C_16
REMARK    4  A    between atoms: C_4  and  C_6
REMARK    5  A    between atoms: C_19  and  O_20
REMARK    6  A    between atoms: C_21  and  C_22
REMARK    7  A    between atoms: C_22  and  N_23
REMARK    8  A    between atoms: C_24  and  C_26
REMARK                            x       y       z     vdW  Elec       q    Type
REMARK                         _______ _______ _______ _____ _____    ______ ____
ROOT
ATOM      1  C   UNL     1      46.832   6.340  12.928  0.00  0.00    +0.000 A 
ATOM      2  C   UNL     1      46.107   7.500  12.627  0.00  0.00    +0.000 A 
ATOM      3  C   UNL     1      44.898   7.423  11.931  0.00  0.00    +0.000 A 
ATOM      4  C   UNL     1      44.397   6.181  11.538  0.00  0.00    +0.000 A 
ATOM      5  C   UNL     1      45.079   5.000  11.844  0.00  0.00    +0.000 A 
ATOM      6  C   UNL     1      46.307   5.098  12.525  0.00  0.00    +0.000 A 
ENDROOT
BRANCH   1   8
ATOM      7  C   UNL     1      49.160   7.299  12.865  0.00  0.00    +0.000 C 
ATOM      8  C   UNL     1      48.165   6.442  13.659  0.00  0.00    +0.000 C 
BRANCH   8   9
ATOM      9  N   UNL     1      47.950   6.944  15.007  0.00  0.00    +0.000 N 
ATOM     10  C   UNL     1      48.780   6.636  16.054  0.00  0.00    +0.000 C 
ATOM     11  O   UNL     1      49.789   5.950  15.921  0.00  0.00    +0.000 OA
ATOM     12  H   UNL     1      47.014   7.280  15.218  0.00  0.00    +0.000 HD
BRANCH  10  13
ATOM     13  C   UNL     1      48.436   7.214  17.356  0.00  0.00    +0.000 A 
ATOM     14  C   UNL     1      48.319   6.389  18.466  0.00  0.00    +0.000 A 
ATOM     15  S   UNL     1      47.889   7.219  19.892  0.00  0.00    +0.000 S 
ATOM     16  C   UNL     1      47.810   8.706  19.066  0.00  0.00    +0.000 A 
ATOM     17  N   UNL     1      47.433   9.844  19.709  0.00  0.00    +0.000 NA
ATOM     18  C   UNL     1      47.388  10.891  18.952  0.00  0.00    +0.000 A 
ATOM     19  N   UNL     1      47.697  10.903  17.617  0.00  0.00    +0.000 N 
ATOM     20  C   UNL     1      48.112   9.786  16.933  0.00  0.00    +0.000 A 
ATOM     21  O   UNL     1      48.426   9.840  15.747  0.00  0.00    +0.000 OA
ATOM     22  C   UNL     1      48.147   8.578  17.731  0.00  0.00    +0.000 A 
ATOM     23  H   UNL     1      47.663  11.764  17.087  0.00  0.00    +0.000 HD
ENDBRANCH  10  13
ENDBRANCH   8   9
ENDBRANCH   1   8
BRANCH   4  24
ATOM     24  O   UNL     1      43.217   6.112  10.850  0.00  0.00    +0.000 OA
ATOM     25  H   UNL     1      42.552   5.697  11.422  0.00  0.00    +0.000 HD
ENDBRANCH   4  24
BRANCH   5  26
ATOM     26  C   UNL     1      44.536   3.641  11.480  0.00  0.00    +0.000 C 
BRANCH  26  27
ATOM     27  N   UNL     1      45.250   3.022  10.383  0.00  0.00    +0.000 N 
ATOM     28  C   UNL     1      45.017   3.356   9.067  0.00  0.00    +0.000 C 
ATOM     29  O   UNL     1      44.192   4.192   8.714  0.00  0.00    +0.000 OA
ATOM     30  H   UNL     1      46.018   2.418  10.632  0.00  0.00    +0.000 HD
BRANCH  28  31
ATOM     31  C   UNL     1      45.855   2.662   8.045  0.00  0.00    +0.000 A 
ATOM     32  C   UNL     1      46.272   1.333   8.201  0.00  0.00    +0.000 A 
ATOM     33  C   UNL     1      47.035   0.715   7.205  0.00  0.00    +0.000 A 
ATOM     34  C   UNL     1      47.379   1.416   6.050  0.00  0.00    +0.000 A 
ATOM     35  C   UNL     1      46.963   2.736   5.884  0.00  0.00    +0.000 A 
ATOM     36  C   UNL     1      46.200   3.357   6.878  0.00  0.00    +0.000 A 
ENDBRANCH  28  31
ENDBRANCH  26  27
ENDBRANCH   5  26
TORSDOF 7
ENDMDL
MODEL 5
REMARK VINA RESULT:    -8.540      4.273      6.842
REMARK INTER + INTRA:         -13.104
REMARK INTER:                 -11.549
REMARK INTRA:                  -1.556
REMARK UNBOUND:                -1.319
REMARK  Name = 
REMARK  8 active torsions:
REMARK  status: ('A' for Active; 'I' for Inactive)
REMARK    1  A    between atoms: C_1  and  C_2
REMARK    2  A    between atoms: C_2  and  N_3
REMARK    3  A    between atoms: C_2  and  C_16
REMARK    4  A    between atoms: C_4  and  C_6
REMARK    5  A    between atoms: C_19  and  O_20
REMARK    6  A    between atoms: C_21  and  C_22
REMARK    7  A    between atoms: C_22  and  N_23
REMARK    8  A    between atoms: C_24  and  C_26
REMARK                            x       y       z     vdW  Elec       q    Type
REMARK                         _______ _______ _______ _____ _____    ______ ____
ROOT
ATOM      1  C   UNL     1      45.389   6.697  12.503  0.00  0.00    +0.000 A 
ATOM      2  C   UNL     1      46.000   5.749  13.332  0.00  0.00    +0.000 A 
ATOM      3  C   UNL     1      45.851   4.382  13.081  0.00  0.00    +0.000 A 
ATOM      4  C   UNL     1      45.094   3.952  11.990  0.00  0.00    +0.000 A 
ATOM      5  C   UNL     1      44.491   4.869  11.125  0.00  0.00    +0.000 A 
ATOM      6  C   UNL     1      44.633   6.241  11.406  0.00  0.00    +0.000 A 
ENDROOT
BRANCH   1   8
ATOM      7  C   UNL     1      46.890   8.478  13.462  0.00  0.00    +0.000 C 
ATOM      8  C   UNL     1      45.534   8.184  12.807  0.00  0.00    +0.000 C 
BRANCH   8   9
ATOM      9  N   UNL     1      45.321   8.956  11.594  0.00  0.00    +0.000 N 
ATOM     10  C   UNL     1      44.469  10.031  11.539  0.00  0.00    +0.000 C 
ATOM     11  O   UNL     1      43.858  10.443  12.521  0.00  0.00    +0.000 OA
ATOM     12  H   UNL     1      45.584   8.506  10.721  0.00  0.00    +0.000 HD
BRANCH  10  13
ATOM     13  C   UNL     1      44.356  10.713  10.248  0.00  0.00    +0.000 A 
ATOM     14  C   UNL     1      43.176  10.623   9.523  0.00  0.00    +0.000 A 
ATOM     15  S   UNL     1      43.222  11.451   8.034  0.00  0.00    +0.000 S 
ATOM     16  C   UNL     1      44.837  11.929   8.290  0.00  0.00    +0.000 A 
ATOM     17  N   UNL     1      45.514  12.637   7.347  0.00  0.00    +0.000 NA
ATOM     18  C   UNL     1      46.739  12.904   7.662  0.00  0.00    +0.000 A 
ATOM     19  N   UNL     1      47.340  12.538   8.838  0.00  0.00    +0.000 N 
ATOM     20  C   UNL     1      46.687  11.850   9.832  0.00  0.00    +0.000 A 
ATOM     21  O   UNL     1      47.240  11.578  10.894  0.00  0.00    +0.000 OA
ATOM     22  C   UNL     1      45.319  11.498   9.513  0.00  0.00    +0.000 A 
ATOM     23  H   UNL     1      48.298  12.800   9.032  0.00  0.00    +0.000 HD
ENDBRANCH  10  13
ENDBRANCH   8   9
ENDBRANCH   1   8
BRANCH   4  24
ATOM     24  O   UNL     1      44.944   2.613  11.755  0.00  0.00    +0.000 OA
ATOM     25  H   UNL     1      45.201   2.130  12.557  0.00  0.00    +0.000 HD
ENDBRANCH   4  24
BRANCH   5  26
ATOM     26  C   UNL     1      43.714   4.435   9.908  0.00  0.00    +0.000 C 
BRANCH  26  27
ATOM     27  N   UNL     1      44.451   3.517   9.065  0.00  0.00    +0.000 N 
ATOM     28  C   UNL     1      45.513   3.919   8.285  0.00  0.00    +0.000 C 
ATOM     29  O   UNL     1      45.918   5.076   8.233  0.00  0.00    +0.000 OA
ATOM     30  H   UNL     1      44.230   2.538   9.167  0.00  0.00    +0.000 HD
BRANCH  28  31
ATOM     31  C   UNL     1      46.201   2.856   7.496  0.00  0.00    +0.000 A 
ATOM     32  C   UNL     1      46.433   1.575   8.014  0.00  0.00    +0.000 A 
ATOM     33  C   UNL     1      47.058   0.601   7.229  0.00  0.00    +0.000 A 
ATOM     34  C   UNL     1      47.448   0.899   5.924  0.00  0.00    +0.000 A 
ATOM     35  C   UNL     1      47.216   2.169   5.398  0.00  0.00    +0.000 A 
ATOM     36  C   UNL     1      46.591   3.144   6.181  0.00  0.00    +0.000 A 
ENDBRANCH  28  31
ENDBRANCH  26  27
ENDBRANCH   5  26
TORSDOF 7
ENDMDL
MODEL 6
REMARK VINA RESULT:    -8.350      3.562      5.811
REMARK INTER + INTRA:         -12.841
REMARK INTER:                 -11.403
REMARK INTRA:                  -1.439
REMARK UNBOUND:                -1.319
REMARK  Name = 
REMARK  8 active torsions:
REMARK  status: ('A' for Active; 'I' for Inactive)
REMARK    1  A    between atoms: C_1  and  C_2
REMARK    2  A    between atoms: C_2  and  N_3
REMARK    3  A    between atoms: C_2  and  C_16
REMARK    4  A    between atoms: C_4  and  C_6
REMARK    5  A    between atoms: C_19  and  O_20
REMARK    6  A    between atoms: C_21  and  C_22
REMARK    7  A    between atoms: C_22  and  N_23
REMARK    8  A    between atoms: C_24  and  C_26
REMARK                            x       y       z     vdW  Elec       q    Type
REMARK                         _______ _______ _______ _____ _____    ______ ____
ROOT
ATOM      1  C   UNL     1      46.171   5.648  12.485  0.00  0.00    +0.000 A 
ATOM      2  C   UNL     1      46.080   4.541  13.338  0.00  0.00    +0.000 A 
ATOM      3  C   UNL     1      45.310   3.430  12.982  0.00  0.00    +0.000 A 
ATOM      4  C   UNL     1      44.630   3.413  11.764  0.00  0.00    +0.000 A 
ATOM      5  C   UNL     1      44.717   4.489  10.875  0.00  0.00    +0.000 A 
ATOM      6  C   UNL     1      45.479   5.609  11.259  0.00  0.00    +0.000 A 
ENDROOT
BRANCH   1   8
ATOM      7  C   UNL     1      48.491   6.588  12.765  0.00  0.00    +0.000 C 
ATOM      8  C   UNL     1      46.988   6.866  12.899  0.00  0.00    +0.000 C 
BRANCH   8   9
ATOM      9  N   UNL     1      46.564   8.026  12.132  0.00  0.00    +0.000 N 
ATOM     10  C   UNL     1      46.679   9.309  12.603  0.00  0.00    +0.000 C 
ATOM     11  O   UNL     1      47.186   9.574  13.689  0.00  0.00    +0.000 OA
ATOM     12  H   UNL     1      45.913   7.850  11.371  0.00  0.00    +0.000 HD
BRANCH  10  13
ATOM     13  C   UNL     1      46.209  10.378  11.718  0.00  0.00    +0.000 A 
ATOM     14  C   UNL     1      46.958  11.538  11.583  0.00  0.00    +0.000 A 
ATOM     15  S   UNL     1      46.256  12.687  10.537  0.00  0.00    +0.000 S 
ATOM     16  C   UNL     1      44.907  11.687  10.257  0.00  0.00    +0.000 A 
ATOM     17  N   UNL     1      43.877  12.105   9.474  0.00  0.00    +0.000 NA
ATOM     18  C   UNL     1      42.908  11.256   9.374  0.00  0.00    +0.000 A 
ATOM     19  N   UNL     1      42.883  10.025   9.976  0.00  0.00    +0.000 N 
ATOM     20  C   UNL     1      43.913   9.547  10.749  0.00  0.00    +0.000 A 
ATOM     21  O   UNL     1      43.881   8.421  11.236  0.00  0.00    +0.000 OA
ATOM     22  C   UNL     1      45.011  10.476  10.918  0.00  0.00    +0.000 A 
ATOM     23  H   UNL     1      42.101   9.398   9.837  0.00  0.00    +0.000 HD
ENDBRANCH  10  13
ENDBRANCH   8   9
ENDBRANCH   1   8
BRANCH   4  24
ATOM     24  O   UNL     1      43.871   2.327  11.426  0.00  0.00    +0.000 OA
ATOM     25  H   UNL     1      44.465   1.580  11.250  0.00  0.00    +0.000 HD
ENDBRANCH   4  24
BRANCH   5  26
ATOM     26  C   UNL     1      44.039   4.476   9.529  0.00  0.00    +0.000 C 
BRANCH  26  27
ATOM     27  N   UNL     1      44.657   3.560   8.593  0.00  0.00    +0.000 N 
ATOM     28  C   UNL     1      45.816   3.868   7.913  0.00  0.00    +0.000 C 
ATOM     29  O   UNL     1      46.413   4.932   8.036  0.00  0.00    +0.000 OA
ATOM     30  H   UNL     1      44.268   2.631   8.550  0.00  0.00    +0.000 HD
BRANCH  28  31
ATOM     31  C   UNL     1      46.358   2.812   7.009  0.00  0.00    +0.000 A 
ATOM     32  C   UNL     1      46.604   3.048   5.650  0.00  0.00    +0.000 A 
ATOM     33  C   UNL     1      47.136   2.036   4.846  0.00  0.00    +0.000 A 
ATOM     34  C   UNL     1      47.431   0.789   5.394  0.00  0.00    +0.000 A 
ATOM     35  C   UNL     1      47.196   0.547   6.747  0.00  0.00    +0.000 A 
ATOM     36  C   UNL     1      46.663   1.557   7.553  0.00  0.00    +0.000 A 
ENDBRANCH  28  31
ENDBRANCH  26  27
ENDBRANCH   5  26
TORSDOF 7
ENDMDL
MODEL 7
REMARK VINA RESULT:    -8.094      2.213      3.180
REMARK INTER + INTRA:         -12.489
REMARK INTER:                 -10.904
REMARK INTRA:                  -1.584
REMARK UNBOUND:                -1.319
REMARK  Name = 
REMARK  8 active torsions:
REMARK  status: ('A' for Active; 'I' for Inactive)
REMARK    1  A    between atoms: C_1  and  C_2
REMARK    2  A    between atoms: C_2  and  N_3
REMARK    3  A    between atoms: C_2  and  C_16
REMARK    4  A    between atoms: C_4  and  C_6
REMARK    5  A    between atoms: C_19  and  O_20
REMARK    6  A    between atoms: C_21  and  C_22
REMARK    7  A    between atoms: C_22  and  N_23
REMARK    8  A    between atoms: C_24  and  C_26
REMARK                            x       y       z     vdW  Elec       q    Type
REMARK                         _______ _______ _______ _____ _____    ______ ____
ROOT
ATOM      1  C   UNL     1      46.892   7.854  13.315  0.00  0.00    +0.000 A 
ATOM      2  C   UNL     1      46.247   8.961  12.748  0.00  0.00    +0.000 A 
ATOM      3  C   UNL     1      45.099   8.793  11.970  0.00  0.00    +0.000 A 
ATOM      4  C   UNL     1      44.579   7.515  11.759  0.00  0.00    +0.000 A 
ATOM      5  C   UNL     1      45.181   6.390  12.328  0.00  0.00    +0.000 A 
ATOM      6  C   UNL     1      46.350   6.574  13.091  0.00  0.00    +0.000 A 
ENDROOT
BRANCH   1   8
ATOM      7  C   UNL     1      48.468   9.540  14.323  0.00  0.00    +0.000 C 
ATOM      8  C   UNL     1      48.163   8.049  14.134  0.00  0.00    +0.000 C 
BRANCH   8   9
ATOM      9  N   UNL     1      48.045   7.339  15.398  0.00  0.00    +0.000 N 
ATOM     10  C   UNL     1      49.042   6.538  15.894  0.00  0.00    +0.000 C 
ATOM     11  O   UNL     1      50.122   6.397  15.328  0.00  0.00    +0.000 OA
ATOM     12  H   UNL     1      47.103   7.211  15.757  0.00  0.00    +0.000 HD
BRANCH  10  13
ATOM     13  C   UNL     1      48.781   5.886  17.180  0.00  0.00    +0.000 A 
ATOM     14  C   UNL     1      48.917   4.510  17.293  0.00  0.00    +0.000 A 
ATOM     15  S   UNL     1      48.551   3.912  18.847  0.00  0.00    +0.000 S 
ATOM     16  C   UNL     1      48.162   5.471  19.413  0.00  0.00    +0.000 A 
ATOM     17  N   UNL     1      47.710   5.661  20.681  0.00  0.00    +0.000 NA
ATOM     18  C   UNL     1      47.424   6.890  20.963  0.00  0.00    +0.000 A 
ATOM     19  N   UNL     1      47.564   7.942  20.097  0.00  0.00    +0.000 N 
ATOM     20  C   UNL     1      48.046   7.803  18.818  0.00  0.00    +0.000 A 
ATOM     21  O   UNL     1      48.203   8.773  18.082  0.00  0.00    +0.000 OA
ATOM     22  C   UNL     1      48.349   6.438  18.442  0.00  0.00    +0.000 A 
ATOM     23  H   UNL     1      47.344   8.886  20.391  0.00  0.00    +0.000 HD
ENDBRANCH  10  13
ENDBRANCH   8   9
ENDBRANCH   1   8
BRANCH   4  24
ATOM     24  O   UNL     1      43.460   7.357  10.988  0.00  0.00    +0.000 OA
ATOM     25  H   UNL     1      42.824   6.812  11.480  0.00  0.00    +0.000 HD
ENDBRANCH   4  24
BRANCH   5  26
ATOM     26  C   UNL     1      44.612   5.003  12.163  0.00  0.00    +0.000 C 
BRANCH  26  27
ATOM     27  N   UNL     1      45.251   4.253  11.101  0.00  0.00    +0.000 N 
ATOM     28  C   UNL     1      44.684   4.107   9.854  0.00  0.00    +0.000 C 
ATOM     29  O   UNL     1      43.600   4.587   9.540  0.00  0.00    +0.000 OA
ATOM     30  H   UNL     1      46.194   3.942  11.277  0.00  0.00    +0.000 HD
BRANCH  28  31
ATOM     31  C   UNL     1      45.475   3.338   8.849  0.00  0.00    +0.000 A 
ATOM     32  C   UNL     1      45.605   1.944   8.910  0.00  0.00    +0.000 A 
ATOM     33  C   UNL     1      46.335   1.263   7.931  0.00  0.00    +0.000 A 
ATOM     34  C   UNL     1      46.933   1.966   6.887  0.00  0.00    +0.000 A 
ATOM     35  C   UNL     1      46.804   3.353   6.815  0.00  0.00    +0.000 A 
ATOM     36  C   UNL     1      46.075   4.036   7.792  0.00  0.00    +0.000 A 
ENDBRANCH  28  31
ENDBRANCH  26  27
ENDBRANCH   5  26
TORSDOF 7
ENDMDL
MODEL 8
REMARK VINA RESULT:    -8.022      2.177      3.343
REMARK INTER + INTRA:         -12.389
REMARK INTER:                 -10.819
REMARK INTRA:                  -1.570
REMARK UNBOUND:                -1.319
REMARK  Name = 
REMARK  8 active torsions:
REMARK  status: ('A' for Active; 'I' for Inactive)
REMARK    1  A    between atoms: C_1  and  C_2
REMARK    2  A    between atoms: C_2  and  N_3
REMARK    3  A    between atoms: C_2  and  C_16
REMARK    4  A    between atoms: C_4  and  C_6
REMARK    5  A    between atoms: C_19  and  O_20
REMARK    6  A    between atoms: C_21  and  C_22
REMARK    7  A    between atoms: C_22  and  N_23
REMARK    8  A    between atoms: C_24  and  C_26
REMARK                            x       y       z     vdW  Elec       q    Type
REMARK                         _______ _______ _______ _____ _____    ______ ____
ROOT
ATOM      1  C   UNL     1      46.619   4.781  14.186  0.00  0.00    +0.000 A 
ATOM      2  C   UNL     1      46.978   6.055  13.729  0.00  0.00    +0.000 A 
ATOM      3  C   UNL     1      46.594   6.489  12.457  0.00  0.00    +0.000 A 
ATOM      4  C   UNL     1      45.838   5.653  11.634  0.00  0.00    +0.000 A 
ATOM      5  C   UNL     1      45.440   4.385  12.066  0.00  0.00    +0.000 A 
ATOM      6  C   UNL     1      45.854   3.955  13.340  0.00  0.00    +0.000 A 
ENDROOT
BRANCH   1   8
ATOM      7  C   UNL     1      47.955   3.059  15.449  0.00  0.00    +0.000 C 
ATOM      8  C   UNL     1      47.073   4.309  15.563  0.00  0.00    +0.000 C 
BRANCH   8   9
ATOM      9  N   UNL     1      47.736   5.398  16.261  0.00  0.00    +0.000 N 
ATOM     10  C   UNL     1      47.677   5.550  17.623  0.00  0.00    +0.000 C 
ATOM     11  O   UNL     1      47.095   4.755  18.355  0.00  0.00    +0.000 OA
ATOM     12  H   UNL     1      47.993   6.204  15.698  0.00  0.00    +0.000 HD
BRANCH  10  13
ATOM     13  C   UNL     1      48.395   6.696  18.187  0.00  0.00    +0.000 A 
ATOM     14  C   UNL     1      47.714   7.615  18.974  0.00  0.00    +0.000 A 
ATOM     15  S   UNL     1      48.691   8.898  19.527  0.00  0.00    +0.000 S 
ATOM     16  C   UNL     1      50.051   8.289  18.702  0.00  0.00    +0.000 A 
ATOM     17  N   UNL     1      51.234   8.958  18.716  0.00  0.00    +0.000 NA
ATOM     18  C   UNL     1      52.169   8.395  18.022  0.00  0.00    +0.000 A 
ATOM     19  N   UNL     1      52.029   7.222  17.330  0.00  0.00    +0.000 N 
ATOM     20  C   UNL     1      50.863   6.495  17.313  0.00  0.00    +0.000 A 
ATOM     21  O   UNL     1      50.784   5.422  16.721  0.00  0.00    +0.000 OA
ATOM     22  C   UNL     1      49.773   7.101  18.049  0.00  0.00    +0.000 A 
ATOM     23  H   UNL     1      52.811   6.823  16.826  0.00  0.00    +0.000 HD
ENDBRANCH  10  13
ENDBRANCH   8   9
ENDBRANCH   1   8
BRANCH   4  24
ATOM     24  O   UNL     1      45.472   6.080  10.387  0.00  0.00    +0.000 OA
ATOM     25  H   UNL     1      46.007   6.858  10.160  0.00  0.00    +0.000 HD
ENDBRANCH   4  24
BRANCH   5  26
ATOM     26  C   UNL     1      44.577   3.482  11.220  0.00  0.00    +0.000 C 
BRANCH  26  27
ATOM     27  N   UNL     1      45.302   2.870  10.127  0.00  0.00    +0.000 N 
ATOM     28  C   UNL     1      45.154   3.280   8.820  0.00  0.00    +0.000 C 
ATOM     29  O   UNL     1      44.402   4.184   8.472  0.00  0.00    +0.000 OA
ATOM     30  H   UNL     1      46.018   2.206  10.379  0.00  0.00    +0.000 HD
BRANCH  28  31
ATOM     31  C   UNL     1      45.994   2.581   7.803  0.00  0.00    +0.000 A 
ATOM     32  C   UNL     1      46.443   1.266   7.983  0.00  0.00    +0.000 A 
ATOM     33  C   UNL     1      47.207   0.642   6.992  0.00  0.00    +0.000 A 
ATOM     34  C   UNL     1      47.520   1.323   5.817  0.00  0.00    +0.000 A 
ATOM     35  C   UNL     1      47.072   2.630   5.626  0.00  0.00    +0.000 A 
ATOM     36  C   UNL     1      46.309   3.256   6.616  0.00  0.00    +0.000 A 
ENDBRANCH  28  31
ENDBRANCH  26  27
ENDBRANCH   5  26
TORSDOF 7
ENDMDL
MODEL 9
REMARK VINA RESULT:    -8.019      2.394      3.220
REMARK INTER + INTRA:         -12.385
REMARK INTER:                 -10.807
REMARK INTRA:                  -1.577
REMARK UNBOUND:                -1.319
REMARK  Name = 
REMARK  8 active torsions:
REMARK  status: ('A' for Active; 'I' for Inactive)
REMARK    1  A    between atoms: C_1  and  C_2
REMARK    2  A    between atoms: C_2  and  N_3
REMARK    3  A    between atoms: C_2  and  C_16
REMARK    4  A    between atoms: C_4  and  C_6
REMARK    5  A    between atoms: C_19  and  O_20
REMARK    6  A    between atoms: C_21  and  C_22
REMARK    7  A    between atoms: C_22  and  N_23
REMARK    8  A    between atoms: C_24  and  C_26
REMARK                            x       y       z     vdW  Elec       q    Type
REMARK                         _______ _______ _______ _____ _____    ______ ____
ROOT
ATOM      1  C   UNL     1      47.239   6.053  13.580  0.00  0.00    +0.000 A 
ATOM      2  C   UNL     1      47.166   4.855  14.302  0.00  0.00    +0.000 A 
ATOM      3  C   UNL     1      46.380   3.794  13.842  0.00  0.00    +0.000 A 
ATOM      4  C   UNL     1      45.666   3.920  12.650  0.00  0.00    +0.000 A 
ATOM      5  C   UNL     1      45.735   5.090  11.889  0.00  0.00    +0.000 A 
ATOM      6  C   UNL     1      46.513   6.157  12.378  0.00  0.00    +0.000 A 
ENDROOT
BRANCH   1   8
ATOM      7  C   UNL     1      47.584   8.547  13.532  0.00  0.00    +0.000 C 
ATOM      8  C   UNL     1      48.074   7.213  14.109  0.00  0.00    +0.000 C 
BRANCH   8   9
ATOM      9  N   UNL     1      48.068   7.198  15.563  0.00  0.00    +0.000 N 
ATOM     10  C   UNL     1      49.215   7.086  16.308  0.00  0.00    +0.000 C 
ATOM     11  O   UNL     1      50.331   7.031  15.801  0.00  0.00    +0.000 OA
ATOM     12  H   UNL     1      47.182   6.975  16.008  0.00  0.00    +0.000 HD
BRANCH  10  13
ATOM     13  C   UNL     1      49.054   7.085  17.764  0.00  0.00    +0.000 A 
ATOM     14  C   UNL     1      49.528   6.014  18.508  0.00  0.00    +0.000 A 
ATOM     15  S   UNL     1      49.236   6.161  20.181  0.00  0.00    +0.000 S 
ATOM     16  C   UNL     1      48.432   7.646  19.964  0.00  0.00    +0.000 A 
ATOM     17  N   UNL     1      47.872   8.299  21.018  0.00  0.00    +0.000 NA
ATOM     18  C   UNL     1      47.268   9.397  20.702  0.00  0.00    +0.000 A 
ATOM     19  N   UNL     1      47.186   9.904  19.432  0.00  0.00    +0.000 N 
ATOM     20  C   UNL     1      47.761   9.297  18.342  0.00  0.00    +0.000 A 
ATOM     21  O   UNL     1      47.709   9.802  17.224  0.00  0.00    +0.000 OA
ATOM     22  C   UNL     1      48.423   8.044  18.639  0.00  0.00    +0.000 A 
ATOM     23  H   UNL     1      46.717  10.784  19.256  0.00  0.00    +0.000 HD
ENDBRANCH  10  13
ENDBRANCH   8   9
ENDBRANCH   1   8
BRANCH   4  24
ATOM     24  O   UNL     1      44.892   2.881  12.210  0.00  0.00    +0.000 OA
ATOM     25  H   UNL     1      43.963   3.163  12.229  0.00  0.00    +0.000 HD
ENDBRANCH   4  24
BRANCH   5  26
ATOM     26  C   UNL     1      45.018   5.235  10.570  0.00  0.00    +0.000 C 
BRANCH  26  27
ATOM     27  N   UNL     1      45.664   4.511   9.495  0.00  0.00    +0.000 N 
ATOM     28  C   UNL     1      45.163   3.328   8.995  0.00  0.00    +0.000 C 
ATOM     29  O   UNL     1      44.144   2.791   9.415  0.00  0.00    +0.000 OA
ATOM     30  H   UNL     1      46.435   4.975   9.041  0.00  0.00    +0.000 HD
BRANCH  28  31
ATOM     31  C   UNL     1      45.915   2.713   7.862  0.00  0.00    +0.000 A 
ATOM     32  C   UNL     1      46.128   3.390   6.654  0.00  0.00    +0.000 A 
ATOM     33  C   UNL     1      46.860   2.784   5.628  0.00  0.00    +0.000 A 
ATOM     34  C   UNL     1      47.387   1.506   5.806  0.00  0.00    +0.000 A 
ATOM     35  C   UNL     1      47.185   0.827   7.006  0.00  0.00    +0.000 A 
ATOM     36  C   UNL     1      46.453   1.430   8.033  0.00  0.00    +0.000 A 
ENDBRANCH  28  31
ENDBRANCH  26  27
ENDBRANCH   5  26
TORSDOF 7
ENDMDL
