MODEL 1
REMARK VINA RESULT:    -7.108      0.000      0.000
REMARK INTER + INTRA:         -10.426
REMARK INTER:                  -9.601
REMARK INTRA:                  -0.825
REMARK UNBOUND:                -0.825
REMARK  Name = 
REMARK  9 active torsions:
REMARK  status: ('A' for Active; 'I' for Inactive)
REMARK    1  A    between atoms: C_1  and  C_2
REMARK    2  A    between atoms: C_2  and  C_3
REMARK    3  A    between atoms: C_2  and  C_16
REMARK    4  A    between atoms: C_4  and  C_5
REMARK    5  A    between atoms: C_9  and  C_10
REMARK    6  A    between atoms: C_10  and  C_11
REMARK    7  A    between atoms: C_10  and  C_12
REMARK    8  A    between atoms: C_10  and  C_13
REMARK    9  A    between atoms: C_20  and  C_21
REMARK                            x       y       z     vdW  Elec       q    Type
REMARK                         _______ _______ _______ _____ _____    ______ ____
ROOT
ATOM      1  C   UNL     1      47.201   3.244  17.760  0.00  0.00    +0.000 C 
ATOM      2  C   UNL     1      48.107   2.736  16.627  0.00  0.00    +0.000 C 
ENDROOT
BRANCH   2   3
ATOM      3  C   UNL     1      49.556   2.957  17.043  0.00  0.00    +0.000 A 
ATOM      4  C   UNL     1      49.986   4.185  17.583  0.00  0.00    +0.000 A 
ATOM      5  C   UNL     1      51.271   4.325  18.103  0.00  0.00    +0.000 A 
ATOM      6  C   UNL     1      52.137   3.235  18.114  0.00  0.00    +0.000 A 
ATOM      7  C   UNL     1      51.727   2.001  17.595  0.00  0.00    +0.000 A 
ATOM      8  C   UNL     1      50.453   1.876  17.025  0.00  0.00    +0.000 A 
BRANCH   7   9
ATOM      9  C   UNL     1      52.655   0.847  17.737  0.00  0.00    +0.000 C 
ATOM     10  N   UNL     1      52.226  -0.237  18.449  0.00  0.00    +0.000 N 
ATOM     11  O   UNL     1      53.793   0.884  17.284  0.00  0.00    +0.000 OA
ATOM     12  H   UNL     1      51.363  -0.267  18.972  0.00  0.00    +0.000 HD
ATOM     13  H   UNL     1      52.924  -0.944  18.649  0.00  0.00    +0.000 HD
ENDBRANCH   7   9
ENDBRANCH   2   3
BRANCH   2  14
ATOM     14  C   UNL     1      47.752   3.383  15.311  0.00  0.00    +0.000 C 
ATOM     15  C   UNL     1      46.983   4.474  15.153  0.00  0.00    +0.000 C 
BRANCH  15  16
ATOM     16  C   UNL     1      46.695   5.059  13.832  0.00  0.00    +0.000 A 
ATOM     17  C   UNL     1      47.508   6.046  13.292  0.00  0.00    +0.000 A 
ATOM     18  C   UNL     1      47.149   6.603  12.071  0.00  0.00    +0.000 A 
ATOM     19  C   UNL     1      46.002   6.153  11.419  0.00  0.00    +0.000 A 
ATOM     20  C   UNL     1      45.239   5.137  11.994  0.00  0.00    +0.000 A 
ATOM     21  N   UNL     1      45.591   4.598  13.189  0.00  0.00    +0.000 NA
BRANCH  20  22
ATOM     22  C   UNL     1      43.972   4.562  11.341  0.00  0.00    +0.000 C 
ATOM     23  C   UNL     1      43.584   3.247  12.039  0.00  0.00    +0.000 C 
ATOM     24  C   UNL     1      42.817   5.576  11.493  0.00  0.00    +0.000 C 
BRANCH  22  25
ATOM     25  C   UNL     1      44.139   4.278   9.897  0.00  0.00    +0.000 C 
ATOM     26  N   UNL     1      44.268   4.071   8.767  0.00  0.00    +0.000 NA
ENDBRANCH  22  25
ENDBRANCH  20  22
ENDBRANCH  15  16
ENDBRANCH   2  14
TORSDOF 6
ENDMDL
MODEL 2
REMARK VINA RESULT:    -7.083      3.283      8.397
REMARK INTER + INTRA:         -10.393
REMARK INTER:                  -9.537
REMARK INTRA:                  -0.856
REMARK UNBOUND:                -0.825
REMARK  Name = 
REMARK  9 active torsions:
REMARK  status: ('A' for Active; 'I' for Inactive)
REMARK    1  A    between atoms: C_1  and  C_2
REMARK    2  A    between atoms: C_2  and  C_3
REMARK    3  A    between atoms: C_2  and  C_16
REMARK    4  A    between atoms: C_4  and  C_5
REMARK    5  A    between atoms: C_9  and  C_10
REMARK    6  A    between atoms: C_10  and  C_11
REMARK    7  A    between atoms: C_10  and  C_12
REMARK    8  A    between atoms: C_10  and  C_13
REMARK    9  A    between atoms: C_20  and  C_21
REMARK                            x       y       z     vdW  Elec       q    Type
REMARK                         _______ _______ _______ _____ _____    ______ ____
ROOT
ATOM      1  C   UNL     1      45.529   8.522  12.836  0.00  0.00    +0.000 C 
ATOM      2  C   UNL     1      46.380   7.351  12.319  0.00  0.00    +0.000 C 
ENDROOT
BRANCH   2   3
ATOM      3  C   UNL     1      45.441   6.312  11.718  0.00  0.00    +0.000 A 
ATOM      4  C   UNL     1      44.148   6.103  12.236  0.00  0.00    +0.000 A 
ATOM      5  C   UNL     1      43.245   5.265  11.585  0.00  0.00    +0.000 A 
ATOM      6  C   UNL     1      43.610   4.644  10.393  0.00  0.00    +0.000 A 
ATOM      7  C   UNL     1      44.886   4.848   9.852  0.00  0.00    +0.000 A 
ATOM      8  C   UNL     1      45.811   5.648  10.535  0.00  0.00    +0.000 A 
BRANCH   7   9
ATOM      9  C   UNL     1      45.177   4.248   8.522  0.00  0.00    +0.000 C 
ATOM     10  N   UNL     1      44.335   3.276   8.059  0.00  0.00    +0.000 N 
ATOM     11  O   UNL     1      46.173   4.566   7.883  0.00  0.00    +0.000 OA
ATOM     12  H   UNL     1      43.590   2.866   8.602  0.00  0.00    +0.000 HD
ATOM     13  H   UNL     1      44.634   2.789   7.223  0.00  0.00    +0.000 HD
ENDBRANCH   7   9
ENDBRANCH   2   3
BRANCH   2  14
ATOM     14  C   UNL     1      47.271   6.801  13.405  0.00  0.00    +0.000 C 
ATOM     15  C   UNL     1      48.176   7.501  14.109  0.00  0.00    +0.000 C 
BRANCH  15  16
ATOM     16  C   UNL     1      49.001   6.896  15.170  0.00  0.00    +0.000 A 
ATOM     17  C   UNL     1      50.221   7.449  15.532  0.00  0.00    +0.000 A 
ATOM     18  C   UNL     1      50.982   6.798  16.495  0.00  0.00    +0.000 A 
ATOM     19  C   UNL     1      50.500   5.627  17.077  0.00  0.00    +0.000 A 
ATOM     20  C   UNL     1      49.253   5.133  16.696  0.00  0.00    +0.000 A 
ATOM     21  N   UNL     1      48.515   5.770  15.752  0.00  0.00    +0.000 NA
BRANCH  20  22
ATOM     22  C   UNL     1      48.631   3.862  17.296  0.00  0.00    +0.000 C 
ATOM     23  C   UNL     1      48.920   3.810  18.806  0.00  0.00    +0.000 C 
ATOM     24  C   UNL     1      47.103   3.889  17.073  0.00  0.00    +0.000 C 
BRANCH  22  25
ATOM     25  C   UNL     1      49.155   2.616  16.691  0.00  0.00    +0.000 C 
ATOM     26  N   UNL     1      49.554   1.635  16.225  0.00  0.00    +0.000 NA
ENDBRANCH  22  25
ENDBRANCH  20  22
ENDBRANCH  15  16
ENDBRANCH   2  14
TORSDOF 6
ENDMDL
MODEL 3
REMARK VINA RESULT:    -6.961      3.110      8.015
REMARK INTER + INTRA:         -10.228
REMARK INTER:                  -9.254
REMARK INTRA:                  -0.974
REMARK UNBOUND:                -0.825
REMARK  Name = 
REMARK  9 active torsions:
REMARK  status: ('A' for Active; 'I' for Inactive)
REMARK    1  A    between atoms: C_1  and  C_2
REMARK    2  A    between atoms: C_2  and  C_3
REMARK    3  A    between atoms: C_2  and  C_16
REMARK    4  A    between atoms: C_4  and  C_5
REMARK    5  A    between atoms: C_9  and  C_10
REMARK    6  A    between atoms: C_10  and  C_11
REMARK    7  A    between atoms: C_10  and  C_12
REMARK    8  A    between atoms: C_10  and  C_13
REMARK    9  A    between atoms: C_20  and  C_21
REMARK                            x       y       z     vdW  Elec       q    Type
REMARK                         _______ _______ _______ _____ _____    ______ ____
ROOT
ATOM      1  C   UNL     1      45.805   8.461  12.730  0.00  0.00    +0.000 C 
ATOM      2  C   UNL     1      46.758   7.371  12.216  0.00  0.00    +0.000 C 
ENDROOT
BRANCH   2   3
ATOM      3  C   UNL     1      45.931   6.328  11.473  0.00  0.00    +0.000 A 
ATOM      4  C   UNL     1      46.084   6.120  10.089  0.00  0.00    +0.000 A 
ATOM      5  C   UNL     1      45.439   5.062   9.451  0.00  0.00    +0.000 A 
ATOM      6  C   UNL     1      44.651   4.184  10.189  0.00  0.00    +0.000 A 
ATOM      7  C   UNL     1      44.495   4.364  11.570  0.00  0.00    +0.000 A 
ATOM      8  C   UNL     1      45.101   5.458  12.201  0.00  0.00    +0.000 A 
BRANCH   7   9
ATOM      9  C   UNL     1      43.733   3.330  12.321  0.00  0.00    +0.000 C 
ATOM     10  N   UNL     1      43.392   2.181  11.663  0.00  0.00    +0.000 N 
ATOM     11  O   UNL     1      43.367   3.519  13.475  0.00  0.00    +0.000 OA
ATOM     12  H   UNL     1      43.531   2.031  10.674  0.00  0.00    +0.000 HD
ATOM     13  H   UNL     1      42.758   1.560  12.150  0.00  0.00    +0.000 HD
ENDBRANCH   7   9
ENDBRANCH   2   3
BRANCH   2  14
ATOM     14  C   UNL     1      47.586   6.795  13.338  0.00  0.00    +0.000 C 
ATOM     15  C   UNL     1      48.380   7.493  14.168  0.00  0.00    +0.000 C 
BRANCH  15  16
ATOM     16  C   UNL     1      49.148   6.861  15.255  0.00  0.00    +0.000 A 
ATOM     17  C   UNL     1      50.357   7.392  15.681  0.00  0.00    +0.000 A 
ATOM     18  C   UNL     1      51.064   6.716  16.668  0.00  0.00    +0.000 A 
ATOM     19  C   UNL     1      50.541   5.542  17.209  0.00  0.00    +0.000 A 
ATOM     20  C   UNL     1      49.306   5.072  16.764  0.00  0.00    +0.000 A 
ATOM     21  N   UNL     1      48.621   5.733  15.797  0.00  0.00    +0.000 NA
BRANCH  20  22
ATOM     22  C   UNL     1      48.640   3.800  17.315  0.00  0.00    +0.000 C 
ATOM     23  C   UNL     1      48.892   3.703  18.829  0.00  0.00    +0.000 C 
ATOM     24  C   UNL     1      47.120   3.870  17.057  0.00  0.00    +0.000 C 
BRANCH  22  25
ATOM     25  C   UNL     1      49.150   2.559  16.689  0.00  0.00    +0.000 C 
ATOM     26  N   UNL     1      49.535   1.582  16.204  0.00  0.00    +0.000 NA
ENDBRANCH  22  25
ENDBRANCH  20  22
ENDBRANCH  15  16
ENDBRANCH   2  14
TORSDOF 6
ENDMDL
MODEL 4
REMARK VINA RESULT:    -6.741      3.709      8.407
REMARK INTER + INTRA:          -9.930
REMARK INTER:                  -9.016
REMARK INTRA:                  -0.914
REMARK UNBOUND:                -0.825
REMARK  Name = 
REMARK  9 active torsions:
REMARK  status: ('A' for Active; 'I' for Inactive)
REMARK    1  A    between atoms: C_1  and  C_2
REMARK    2  A    between atoms: C_2  and  C_3
REMARK    3  A    between atoms: C_2  and  C_16
REMARK    4  A    between atoms: C_4  and  C_5
REMARK    5  A    between atoms: C_9  and  C_10
REMARK    6  A    between atoms: C_10  and  C_11
REMARK    7  A    between atoms: C_10  and  C_12
REMARK    8  A    between atoms: C_10  and  C_13
REMARK    9  A    between atoms: C_20  and  C_21
REMARK                            x       y       z     vdW  Elec       q    Type
REMARK                         _______ _______ _______ _____ _____    ______ ____
ROOT
ATOM      1  C   UNL     1      43.476   6.010  11.565  0.00  0.00    +0.000 C 
ATOM      2  C   UNL     1      44.846   6.016  10.869  0.00  0.00    +0.000 C 
ENDROOT
BRANCH   2   3
ATOM      3  C   UNL     1      45.034   4.668  10.182  0.00  0.00    +0.000 A 
ATOM      4  C   UNL     1      44.258   3.548  10.537  0.00  0.00    +0.000 A 
ATOM      5  C   UNL     1      44.328   2.367   9.800  0.00  0.00    +0.000 A 
ATOM      6  C   UNL     1      45.157   2.296   8.683  0.00  0.00    +0.000 A 
ATOM      7  C   UNL     1      45.928   3.402   8.304  0.00  0.00    +0.000 A 
ATOM      8  C   UNL     1      45.895   4.570   9.076  0.00  0.00    +0.000 A 
BRANCH   7   9
ATOM      9  C   UNL     1      46.706   3.301   7.039  0.00  0.00    +0.000 C 
ATOM     10  N   UNL     1      47.782   2.459   7.014  0.00  0.00    +0.000 N 
ATOM     11  O   UNL     1      46.434   3.993   6.065  0.00  0.00    +0.000 OA
ATOM     12  H   UNL     1      48.147   1.980   7.825  0.00  0.00    +0.000 HD
ATOM     13  H   UNL     1      48.374   2.516   6.193  0.00  0.00    +0.000 HD
ENDBRANCH   7   9
ENDBRANCH   2   3
BRANCH   2  14
ATOM     14  C   UNL     1      45.951   6.359  11.836  0.00  0.00    +0.000 C 
ATOM     15  C   UNL     1      46.279   5.659  12.936  0.00  0.00    +0.000 C 
BRANCH  15  16
ATOM     16  C   UNL     1      47.386   6.048  13.826  0.00  0.00    +0.000 A 
ATOM     17  C   UNL     1      48.337   6.975  13.424  0.00  0.00    +0.000 A 
ATOM     18  C   UNL     1      49.392   7.255  14.285  0.00  0.00    +0.000 A 
ATOM     19  C   UNL     1      49.460   6.616  15.521  0.00  0.00    +0.000 A 
ATOM     20  C   UNL     1      48.459   5.715  15.885  0.00  0.00    +0.000 A 
ATOM     21  N   UNL     1      47.433   5.442  15.040  0.00  0.00    +0.000 NA
BRANCH  20  22
ATOM     22  C   UNL     1      48.439   4.978  17.234  0.00  0.00    +0.000 C 
ATOM     23  C   UNL     1      49.804   4.310  17.476  0.00  0.00    +0.000 C 
ATOM     24  C   UNL     1      48.165   5.994  18.364  0.00  0.00    +0.000 C 
BRANCH  22  25
ATOM     25  C   UNL     1      47.400   3.926  17.307  0.00  0.00    +0.000 C 
ATOM     26  N   UNL     1      46.593   3.099  17.350  0.00  0.00    +0.000 NA
ENDBRANCH  22  25
ENDBRANCH  20  22
ENDBRANCH  15  16
ENDBRANCH   2  14
TORSDOF 6
ENDMDL
MODEL 5
REMARK VINA RESULT:    -6.282      2.056      2.913
REMARK INTER + INTRA:          -9.311
REMARK INTER:                  -8.294
REMARK INTRA:                  -1.017
REMARK UNBOUND:                -0.825
REMARK  Name = 
REMARK  9 active torsions:
REMARK  status: ('A' for Active; 'I' for Inactive)
REMARK    1  A    between atoms: C_1  and  C_2
REMARK    2  A    between atoms: C_2  and  C_3
REMARK    3  A    between atoms: C_2  and  C_16
REMARK    4  A    between atoms: C_4  and  C_5
REMARK    5  A    between atoms: C_9  and  C_10
REMARK    6  A    between atoms: C_10  and  C_11
REMARK    7  A    between atoms: C_10  and  C_12
REMARK    8  A    between atoms: C_10  and  C_13
REMARK    9  A    between atoms: C_20  and  C_21
REMARK                            x       y       z     vdW  Elec       q    Type
REMARK                         _______ _______ _______ _____ _____    ______ ____
ROOT
ATOM      1  C   UNL     1      51.128   7.011  16.073  0.00  0.00    +0.000 C 
ATOM      2  C   UNL     1      49.720   7.150  16.672  0.00  0.00    +0.000 C 
ENDROOT
BRANCH   2   3
ATOM      3  C   UNL     1      49.391   5.860  17.415  0.00  0.00    +0.000 A 
ATOM      4  C   UNL     1      48.366   5.810  18.379  0.00  0.00    +0.000 A 
ATOM      5  C   UNL     1      47.970   4.595  18.937  0.00  0.00    +0.000 A 
ATOM      6  C   UNL     1      48.576   3.411  18.522  0.00  0.00    +0.000 A 
ATOM      7  C   UNL     1      49.589   3.437  17.556  0.00  0.00    +0.000 A 
ATOM      8  C   UNL     1      50.021   4.663  17.034  0.00  0.00    +0.000 A 
BRANCH   7   9
ATOM      9  C   UNL     1      50.118   2.132  17.073  0.00  0.00    +0.000 C 
ATOM     10  N   UNL     1      51.065   1.505  17.833  0.00  0.00    +0.000 N 
ATOM     11  O   UNL     1      49.765   1.658  16.000  0.00  0.00    +0.000 OA
ATOM     12  H   UNL     1      51.504   1.914  18.644  0.00  0.00    +0.000 HD
ATOM     13  H   UNL     1      51.507   0.695  17.414  0.00  0.00    +0.000 HD
ENDBRANCH   7   9
ENDBRANCH   2   3
BRANCH   2  14
ATOM     14  C   UNL     1      48.708   7.511  15.614  0.00  0.00    +0.000 C 
ATOM     15  C   UNL     1      48.350   6.741  14.572  0.00  0.00    +0.000 C 
BRANCH  15  16
ATOM     16  C   UNL     1      47.338   7.156  13.586  0.00  0.00    +0.000 A 
ATOM     17  C   UNL     1      47.044   8.497  13.380  0.00  0.00    +0.000 A 
ATOM     18  C   UNL     1      46.036   8.823  12.481  0.00  0.00    +0.000 A 
ATOM     19  C   UNL     1      45.361   7.807  11.806  0.00  0.00    +0.000 A 
ATOM     20  C   UNL     1      45.719   6.478  12.029  0.00  0.00    +0.000 A 
ATOM     21  N   UNL     1      46.702   6.164  12.911  0.00  0.00    +0.000 NA
BRANCH  20  22
ATOM     22  C   UNL     1      45.046   5.293  11.317  0.00  0.00    +0.000 C 
ATOM     23  C   UNL     1      45.395   3.987  12.050  0.00  0.00    +0.000 C 
ATOM     24  C   UNL     1      43.515   5.492  11.336  0.00  0.00    +0.000 C 
BRANCH  22  25
ATOM     25  C   UNL     1      45.467   5.148   9.905  0.00  0.00    +0.000 C 
ATOM     26  N   UNL     1      45.807   5.023   8.806  0.00  0.00    +0.000 NA
ENDBRANCH  22  25
ENDBRANCH  20  22
ENDBRANCH  15  16
ENDBRANCH   2  14
TORSDOF 6
ENDMDL
MODEL 6
REMARK VINA RESULT:    -6.213      3.560      8.478
REMARK INTER + INTRA:          -9.218
REMARK INTER:                  -8.334
REMARK INTRA:                  -0.883
REMARK UNBOUND:                -0.825
REMARK  Name = 
REMARK  9 active torsions:
REMARK  status: ('A' for Active; 'I' for Inactive)
REMARK    1  A    between atoms: C_1  and  C_2
REMARK    2  A    between atoms: C_2  and  C_3
REMARK    3  A    between atoms: C_2  and  C_16
REMARK    4  A    between atoms: C_4  and  C_5
REMARK    5  A    between atoms: C_9  and  C_10
REMARK    6  A    between atoms: C_10  and  C_11
REMARK    7  A    between atoms: C_10  and  C_12
REMARK    8  A    between atoms: C_10  and  C_13
REMARK    9  A    between atoms: C_20  and  C_21
REMARK                            x       y       z     vdW  Elec       q    Type
REMARK                         _______ _______ _______ _____ _____    ______ ____
ROOT
ATOM      1  C   UNL     1      44.849   8.131  11.759  0.00  0.00    +0.000 C 
ATOM      2  C   UNL     1      45.853   6.968  11.742  0.00  0.00    +0.000 C 
ENDROOT
BRANCH   2   3
ATOM      3  C   UNL     1      45.069   5.666  11.632  0.00  0.00    +0.000 A 
ATOM      4  C   UNL     1      44.035   5.353  12.534  0.00  0.00    +0.000 A 
ATOM      5  C   UNL     1      43.223   4.238  12.332  0.00  0.00    +0.000 A 
ATOM      6  C   UNL     1      43.418   3.433  11.212  0.00  0.00    +0.000 A 
ATOM      7  C   UNL     1      44.433   3.733  10.294  0.00  0.00    +0.000 A 
ATOM      8  C   UNL     1      45.280   4.824  10.526  0.00  0.00    +0.000 A 
BRANCH   7   9
ATOM      9  C   UNL     1      44.518   2.903   9.062  0.00  0.00    +0.000 C 
ATOM     10  N   UNL     1      44.355   3.526   7.857  0.00  0.00    +0.000 N 
ATOM     11  O   UNL     1      44.669   1.688   9.120  0.00  0.00    +0.000 OA
ATOM     12  H   UNL     1      44.078   4.491   7.750  0.00  0.00    +0.000 HD
ATOM     13  H   UNL     1      44.277   2.920   7.049  0.00  0.00    +0.000 HD
ENDBRANCH   7   9
ENDBRANCH   2   3
BRANCH   2  14
ATOM     14  C   UNL     1      46.771   7.020  12.938  0.00  0.00    +0.000 C 
ATOM     15  C   UNL     1      48.096   6.800  12.923  0.00  0.00    +0.000 C 
BRANCH  15  16
ATOM     16  C   UNL     1      48.932   6.885  14.134  0.00  0.00    +0.000 A 
ATOM     17  C   UNL     1      50.065   7.685  14.167  0.00  0.00    +0.000 A 
ATOM     18  C   UNL     1      50.847   7.676  15.316  0.00  0.00    +0.000 A 
ATOM     19  C   UNL     1      50.470   6.883  16.399  0.00  0.00    +0.000 A 
ATOM     20  C   UNL     1      49.304   6.122  16.321  0.00  0.00    +0.000 A 
ATOM     21  N   UNL     1      48.546   6.131  15.195  0.00  0.00    +0.000 NA
BRANCH  20  22
ATOM     22  C   UNL     1      48.798   5.235  17.469  0.00  0.00    +0.000 C 
ATOM     23  C   UNL     1      47.685   4.308  16.951  0.00  0.00    +0.000 C 
ATOM     24  C   UNL     1      49.966   4.376  18.000  0.00  0.00    +0.000 C 
BRANCH  22  25
ATOM     25  C   UNL     1      48.251   6.009  18.606  0.00  0.00    +0.000 C 
ATOM     26  N   UNL     1      47.837   6.614  19.501  0.00  0.00    +0.000 NA
ENDBRANCH  22  25
ENDBRANCH  20  22
ENDBRANCH  15  16
ENDBRANCH   2  14
TORSDOF 6
ENDMDL
MODEL 7
REMARK VINA RESULT:    -6.174      5.287      8.502
REMARK INTER + INTRA:          -9.164
REMARK INTER:                  -8.159
REMARK INTRA:                  -1.006
REMARK UNBOUND:                -0.825
REMARK  Name = 
REMARK  9 active torsions:
REMARK  status: ('A' for Active; 'I' for Inactive)
REMARK    1  A    between atoms: C_1  and  C_2
REMARK    2  A    between atoms: C_2  and  C_3
REMARK    3  A    between atoms: C_2  and  C_16
REMARK    4  A    between atoms: C_4  and  C_5
REMARK    5  A    between atoms: C_9  and  C_10
REMARK    6  A    between atoms: C_10  and  C_11
REMARK    7  A    between atoms: C_10  and  C_12
REMARK    8  A    between atoms: C_10  and  C_13
REMARK    9  A    between atoms: C_20  and  C_21
REMARK                            x       y       z     vdW  Elec       q    Type
REMARK                         _______ _______ _______ _____ _____    ______ ____
ROOT
ATOM      1  C   UNL     1      48.564   9.733  13.747  0.00  0.00    +0.000 C 
ATOM      2  C   UNL     1      48.265   9.327  12.295  0.00  0.00    +0.000 C 
ENDROOT
BRANCH   2   3
ATOM      3  C   UNL     1      47.324  10.366  11.697  0.00  0.00    +0.000 A 
ATOM      4  C   UNL     1      47.811  11.434  10.918  0.00  0.00    +0.000 A 
ATOM      5  C   UNL     1      46.935  12.286  10.248  0.00  0.00    +0.000 A 
ATOM      6  C   UNL     1      45.561  12.069  10.326  0.00  0.00    +0.000 A 
ATOM      7  C   UNL     1      45.056  11.006  11.085  0.00  0.00    +0.000 A 
ATOM      8  C   UNL     1      45.935  10.182  11.799  0.00  0.00    +0.000 A 
BRANCH   7   9
ATOM      9  C   UNL     1      43.589  10.759  11.038  0.00  0.00    +0.000 C 
ATOM     10  N   UNL     1      42.887  10.846  12.208  0.00  0.00    +0.000 N 
ATOM     11  O   UNL     1      43.030  10.429   9.999  0.00  0.00    +0.000 OA
ATOM     12  H   UNL     1      43.311  10.964  13.116  0.00  0.00    +0.000 HD
ATOM     13  H   UNL     1      41.923  10.537  12.173  0.00  0.00    +0.000 HD
ENDBRANCH   7   9
ENDBRANCH   2   3
BRANCH   2  14
ATOM     14  C   UNL     1      47.732   7.918  12.220  0.00  0.00    +0.000 C 
ATOM     15  C   UNL     1      47.302   7.182  13.259  0.00  0.00    +0.000 C 
BRANCH  15  16
ATOM     16  C   UNL     1      46.778   5.814  13.104  0.00  0.00    +0.000 A 
ATOM     17  C   UNL     1      47.166   4.796  13.963  0.00  0.00    +0.000 A 
ATOM     18  C   UNL     1      46.685   3.514  13.728  0.00  0.00    +0.000 A 
ATOM     19  C   UNL     1      45.825   3.287  12.656  0.00  0.00    +0.000 A 
ATOM     20  C   UNL     1      45.444   4.354  11.843  0.00  0.00    +0.000 A 
ATOM     21  N   UNL     1      45.919   5.604  12.074  0.00  0.00    +0.000 NA
BRANCH  20  22
ATOM     22  C   UNL     1      44.485   4.205  10.651  0.00  0.00    +0.000 C 
ATOM     23  C   UNL     1      43.945   2.765  10.602  0.00  0.00    +0.000 C 
ATOM     24  C   UNL     1      43.303   5.184  10.824  0.00  0.00    +0.000 C 
BRANCH  22  25
ATOM     25  C   UNL     1      45.126   4.493   9.348  0.00  0.00    +0.000 C 
ATOM     26  N   UNL     1      45.638   4.707   8.333  0.00  0.00    +0.000 NA
ENDBRANCH  22  25
ENDBRANCH  20  22
ENDBRANCH  15  16
ENDBRANCH   2  14
TORSDOF 6
ENDMDL
MODEL 8
REMARK VINA RESULT:    -6.061      3.366      4.140
REMARK INTER + INTRA:          -9.012
REMARK INTER:                  -8.145
REMARK INTRA:                  -0.866
REMARK UNBOUND:                -0.825
REMARK  Name = 
REMARK  9 active torsions:
REMARK  status: ('A' for Active; 'I' for Inactive)
REMARK    1  A    between atoms: C_1  and  C_2
REMARK    2  A    between atoms: C_2  and  C_3
REMARK    3  A    between atoms: C_2  and  C_16
REMARK    4  A    between atoms: C_4  and  C_5
REMARK    5  A    between atoms: C_9  and  C_10
REMARK    6  A    between atoms: C_10  and  C_11
REMARK    7  A    between atoms: C_10  and  C_12
REMARK    8  A    between atoms: C_10  and  C_13
REMARK    9  A    between atoms: C_20  and  C_21
REMARK                            x       y       z     vdW  Elec       q    Type
REMARK                         _______ _______ _______ _____ _____    ______ ____
ROOT
ATOM      1  C   UNL     1      47.220   2.700  17.750  0.00  0.00    +0.000 C 
ATOM      2  C   UNL     1      48.193   3.830  17.380  0.00  0.00    +0.000 C 
ENDROOT
BRANCH   2   3
ATOM      3  C   UNL     1      48.310   4.765  18.578  0.00  0.00    +0.000 A 
ATOM      4  C   UNL     1      48.754   4.300  19.831  0.00  0.00    +0.000 A 
ATOM      5  C   UNL     1      49.006   5.191  20.874  0.00  0.00    +0.000 A 
ATOM      6  C   UNL     1      48.842   6.559  20.673  0.00  0.00    +0.000 A 
ATOM      7  C   UNL     1      48.414   7.044  19.431  0.00  0.00    +0.000 A 
ATOM      8  C   UNL     1      48.111   6.145  18.400  0.00  0.00    +0.000 A 
BRANCH   7   9
ATOM      9  C   UNL     1      48.365   8.519  19.244  0.00  0.00    +0.000 C 
ATOM     10  N   UNL     1      47.138   9.118  19.183  0.00  0.00    +0.000 N 
ATOM     11  O   UNL     1      49.388   9.177  19.089  0.00  0.00    +0.000 OA
ATOM     12  H   UNL     1      46.263   8.615  19.152  0.00  0.00    +0.000 HD
ATOM     13  H   UNL     1      47.132  10.095  18.916  0.00  0.00    +0.000 HD
ENDBRANCH   7   9
ENDBRANCH   2   3
BRANCH   2  14
ATOM     14  C   UNL     1      47.767   4.526  16.112  0.00  0.00    +0.000 C 
ATOM     15  C   UNL     1      47.069   3.971  15.107  0.00  0.00    +0.000 C 
BRANCH  15  16
ATOM     16  C   UNL     1      46.673   4.722  13.902  0.00  0.00    +0.000 A 
ATOM     17  C   UNL     1      47.366   5.858  13.506  0.00  0.00    +0.000 A 
ATOM     18  C   UNL     1      46.907   6.559  12.397  0.00  0.00    +0.000 A 
ATOM     19  C   UNL     1      45.784   6.101  11.710  0.00  0.00    +0.000 A 
ATOM     20  C   UNL     1      45.146   4.936  12.135  0.00  0.00    +0.000 A 
ATOM     21  N   UNL     1      45.595   4.257  13.221  0.00  0.00    +0.000 NA
BRANCH  20  22
ATOM     22  C   UNL     1      43.915   4.344  11.429  0.00  0.00    +0.000 C 
ATOM     23  C   UNL     1      43.598   2.961  12.022  0.00  0.00    +0.000 C 
ATOM     24  C   UNL     1      42.706   5.279  11.649  0.00  0.00    +0.000 C 
BRANCH  22  25
ATOM     25  C   UNL     1      44.103   4.180   9.970  0.00  0.00    +0.000 C 
ATOM     26  N   UNL     1      44.257   4.039   8.833  0.00  0.00    +0.000 NA
ENDBRANCH  22  25
ENDBRANCH  20  22
ENDBRANCH  15  16
ENDBRANCH   2  14
TORSDOF 6
ENDMDL
MODEL 9
REMARK VINA RESULT:    -5.809      3.798      8.495
REMARK INTER + INTRA:          -8.672
REMARK INTER:                  -7.804
REMARK INTRA:                  -0.868
REMARK UNBOUND:                -0.825
REMARK  Name = 
REMARK  9 active torsions:
REMARK  status: ('A' for Active; 'I' for Inactive)
REMARK    1  A    between atoms: C_1  and  C_2
REMARK    2  A    between atoms: C_2  and  C_3
REMARK    3  A    between atoms: C_2  and  C_16
REMARK    4  A    between atoms: C_4  and  C_5
REMARK    5  A    between atoms: C_9  and  C_10
REMARK    6  A    between atoms: C_10  and  C_11
REMARK    7  A    between atoms: C_10  and  C_12
REMARK    8  A    between atoms: C_10  and  C_13
REMARK    9  A    between atoms: C_20  and  C_21
REMARK                            x       y       z     vdW  Elec       q    Type
REMARK                         _______ _______ _______ _____ _____    ______ ____
ROOT
ATOM      1  C   UNL     1      48.690   7.671  11.604  0.00  0.00    +0.000 C 
ATOM      2  C   UNL     1      48.012   6.520  12.362  0.00  0.00    +0.000 C 
ENDROOT
BRANCH   2   3
ATOM      3  C   UNL     1      46.516   6.582  12.078  0.00  0.00    +0.000 A 
ATOM      4  C   UNL     1      45.792   7.782  12.215  0.00  0.00    +0.000 A 
ATOM      5  C   UNL     1      44.462   7.865  11.804  0.00  0.00    +0.000 A 
ATOM      6  C   UNL     1      43.844   6.757  11.230  0.00  0.00    +0.000 A 
ATOM      7  C   UNL     1      44.549   5.557  11.073  0.00  0.00    +0.000 A 
ATOM      8  C   UNL     1      45.868   5.460  11.533  0.00  0.00    +0.000 A 
BRANCH   7   9
ATOM      9  C   UNL     1      43.870   4.446  10.352  0.00  0.00    +0.000 C 
ATOM     10  N   UNL     1      43.975   4.408   8.990  0.00  0.00    +0.000 N 
ATOM     11  O   UNL     1      43.187   3.621  10.948  0.00  0.00    +0.000 OA
ATOM     12  H   UNL     1      44.394   5.137   8.433  0.00  0.00    +0.000 HD
ATOM     13  H   UNL     1      43.391   3.728   8.517  0.00  0.00    +0.000 HD
ENDBRANCH   7   9
ENDBRANCH   2   3
BRANCH   2  14
ATOM     14  C   UNL     1      48.349   6.558  13.832  0.00  0.00    +0.000 C 
ATOM     15  C   UNL     1      48.909   7.591  14.484  0.00  0.00    +0.000 C 
BRANCH  15  16
ATOM     16  C   UNL     1      49.193   7.560  15.929  0.00  0.00    +0.000 A 
ATOM     17  C   UNL     1      50.034   8.497  16.514  0.00  0.00    +0.000 A 
ATOM     18  C   UNL     1      50.313   8.378  17.870  0.00  0.00    +0.000 A 
ATOM     19  C   UNL     1      49.738   7.342  18.604  0.00  0.00    +0.000 A 
ATOM     20  C   UNL     1      48.876   6.448  17.970  0.00  0.00    +0.000 A 
ATOM     21  N   UNL     1      48.609   6.565  16.644  0.00  0.00    +0.000 NA
BRANCH  20  22
ATOM     22  C   UNL     1      48.179   5.288  18.699  0.00  0.00    +0.000 C 
ATOM     23  C   UNL     1      49.233   4.419  19.407  0.00  0.00    +0.000 C 
ATOM     24  C   UNL     1      47.205   5.861  19.752  0.00  0.00    +0.000 C 
BRANCH  22  25
ATOM     25  C   UNL     1      47.404   4.411  17.793  0.00  0.00    +0.000 C 
ATOM     26  N   UNL     1      46.811   3.723  17.077  0.00  0.00    +0.000 NA
ENDBRANCH  22  25
ENDBRANCH  20  22
ENDBRANCH  15  16
ENDBRANCH   2  14
TORSDOF 6
ENDMDL
