MODEL 1
REMARK VINA RESULT:    -7.827      0.000      0.000
REMARK INTER + INTRA:         -10.224
REMARK INTER:                  -9.657
REMARK INTRA:                  -0.566
REMARK UNBOUND:                -0.566
REMARK  Name = 
REMARK  4 active torsions:
REMARK  status: ('A' for Active; 'I' for Inactive)
REMARK    1  A    between atoms: C_5  and  O_6
REMARK    2  A    between atoms: O_6  and  C_7
REMARK    3  A    between atoms: C_7  and  C_8
REMARK    4  A    between atoms: C_12  and  C_13
REMARK                            x       y       z     vdW  Elec       q    Type
REMARK                         _______ _______ _______ _____ _____    ______ ____
ROOT
ATOM      1  C   UNL     1      44.971   4.689  11.914  0.00  0.00    +0.000 A 
ATOM      2  C   UNL     1      45.141   3.462  12.556  0.00  0.00    +0.000 A 
ATOM      3  N   UNL     1      46.161   3.152  13.390  0.00  0.00    +0.000 NA
ATOM      4  C   UNL     1      47.085   4.122  13.600  0.00  0.00    +0.000 A 
ATOM      5  C   UNL     1      47.073   5.376  12.991  0.00  0.00    +0.000 A 
ATOM      6  C   UNL     1      45.989   5.632  12.135  0.00  0.00    +0.000 A 
ENDROOT
BRANCH   5   7
ATOM      7  C   UNL     1      48.123   6.367  13.262  0.00  0.00    +0.000 A 
ATOM      8  C   UNL     1      48.598   7.267  12.308  0.00  0.00    +0.000 A 
ATOM      9  N   UNL     1      49.551   8.201  12.563  0.00  0.00    +0.000 NA
ATOM     10  C   UNL     1      50.022   8.206  13.827  0.00  0.00    +0.000 A 
ATOM     11  C   UNL     1      49.572   7.318  14.786  0.00  0.00    +0.000 A 
ATOM     12  N   UNL     1      48.629   6.385  14.525  0.00  0.00    +0.000 NA
ENDBRANCH   5   7
BRANCH   1  13
ATOM     13  C   UNL     1      43.748   5.004  11.072  0.00  0.00    +0.000 C 
ATOM     14  C   UNL     1      42.469   5.390  11.813  0.00  0.00    +0.000 C 
ATOM     15  C   UNL     1      43.211   6.422  11.032  0.00  0.00    +0.000 C 
BRANCH  13  16
ATOM     16  O   UNL     1      43.467   4.111   9.965  0.00  0.00    +0.000 OA
BRANCH  16  21
ATOM     17 CL   UNL     1      47.889   2.014   6.789  0.00  0.00    +0.000 Cl
ATOM     18  C   UNL     1      46.579   2.618   7.718  0.00  0.00    +0.000 A 
ATOM     19  C   UNL     1      45.807   1.761   8.490  0.00  0.00    +0.000 A 
ATOM     20  C   UNL     1      44.759   2.290   9.241  0.00  0.00    +0.000 A 
ATOM     21  C   UNL     1      44.533   3.661   9.203  0.00  0.00    +0.000 A 
ATOM     22  N   UNL     1      45.269   4.519   8.463  0.00  0.00    +0.000 NA
ATOM     23  C   UNL     1      46.270   3.972   7.726  0.00  0.00    +0.000 A 
ENDBRANCH  16  21
ENDBRANCH  13  16
ENDBRANCH   1  13
TORSDOF 4
ENDMDL
MODEL 2
REMARK VINA RESULT:    -7.659      0.715      1.072
REMARK INTER + INTRA:         -10.016
REMARK INTER:                  -9.360
REMARK INTRA:                  -0.656
REMARK UNBOUND:                -0.566
REMARK  Name = 
REMARK  4 active torsions:
REMARK  status: ('A' for Active; 'I' for Inactive)
REMARK    1  A    between atoms: C_5  and  O_6
REMARK    2  A    between atoms: O_6  and  C_7
REMARK    3  A    between atoms: C_7  and  C_8
REMARK    4  A    between atoms: C_12  and  C_13
REMARK                            x       y       z     vdW  Elec       q    Type
REMARK                         _______ _______ _______ _____ _____    ______ ____
ROOT
ATOM      1  C   UNL     1      45.025   4.658  12.049  0.00  0.00    +0.000 A 
ATOM      2  C   UNL     1      45.286   3.525  12.822  0.00  0.00    +0.000 A 
ATOM      3  N   UNL     1      46.341   3.375  13.656  0.00  0.00    +0.000 NA
ATOM      4  C   UNL     1      47.208   4.416  13.726  0.00  0.00    +0.000 A 
ATOM      5  C   UNL     1      47.104   5.587  12.979  0.00  0.00    +0.000 A 
ATOM      6  C   UNL     1      45.987   5.678  12.131  0.00  0.00    +0.000 A 
ENDROOT
BRANCH   5   7
ATOM      7  C   UNL     1      48.096   6.663  13.104  0.00  0.00    +0.000 A 
ATOM      8  C   UNL     1      48.173   7.747  12.228  0.00  0.00    +0.000 A 
ATOM      9  N   UNL     1      49.073   8.756  12.356  0.00  0.00    +0.000 NA
ATOM     10  C   UNL     1      49.910   8.645  13.409  0.00  0.00    +0.000 A 
ATOM     11  C   UNL     1      49.857   7.576  14.284  0.00  0.00    +0.000 A 
ATOM     12  N   UNL     1      48.964   6.570  14.147  0.00  0.00    +0.000 NA
ENDBRANCH   5   7
BRANCH   1  13
ATOM     13  C   UNL     1      43.766   4.800  11.213  0.00  0.00    +0.000 C 
ATOM     14  C   UNL     1      42.505   5.285  11.925  0.00  0.00    +0.000 C 
ATOM     15  C   UNL     1      43.194   6.180  10.950  0.00  0.00    +0.000 C 
BRANCH  13  16
ATOM     16  O   UNL     1      43.469   3.725  10.288  0.00  0.00    +0.000 OA
BRANCH  16  21
ATOM     17 CL   UNL     1      47.741   2.187   6.623  0.00  0.00    +0.000 Cl
ATOM     18  C   UNL     1      46.494   2.652   7.706  0.00  0.00    +0.000 A 
ATOM     19  C   UNL     1      46.094   3.979   7.793  0.00  0.00    +0.000 A 
ATOM     20  C   UNL     1      45.068   4.317   8.674  0.00  0.00    +0.000 A 
ATOM     21  C   UNL     1      44.471   3.311   9.425  0.00  0.00    +0.000 A 
ATOM     22  N   UNL     1      44.839   2.012   9.360  0.00  0.00    +0.000 NA
ATOM     23  C   UNL     1      45.854   1.717   8.507  0.00  0.00    +0.000 A 
ENDBRANCH  16  21
ENDBRANCH  13  16
ENDBRANCH   1  13
TORSDOF 4
ENDMDL
MODEL 3
REMARK VINA RESULT:    -7.482      1.833      2.936
REMARK INTER + INTRA:          -9.798
REMARK INTER:                  -9.421
REMARK INTRA:                  -0.377
REMARK UNBOUND:                -0.566
REMARK  Name = 
REMARK  4 active torsions:
REMARK  status: ('A' for Active; 'I' for Inactive)
REMARK    1  A    between atoms: C_5  and  O_6
REMARK    2  A    between atoms: O_6  and  C_7
REMARK    3  A    between atoms: C_7  and  C_8
REMARK    4  A    between atoms: C_12  and  C_13
REMARK                            x       y       z     vdW  Elec       q    Type
REMARK                         _______ _______ _______ _____ _____    ______ ____
ROOT
ATOM      1  C   UNL     1      45.228   5.286  12.243  0.00  0.00    +0.000 A 
ATOM      2  C   UNL     1      46.109   6.227  11.708  0.00  0.00    +0.000 A 
ATOM      3  N   UNL     1      47.326   6.534  12.214  0.00  0.00    +0.000 NA
ATOM      4  C   UNL     1      47.698   5.870  13.336  0.00  0.00    +0.000 A 
ATOM      5  C   UNL     1      46.906   4.942  14.009  0.00  0.00    +0.000 A 
ATOM      6  C   UNL     1      45.654   4.670  13.432  0.00  0.00    +0.000 A 
ENDROOT
BRANCH   5   7
ATOM      7  C   UNL     1      47.380   4.276  15.229  0.00  0.00    +0.000 A 
ATOM      8  C   UNL     1      47.435   4.899  16.476  0.00  0.00    +0.000 A 
ATOM      9  N   UNL     1      47.848   4.279  17.611  0.00  0.00    +0.000 NA
ATOM     10  C   UNL     1      48.212   2.989  17.456  0.00  0.00    +0.000 A 
ATOM     11  C   UNL     1      48.174   2.353  16.229  0.00  0.00    +0.000 A 
ATOM     12  N   UNL     1      47.768   2.978  15.101  0.00  0.00    +0.000 NA
ENDBRANCH   5   7
BRANCH   1  13
ATOM     13  C   UNL     1      43.921   4.917  11.565  0.00  0.00    +0.000 C 
ATOM     14  C   UNL     1      42.631   5.206  12.330  0.00  0.00    +0.000 C 
ATOM     15  C   UNL     1      42.971   6.014  11.124  0.00  0.00    +0.000 C 
BRANCH  13  16
ATOM     16  O   UNL     1      43.865   3.628  10.905  0.00  0.00    +0.000 OA
BRANCH  16  21
ATOM     17 CL   UNL     1      47.167   2.603   6.205  0.00  0.00    +0.000 Cl
ATOM     18  C   UNL     1      46.187   2.891   7.583  0.00  0.00    +0.000 A 
ATOM     19  C   UNL     1      45.837   1.848   8.431  0.00  0.00    +0.000 A 
ATOM     20  C   UNL     1      45.051   2.123   9.548  0.00  0.00    +0.000 A 
ATOM     21  C   UNL     1      44.656   3.435   9.784  0.00  0.00    +0.000 A 
ATOM     22  N   UNL     1      44.983   4.469   8.977  0.00  0.00    +0.000 NA
ATOM     23  C   UNL     1      45.733   4.167   7.886  0.00  0.00    +0.000 A 
ENDBRANCH  16  21
ENDBRANCH  13  16
ENDBRANCH   1  13
TORSDOF 4
ENDMDL
MODEL 4
REMARK VINA RESULT:    -6.838      3.174      6.772
REMARK INTER + INTRA:          -9.004
REMARK INTER:                  -8.433
REMARK INTRA:                  -0.571
REMARK UNBOUND:                -0.566
REMARK  Name = 
REMARK  4 active torsions:
REMARK  status: ('A' for Active; 'I' for Inactive)
REMARK    1  A    between atoms: C_5  and  O_6
REMARK    2  A    between atoms: O_6  and  C_7
REMARK    3  A    between atoms: C_7  and  C_8
REMARK    4  A    between atoms: C_12  and  C_13
REMARK                            x       y       z     vdW  Elec       q    Type
REMARK                         _______ _______ _______ _____ _____    ______ ____
ROOT
ATOM      1  C   UNL     1      45.058   4.657  11.146  0.00  0.00    +0.000 A 
ATOM      2  C   UNL     1      43.946   3.919  11.554  0.00  0.00    +0.000 A 
ATOM      3  N   UNL     1      43.487   2.799  10.948  0.00  0.00    +0.000 NA
ATOM      4  C   UNL     1      44.172   2.381   9.855  0.00  0.00    +0.000 A 
ATOM      5  C   UNL     1      45.269   3.041   9.304  0.00  0.00    +0.000 A 
ATOM      6  C   UNL     1      45.692   4.198   9.980  0.00  0.00    +0.000 A 
ENDROOT
BRANCH   5   7
ATOM      7  C   UNL     1      45.946   2.527   8.106  0.00  0.00    +0.000 A 
ATOM      8  C   UNL     1      46.132   3.276   6.944  0.00  0.00    +0.000 A 
ATOM      9  N   UNL     1      46.781   2.813   5.845  0.00  0.00    +0.000 NA
ATOM     10  C   UNL     1      47.247   1.551   5.946  0.00  0.00    +0.000 A 
ATOM     11  C   UNL     1      47.067   0.787   7.085  0.00  0.00    +0.000 A 
ATOM     12  N   UNL     1      46.414   1.251   8.174  0.00  0.00    +0.000 NA
ENDBRANCH   5   7
BRANCH   1  13
ATOM     13  C   UNL     1      45.578   5.846  11.933  0.00  0.00    +0.000 C 
ATOM     14  C   UNL     1      45.119   7.233  11.487  0.00  0.00    +0.000 C 
ATOM     15  C   UNL     1      44.616   6.667  12.771  0.00  0.00    +0.000 C 
BRANCH  13  16
ATOM     16  O   UNL     1      46.986   5.841  12.276  0.00  0.00    +0.000 OA
BRANCH  16  21
ATOM     17 CL   UNL     1      48.532   4.859  17.816  0.00  0.00    +0.000 Cl
ATOM     18  C   UNL     1      48.074   5.163  16.191  0.00  0.00    +0.000 A 
ATOM     19  C   UNL     1      48.504   6.312  15.540  0.00  0.00    +0.000 A 
ATOM     20  C   UNL     1      48.122   6.519  14.216  0.00  0.00    +0.000 A 
ATOM     21  C   UNL     1      47.336   5.560  13.587  0.00  0.00    +0.000 A 
ATOM     22  N   UNL     1      46.905   4.433  14.195  0.00  0.00    +0.000 NA
ATOM     23  C   UNL     1      47.276   4.269  15.491  0.00  0.00    +0.000 A 
ENDBRANCH  16  21
ENDBRANCH  13  16
ENDBRANCH   1  13
TORSDOF 4
ENDMDL
MODEL 5
REMARK VINA RESULT:    -6.836      3.184      6.669
REMARK INTER + INTRA:          -9.001
REMARK INTER:                  -8.437
REMARK INTRA:                  -0.565
REMARK UNBOUND:                -0.566
REMARK  Name = 
REMARK  4 active torsions:
REMARK  status: ('A' for Active; 'I' for Inactive)
REMARK    1  A    between atoms: C_5  and  O_6
REMARK    2  A    between atoms: O_6  and  C_7
REMARK    3  A    between atoms: C_7  and  C_8
REMARK    4  A    between atoms: C_12  and  C_13
REMARK                            x       y       z     vdW  Elec       q    Type
REMARK                         _______ _______ _______ _____ _____    ______ ____
ROOT
ATOM      1  C   UNL     1      45.474   6.582  11.621  0.00  0.00    +0.000 A 
ATOM      2  C   UNL     1      44.093   6.584  11.822  0.00  0.00    +0.000 A 
ATOM      3  N   UNL     1      43.213   5.765  11.202  0.00  0.00    +0.000 NA
ATOM      4  C   UNL     1      43.732   4.885  10.311  0.00  0.00    +0.000 A 
ATOM      5  C   UNL     1      45.081   4.801   9.971  0.00  0.00    +0.000 A 
ATOM      6  C   UNL     1      45.941   5.681  10.650  0.00  0.00    +0.000 A 
ENDROOT
BRANCH   5   7
ATOM      7  C   UNL     1      45.560   3.825   8.983  0.00  0.00    +0.000 A 
ATOM      8  C   UNL     1      45.472   2.444   9.157  0.00  0.00    +0.000 A 
ATOM      9  N   UNL     1      45.891   1.540   8.234  0.00  0.00    +0.000 NA
ATOM     10  C   UNL     1      46.412   2.072   7.109  0.00  0.00    +0.000 A 
ATOM     11  C   UNL     1      46.517   3.438   6.918  0.00  0.00    +0.000 A 
ATOM     12  N   UNL     1      46.105   4.333   7.844  0.00  0.00    +0.000 NA
ENDBRANCH   5   7
BRANCH   1  13
ATOM     13  C   UNL     1      46.415   7.460  12.427  0.00  0.00    +0.000 C 
ATOM     14  C   UNL     1      46.582   8.908  11.971  0.00  0.00    +0.000 C 
ATOM     15  C   UNL     1      45.853   8.612  13.238  0.00  0.00    +0.000 C 
BRANCH  13  16
ATOM     16  O   UNL     1      47.685   6.878  12.813  0.00  0.00    +0.000 OA
BRANCH  16  21
ATOM     17 CL   UNL     1      47.833   3.742  17.731  0.00  0.00    +0.000 Cl
ATOM     18  C   UNL     1      47.791   4.650  16.276  0.00  0.00    +0.000 A 
ATOM     19  C   UNL     1      46.998   4.242  15.211  0.00  0.00    +0.000 A 
ATOM     20  C   UNL     1      46.979   5.012  14.050  0.00  0.00    +0.000 A 
ATOM     21  C   UNL     1      47.744   6.172  14.003  0.00  0.00    +0.000 A 
ATOM     22  N   UNL     1      48.523   6.595  15.023  0.00  0.00    +0.000 NA
ATOM     23  C   UNL     1      48.537   5.813  16.134  0.00  0.00    +0.000 A 
ENDBRANCH  16  21
ENDBRANCH  13  16
ENDBRANCH   1  13
TORSDOF 4
ENDMDL
MODEL 6
REMARK VINA RESULT:    -6.237      3.889      6.792
REMARK INTER + INTRA:          -8.262
REMARK INTER:                  -7.598
REMARK INTRA:                  -0.664
REMARK UNBOUND:                -0.566
REMARK  Name = 
REMARK  4 active torsions:
REMARK  status: ('A' for Active; 'I' for Inactive)
REMARK    1  A    between atoms: C_5  and  O_6
REMARK    2  A    between atoms: O_6  and  C_7
REMARK    3  A    between atoms: C_7  and  C_8
REMARK    4  A    between atoms: C_12  and  C_13
REMARK                            x       y       z     vdW  Elec       q    Type
REMARK                         _______ _______ _______ _____ _____    ______ ____
ROOT
ATOM      1  C   UNL     1      45.212   6.662  12.064  0.00  0.00    +0.000 A 
ATOM      2  C   UNL     1      44.127   6.143  12.771  0.00  0.00    +0.000 A 
ATOM      3  N   UNL     1      43.491   4.984  12.484  0.00  0.00    +0.000 NA
ATOM      4  C   UNL     1      43.953   4.291  11.414  0.00  0.00    +0.000 A 
ATOM      5  C   UNL     1      44.993   4.708  10.586  0.00  0.00    +0.000 A 
ATOM      6  C   UNL     1      45.609   5.920  10.939  0.00  0.00    +0.000 A 
ENDROOT
BRANCH   5   7
ATOM      7  C   UNL     1      45.424   3.902   9.436  0.00  0.00    +0.000 A 
ATOM      8  C   UNL     1      45.345   2.510   9.398  0.00  0.00    +0.000 A 
ATOM      9  N   UNL     1      45.719   1.763   8.327  0.00  0.00    +0.000 NA
ATOM     10  C   UNL     1      46.185   2.468   7.274  0.00  0.00    +0.000 A 
ATOM     11  C   UNL     1      46.280   3.847   7.293  0.00  0.00    +0.000 A 
ATOM     12  N   UNL     1      45.913   4.584   8.365  0.00  0.00    +0.000 NA
ENDBRANCH   5   7
BRANCH   1  13
ATOM     13  C   UNL     1      45.944   7.917  12.503  0.00  0.00    +0.000 C 
ATOM     14  C   UNL     1      47.106   7.743  13.479  0.00  0.00    +0.000 C 
ATOM     15  C   UNL     1      47.381   8.137  12.068  0.00  0.00    +0.000 C 
BRANCH  13  16
ATOM     16  O   UNL     1      45.130   9.064  12.851  0.00  0.00    +0.000 OA
BRANCH  16  21
ATOM     17 CL   UNL     1      43.645  12.758   8.586  0.00  0.00    +0.000 Cl
ATOM     18  C   UNL     1      44.066  11.668   9.842  0.00  0.00    +0.000 A 
ATOM     19  C   UNL     1      43.468  10.418   9.921  0.00  0.00    +0.000 A 
ATOM     20  C   UNL     1      43.844   9.554  10.949  0.00  0.00    +0.000 A 
ATOM     21  C   UNL     1      44.817   9.970  11.851  0.00  0.00    +0.000 A 
ATOM     22  N   UNL     1      45.417  11.180  11.797  0.00  0.00    +0.000 NA
ATOM     23  C   UNL     1      45.015  12.007  10.797  0.00  0.00    +0.000 A 
ENDBRANCH  16  21
ENDBRANCH  13  16
ENDBRANCH   1  13
TORSDOF 4
ENDMDL
MODEL 7
REMARK VINA RESULT:    -6.176      4.668      7.925
REMARK INTER + INTRA:          -8.186
REMARK INTER:                  -8.154
REMARK INTRA:                  -0.033
REMARK UNBOUND:                -0.566
REMARK  Name = 
REMARK  4 active torsions:
REMARK  status: ('A' for Active; 'I' for Inactive)
REMARK    1  A    between atoms: C_5  and  O_6
REMARK    2  A    between atoms: O_6  and  C_7
REMARK    3  A    between atoms: C_7  and  C_8
REMARK    4  A    between atoms: C_12  and  C_13
REMARK                            x       y       z     vdW  Elec       q    Type
REMARK                         _______ _______ _______ _____ _____    ______ ____
ROOT
ATOM      1  C   UNL     1      47.843   5.237  15.542  0.00  0.00    +0.000 A 
ATOM      2  C   UNL     1      48.488   6.350  15.000  0.00  0.00    +0.000 A 
ATOM      3  N   UNL     1      48.204   6.910  13.801  0.00  0.00    +0.000 NA
ATOM      4  C   UNL     1      47.216   6.324  13.081  0.00  0.00    +0.000 A 
ATOM      5  C   UNL     1      46.519   5.181  13.470  0.00  0.00    +0.000 A 
ATOM      6  C   UNL     1      46.865   4.649  14.724  0.00  0.00    +0.000 A 
ENDROOT
BRANCH   5   7
ATOM      7  C   UNL     1      45.471   4.600  12.621  0.00  0.00    +0.000 A 
ATOM      8  C   UNL     1      45.238   4.995  11.304  0.00  0.00    +0.000 A 
ATOM      9  N   UNL     1      44.286   4.442  10.508  0.00  0.00    +0.000 NA
ATOM     10  C   UNL     1      43.559   3.462  11.084  0.00  0.00    +0.000 A 
ATOM     11  C   UNL     1      43.767   3.060  12.392  0.00  0.00    +0.000 A 
ATOM     12  N   UNL     1      44.711   3.620  13.181  0.00  0.00    +0.000 NA
ENDBRANCH   5   7
BRANCH   1  13
ATOM     13  C   UNL     1      48.143   4.723  16.938  0.00  0.00    +0.000 C 
ATOM     14  C   UNL     1      47.099   4.990  18.021  0.00  0.00    +0.000 C 
ATOM     15  C   UNL     1      47.304   3.601  17.520  0.00  0.00    +0.000 C 
BRANCH  13  16
ATOM     16  O   UNL     1      49.487   4.931  17.439  0.00  0.00    +0.000 OA
BRANCH  16  21
ATOM     17 CL   UNL     1      53.217   0.453  17.737  0.00  0.00    +0.000 Cl
ATOM     18  C   UNL     1      52.123   1.773  17.665  0.00  0.00    +0.000 A 
ATOM     19  C   UNL     1      52.450   2.993  18.243  0.00  0.00    +0.000 A 
ATOM     20  C   UNL     1      51.541   4.046  18.154  0.00  0.00    +0.000 A 
ATOM     21  C   UNL     1      50.345   3.843  17.475  0.00  0.00    +0.000 A 
ATOM     22  N   UNL     1      50.001   2.668  16.902  0.00  0.00    +0.000 NA
ATOM     23  C   UNL     1      50.898   1.655  17.024  0.00  0.00    +0.000 A 
ENDBRANCH  16  21
ENDBRANCH  13  16
ENDBRANCH   1  13
TORSDOF 4
ENDMDL
MODEL 8
REMARK VINA RESULT:    -5.957      3.896      7.657
REMARK INTER + INTRA:          -7.916
REMARK INTER:                  -7.236
REMARK INTRA:                  -0.680
REMARK UNBOUND:                -0.566
REMARK  Name = 
REMARK  4 active torsions:
REMARK  status: ('A' for Active; 'I' for Inactive)
REMARK    1  A    between atoms: C_5  and  O_6
REMARK    2  A    between atoms: O_6  and  C_7
REMARK    3  A    between atoms: C_7  and  C_8
REMARK    4  A    between atoms: C_12  and  C_13
REMARK                            x       y       z     vdW  Elec       q    Type
REMARK                         _______ _______ _______ _____ _____    ______ ____
ROOT
ATOM      1  C   UNL     1      47.655   7.732  12.582  0.00  0.00    +0.000 A 
ATOM      2  C   UNL     1      46.827   8.840  12.766  0.00  0.00    +0.000 A 
ATOM      3  N   UNL     1      45.474   8.815  12.748  0.00  0.00    +0.000 NA
ATOM      4  C   UNL     1      44.896   7.610  12.523  0.00  0.00    +0.000 A 
ATOM      5  C   UNL     1      45.592   6.429  12.274  0.00  0.00    +0.000 A 
ATOM      6  C   UNL     1      46.993   6.524  12.304  0.00  0.00    +0.000 A 
ENDROOT
BRANCH   5   7
ATOM      7  C   UNL     1      44.886   5.165  12.025  0.00  0.00    +0.000 A 
ATOM      8  C   UNL     1      44.440   4.318  13.040  0.00  0.00    +0.000 A 
ATOM      9  N   UNL     1      43.765   3.161  12.814  0.00  0.00    +0.000 NA
ATOM     10  C   UNL     1      43.547   2.872  11.515  0.00  0.00    +0.000 A 
ATOM     11  C   UNL     1      43.987   3.692  10.492  0.00  0.00    +0.000 A 
ATOM     12  N   UNL     1      44.665   4.839  10.723  0.00  0.00    +0.000 NA
ENDBRANCH   5   7
BRANCH   1  13
ATOM     13  C   UNL     1      49.165   7.813  12.716  0.00  0.00    +0.000 C 
ATOM     14  C   UNL     1      49.978   7.896  11.425  0.00  0.00    +0.000 C 
ATOM     15  C   UNL     1      49.884   9.087  12.317  0.00  0.00    +0.000 C 
BRANCH  13  16
ATOM     16  O   UNL     1      49.787   6.923  13.675  0.00  0.00    +0.000 OA
BRANCH  16  21
ATOM     17 CL   UNL     1      48.002   7.386  19.211  0.00  0.00    +0.000 Cl
ATOM     18  C   UNL     1      48.519   7.264  17.579  0.00  0.00    +0.000 A 
ATOM     19  C   UNL     1      49.045   8.368  16.921  0.00  0.00    +0.000 A 
ATOM     20  C   UNL     1      49.466   8.227  15.600  0.00  0.00    +0.000 A 
ATOM     21  C   UNL     1      49.360   6.982  14.992  0.00  0.00    +0.000 A 
ATOM     22  N   UNL     1      48.855   5.890  15.608  0.00  0.00    +0.000 NA
ATOM     23  C   UNL     1      48.433   6.063  16.888  0.00  0.00    +0.000 A 
ENDBRANCH  16  21
ENDBRANCH  13  16
ENDBRANCH   1  13
TORSDOF 4
ENDMDL
MODEL 9
REMARK VINA RESULT:    -5.852      5.241      8.808
REMARK INTER + INTRA:          -7.787
REMARK INTER:                  -7.292
REMARK INTRA:                  -0.495
REMARK UNBOUND:                -0.566
REMARK  Name = 
REMARK  4 active torsions:
REMARK  status: ('A' for Active; 'I' for Inactive)
REMARK    1  A    between atoms: C_5  and  O_6
REMARK    2  A    between atoms: O_6  and  C_7
REMARK    3  A    between atoms: C_7  and  C_8
REMARK    4  A    between atoms: C_12  and  C_13
REMARK                            x       y       z     vdW  Elec       q    Type
REMARK                         _______ _______ _______ _____ _____    ______ ____
ROOT
ATOM      1  C   UNL     1      47.712   4.943  15.878  0.00  0.00    +0.000 A 
ATOM      2  C   UNL     1      48.620   5.887  15.397  0.00  0.00    +0.000 A 
ATOM      3  N   UNL     1      48.593   6.437  14.161  0.00  0.00    +0.000 NA
ATOM      4  C   UNL     1      47.603   6.017  13.335  0.00  0.00    +0.000 A 
ATOM      5  C   UNL     1      46.657   5.047  13.659  0.00  0.00    +0.000 A 
ATOM      6  C   UNL     1      46.742   4.515  14.957  0.00  0.00    +0.000 A 
ENDROOT
BRANCH   5   7
ATOM      7  C   UNL     1      45.623   4.638  12.698  0.00  0.00    +0.000 A 
ATOM      8  C   UNL     1      45.249   5.405  11.595  0.00  0.00    +0.000 A 
ATOM      9  N   UNL     1      44.312   5.019  10.691  0.00  0.00    +0.000 NA
ATOM     10  C   UNL     1      43.749   3.816  10.931  0.00  0.00    +0.000 A 
ATOM     11  C   UNL     1      44.098   3.042  12.023  0.00  0.00    +0.000 A 
ATOM     12  N   UNL     1      45.027   3.436  12.924  0.00  0.00    +0.000 NA
ENDBRANCH   5   7
BRANCH   1  13
ATOM     13  C   UNL     1      47.740   4.444  17.311  0.00  0.00    +0.000 C 
ATOM     14  C   UNL     1      47.858   2.936  17.524  0.00  0.00    +0.000 C 
ATOM     15  C   UNL     1      49.009   3.821  17.863  0.00  0.00    +0.000 C 
BRANCH  13  16
ATOM     16  O   UNL     1      46.787   5.033  18.230  0.00  0.00    +0.000 OA
BRANCH  16  21
ATOM     17 CL   UNL     1      48.626   9.206  21.870  0.00  0.00    +0.000 Cl
ATOM     18  C   UNL     1      48.093   7.968  20.809  0.00  0.00    +0.000 A 
ATOM     19  C   UNL     1      47.620   6.763  21.311  0.00  0.00    +0.000 A 
ATOM     20  C   UNL     1      47.184   5.785  20.418  0.00  0.00    +0.000 A 
ATOM     21  C   UNL     1      47.224   6.057  19.055  0.00  0.00    +0.000 A 
ATOM     22  N   UNL     1      47.677   7.220  18.539  0.00  0.00    +0.000 NA
ATOM     23  C   UNL     1      48.114   8.145  19.432  0.00  0.00    +0.000 A 
ENDBRANCH  16  21
ENDBRANCH  13  16
ENDBRANCH   1  13
TORSDOF 4
ENDMDL
