MODEL 1
REMARK VINA RESULT:    -8.007      0.000      0.000
REMARK INTER + INTRA:         -12.106
REMARK INTER:                 -11.284
REMARK INTRA:                  -0.822
REMARK UNBOUND:                -0.822
REMARK  Name = 
REMARK  8 active torsions:
REMARK  status: ('A' for Active; 'I' for Inactive)
REMARK    1  A    between atoms: C_1  and  C_2
REMARK    2  A    between atoms: C_7  and  C_8
REMARK    3  A    between atoms: N_10  and  C_11
REMARK    4  A    between atoms: C_11  and  C_12
REMARK    5  A    between atoms: C_15  and  N_16
REMARK    6  A    between atoms: N_16  and  C_17
REMARK    7  A    between atoms: C_17  and  C_18
REMARK    8  A    between atoms: C_18  and  C_19
REMARK                            x       y       z     vdW  Elec       q    Type
REMARK                         _______ _______ _______ _____ _____    ______ ____
ROOT
ATOM      1  C   UNL     1      47.122   6.054  13.045  0.00  0.00    +0.000 A 
ATOM      2  C   UNL     1      46.858   6.571  11.776  0.00  0.00    +0.000 A 
ATOM      3  C   UNL     1      45.848   6.028  10.975  0.00  0.00    +0.000 A 
ATOM      4  C   UNL     1      45.064   4.951  11.410  0.00  0.00    +0.000 A 
ATOM      5  C   UNL     1      45.318   4.453  12.695  0.00  0.00    +0.000 A 
ATOM      6  C   UNL     1      46.353   4.972  13.491  0.00  0.00    +0.000 A 
ENDROOT
BRANCH   4   7
ATOM      7  N   UNL     1      43.969   4.455  10.676  0.00  0.00    +0.000 N 
ATOM      8  H   UNL     1      43.162   4.295  11.275  0.00  0.00    +0.000 HD
BRANCH   7   9
ATOM      9  C   UNL     1      44.242   3.336   9.763  0.00  0.00    +0.000 C 
BRANCH   9  10
ATOM     10  C   UNL     1      44.730   3.822   8.392  0.00  0.00    +0.000 C 
BRANCH  10  11
ATOM     11  C   UNL     1      45.880   2.977   7.884  0.00  0.00    +0.000 A 
ATOM     12  C   UNL     1      46.864   3.496   7.038  0.00  0.00    +0.000 A 
ATOM     13  C   UNL     1      47.852   2.646   6.560  0.00  0.00    +0.000 A 
ATOM     14  N   UNL     1      47.925   1.332   6.863  0.00  0.00    +0.000 NA
ATOM     15  C   UNL     1      46.975   0.851   7.688  0.00  0.00    +0.000 A 
ATOM     16  C   UNL     1      45.953   1.619   8.222  0.00  0.00    +0.000 A 
ENDBRANCH  10  11
ENDBRANCH   9  10
ENDBRANCH   7   9
ENDBRANCH   4   7
BRANCH   1  17
ATOM     17  C   UNL     1      48.172   6.703  13.912  0.00  0.00    +0.000 C 
BRANCH  17  20
ATOM     18  C   UNL     1      49.135   6.267  16.115  0.00  0.00    +0.000 C 
ATOM     19  O   UNL     1      50.261   6.522  15.701  0.00  0.00    +0.000 OA
ATOM     20  N   UNL     1      48.023   6.326  15.301  0.00  0.00    +0.000 N 
ATOM     21  H   UNL     1      47.135   6.495  15.746  0.00  0.00    +0.000 HD
BRANCH  18  28
ATOM     22  C   UNL     1      47.492   5.830  22.269  0.00  0.00    +0.000 C 
ATOM     23  C   UNL     1      47.702   6.590  20.995  0.00  0.00    +0.000 A 
ATOM     24  N   UNL     1      47.363   7.907  20.996  0.00  0.00    +0.000 NA
ATOM     25  C   UNL     1      47.512   8.628  19.875  0.00  0.00    +0.000 A 
ATOM     26  C   UNL     1      47.997   8.127  18.679  0.00  0.00    +0.000 A 
ATOM     27  C   UNL     1      48.381   6.766  18.623  0.00  0.00    +0.000 A 
ATOM     28  C   UNL     1      48.891   5.934  17.532  0.00  0.00    +0.000 A 
ATOM     29  C   UNL     1      49.105   4.639  17.962  0.00  0.00    +0.000 A 
ATOM     30  S   UNL     1      48.714   4.385  19.588  0.00  0.00    +0.000 S 
ATOM     31  C   UNL     1      48.216   6.023  19.804  0.00  0.00    +0.000 A 
ENDBRANCH  18  28
ENDBRANCH  17  20
ENDBRANCH   1  17
TORSDOF 7
ENDMDL
MODEL 2
REMARK VINA RESULT:    -7.722      1.579      2.251
REMARK INTER + INTRA:         -11.704
REMARK INTER:                 -10.922
REMARK INTRA:                  -0.783
REMARK UNBOUND:                -0.822
REMARK  Name = 
REMARK  8 active torsions:
REMARK  status: ('A' for Active; 'I' for Inactive)
REMARK    1  A    between atoms: C_1  and  C_2
REMARK    2  A    between atoms: C_7  and  C_8
REMARK    3  A    between atoms: N_10  and  C_11
REMARK    4  A    between atoms: C_11  and  C_12
REMARK    5  A    between atoms: C_15  and  N_16
REMARK    6  A    between atoms: N_16  and  C_17
REMARK    7  A    between atoms: C_17  and  C_18
REMARK    8  A    between atoms: C_18  and  C_19
REMARK                            x       y       z     vdW  Elec       q    Type
REMARK                         _______ _______ _______ _____ _____    ______ ____
ROOT
ATOM      1  C   UNL     1      46.637   6.457  12.526  0.00  0.00    +0.000 A 
ATOM      2  C   UNL     1      45.979   6.811  11.347  0.00  0.00    +0.000 A 
ATOM      3  C   UNL     1      45.112   5.917  10.712  0.00  0.00    +0.000 A 
ATOM      4  C   UNL     1      44.868   4.637  11.230  0.00  0.00    +0.000 A 
ATOM      5  C   UNL     1      45.512   4.297  12.426  0.00  0.00    +0.000 A 
ATOM      6  C   UNL     1      46.410   5.179  13.052  0.00  0.00    +0.000 A 
ENDROOT
BRANCH   4   7
ATOM      7  N   UNL     1      43.918   3.756  10.677  0.00  0.00    +0.000 N 
ATOM      8  H   UNL     1      43.362   3.307  11.403  0.00  0.00    +0.000 HD
BRANCH   7   9
ATOM      9  C   UNL     1      44.406   2.817   9.658  0.00  0.00    +0.000 C 
BRANCH   9  10
ATOM     10  C   UNL     1      44.835   3.538   8.374  0.00  0.00    +0.000 C 
BRANCH  10  11
ATOM     11  C   UNL     1      45.881   2.746   7.618  0.00  0.00    +0.000 A 
ATOM     12  C   UNL     1      46.346   1.509   8.073  0.00  0.00    +0.000 A 
ATOM     13  C   UNL     1      47.352   0.869   7.363  0.00  0.00    +0.000 A 
ATOM     14  N   UNL     1      47.920   1.372   6.246  0.00  0.00    +0.000 NA
ATOM     15  C   UNL     1      47.452   2.560   5.815  0.00  0.00    +0.000 A 
ATOM     16  C   UNL     1      46.448   3.271   6.450  0.00  0.00    +0.000 A 
ENDBRANCH  10  11
ENDBRANCH   9  10
ENDBRANCH   7   9
ENDBRANCH   4   7
BRANCH   1  17
ATOM     17  C   UNL     1      47.514   7.467  13.223  0.00  0.00    +0.000 C 
BRANCH  17  20
ATOM     18  C   UNL     1      48.889   6.929  15.171  0.00  0.00    +0.000 C 
ATOM     19  O   UNL     1      49.907   6.943  14.487  0.00  0.00    +0.000 OA
ATOM     20  N   UNL     1      47.642   7.176  14.636  0.00  0.00    +0.000 N 
ATOM     21  H   UNL     1      46.935   7.532  15.259  0.00  0.00    +0.000 HD
BRANCH  18  28
ATOM     22  C   UNL     1      49.129   4.818  21.191  0.00  0.00    +0.000 C 
ATOM     23  C   UNL     1      48.873   4.643  19.725  0.00  0.00    +0.000 A 
ATOM     24  N   UNL     1      48.536   3.396  19.301  0.00  0.00    +0.000 NA
ATOM     25  C   UNL     1      48.316   3.181  17.995  0.00  0.00    +0.000 A 
ATOM     26  C   UNL     1      48.406   4.153  17.013  0.00  0.00    +0.000 A 
ATOM     27  C   UNL     1      48.738   5.474  17.400  0.00  0.00    +0.000 A 
ATOM     28  C   UNL     1      48.940   6.701  16.628  0.00  0.00    +0.000 A 
ATOM     29  C   UNL     1      49.277   7.753  17.459  0.00  0.00    +0.000 A 
ATOM     30  S   UNL     1      49.370   7.329  19.093  0.00  0.00    +0.000 S 
ATOM     31  C   UNL     1      48.968   5.683  18.770  0.00  0.00    +0.000 A 
ENDBRANCH  18  28
ENDBRANCH  17  20
ENDBRANCH   1  17
TORSDOF 7
ENDMDL
MODEL 3
REMARK VINA RESULT:    -7.662      1.413      2.167
REMARK INTER + INTRA:         -11.619
REMARK INTER:                 -10.650
REMARK INTRA:                  -0.970
REMARK UNBOUND:                -0.822
REMARK  Name = 
REMARK  8 active torsions:
REMARK  status: ('A' for Active; 'I' for Inactive)
REMARK    1  A    between atoms: C_1  and  C_2
REMARK    2  A    between atoms: C_7  and  C_8
REMARK    3  A    between atoms: N_10  and  C_11
REMARK    4  A    between atoms: C_11  and  C_12
REMARK    5  A    between atoms: C_15  and  N_16
REMARK    6  A    between atoms: N_16  and  C_17
REMARK    7  A    between atoms: C_17  and  C_18
REMARK    8  A    between atoms: C_18  and  C_19
REMARK                            x       y       z     vdW  Elec       q    Type
REMARK                         _______ _______ _______ _____ _____    ______ ____
ROOT
ATOM      1  C   UNL     1      46.574   4.197  13.561  0.00  0.00    +0.000 A 
ATOM      2  C   UNL     1      46.567   5.485  13.024  0.00  0.00    +0.000 A 
ATOM      3  C   UNL     1      45.830   5.779  11.872  0.00  0.00    +0.000 A 
ATOM      4  C   UNL     1      45.074   4.800  11.214  0.00  0.00    +0.000 A 
ATOM      5  C   UNL     1      45.066   3.515  11.773  0.00  0.00    +0.000 A 
ATOM      6  C   UNL     1      45.830   3.205  12.911  0.00  0.00    +0.000 A 
ENDROOT
BRANCH   4   7
ATOM      7  N   UNL     1      44.235   5.087  10.120  0.00  0.00    +0.000 N 
ATOM      8  H   UNL     1      43.274   5.242  10.419  0.00  0.00    +0.000 HD
BRANCH   7   9
ATOM      9  C   UNL     1      44.341   4.195   8.957  0.00  0.00    +0.000 C 
BRANCH   9  10
ATOM     10  C   UNL     1      45.647   4.416   8.183  0.00  0.00    +0.000 C 
BRANCH  10  11
ATOM     11  C   UNL     1      46.183   3.116   7.620  0.00  0.00    +0.000 A 
ATOM     12  C   UNL     1      46.058   1.904   8.305  0.00  0.00    +0.000 A 
ATOM     13  C   UNL     1      46.629   0.764   7.758  0.00  0.00    +0.000 A 
ATOM     14  N   UNL     1      47.309   0.750   6.591  0.00  0.00    +0.000 NA
ATOM     15  C   UNL     1      47.410   1.924   5.939  0.00  0.00    +0.000 A 
ATOM     16  C   UNL     1      46.869   3.113   6.399  0.00  0.00    +0.000 A 
ENDBRANCH  10  11
ENDBRANCH   9  10
ENDBRANCH   7   9
ENDBRANCH   4   7
BRANCH   1  17
ATOM     17  C   UNL     1      47.325   3.927  14.841  0.00  0.00    +0.000 C 
BRANCH  17  20
ATOM     18  C   UNL     1      48.407   5.257  16.582  0.00  0.00    +0.000 C 
ATOM     19  O   UNL     1      49.311   4.436  16.683  0.00  0.00    +0.000 OA
ATOM     20  N   UNL     1      47.364   5.097  15.693  0.00  0.00    +0.000 N 
ATOM     21  H   UNL     1      46.896   5.930  15.376  0.00  0.00    +0.000 HD
BRANCH  18  28
ATOM     22  C   UNL     1      48.273   9.953  20.906  0.00  0.00    +0.000 C 
ATOM     23  C   UNL     1      48.018   8.547  20.455  0.00  0.00    +0.000 A 
ATOM     24  N   UNL     1      47.524   7.681  21.379  0.00  0.00    +0.000 NA
ATOM     25  C   UNL     1      47.296   6.406  21.032  0.00  0.00    +0.000 A 
ATOM     26  C   UNL     1      47.530   5.881  19.772  0.00  0.00    +0.000 A 
ATOM     27  C   UNL     1      48.029   6.742  18.765  0.00  0.00    +0.000 A 
ATOM     28  C   UNL     1      48.406   6.506  17.371  0.00  0.00    +0.000 A 
ATOM     29  C   UNL     1      48.867   7.668  16.783  0.00  0.00    +0.000 A 
ATOM     30  S   UNL     1      48.878   9.001  17.825  0.00  0.00    +0.000 S 
ATOM     31  C   UNL     1      48.265   8.073  19.144  0.00  0.00    +0.000 A 
ENDBRANCH  18  28
ENDBRANCH  17  20
ENDBRANCH   1  17
TORSDOF 7
ENDMDL
MODEL 4
REMARK VINA RESULT:    -7.496      2.644      4.168
REMARK INTER + INTRA:         -11.386
REMARK INTER:                 -10.511
REMARK INTRA:                  -0.875
REMARK UNBOUND:                -0.822
REMARK  Name = 
REMARK  8 active torsions:
REMARK  status: ('A' for Active; 'I' for Inactive)
REMARK    1  A    between atoms: C_1  and  C_2
REMARK    2  A    between atoms: C_7  and  C_8
REMARK    3  A    between atoms: N_10  and  C_11
REMARK    4  A    between atoms: C_11  and  C_12
REMARK    5  A    between atoms: C_15  and  N_16
REMARK    6  A    between atoms: N_16  and  C_17
REMARK    7  A    between atoms: C_17  and  C_18
REMARK    8  A    between atoms: C_18  and  C_19
REMARK                            x       y       z     vdW  Elec       q    Type
REMARK                         _______ _______ _______ _____ _____    ______ ____
ROOT
ATOM      1  C   UNL     1      46.070   4.615  13.099  0.00  0.00    +0.000 A 
ATOM      2  C   UNL     1      46.081   5.766  12.310  0.00  0.00    +0.000 A 
ATOM      3  C   UNL     1      45.445   5.790  11.064  0.00  0.00    +0.000 A 
ATOM      4  C   UNL     1      44.776   4.667  10.560  0.00  0.00    +0.000 A 
ATOM      5  C   UNL     1      44.747   3.522  11.368  0.00  0.00    +0.000 A 
ATOM      6  C   UNL     1      45.412   3.482  12.606  0.00  0.00    +0.000 A 
ENDROOT
BRANCH   4   7
ATOM      7  N   UNL     1      44.033   4.691   9.364  0.00  0.00    +0.000 N 
ATOM      8  H   UNL     1      43.035   4.607   9.544  0.00  0.00    +0.000 HD
BRANCH   7   9
ATOM      9  C   UNL     1      44.501   3.815   8.280  0.00  0.00    +0.000 C 
BRANCH   9  10
ATOM     10  C   UNL     1      45.982   4.050   7.954  0.00  0.00    +0.000 C 
BRANCH  10  11
ATOM     11  C   UNL     1      46.551   2.916   7.127  0.00  0.00    +0.000 A 
ATOM     12  C   UNL     1      46.749   1.638   7.657  0.00  0.00    +0.000 A 
ATOM     13  C   UNL     1      47.335   0.666   6.859  0.00  0.00    +0.000 A 
ATOM     14  N   UNL     1      47.733   0.878   5.586  0.00  0.00    +0.000 NA
ATOM     15  C   UNL     1      47.525   2.112   5.087  0.00  0.00    +0.000 A 
ATOM     16  C   UNL     1      46.942   3.146   5.801  0.00  0.00    +0.000 A 
ENDBRANCH  10  11
ENDBRANCH   9  10
ENDBRANCH   7   9
ENDBRANCH   4   7
BRANCH   1  17
ATOM     17  C   UNL     1      46.707   4.641  14.466  0.00  0.00    +0.000 C 
BRANCH  17  20
ATOM     18  C   UNL     1      48.452   5.904  15.620  0.00  0.00    +0.000 C 
ATOM     19  O   UNL     1      48.772   4.915  16.270  0.00  0.00    +0.000 OA
ATOM     20  N   UNL     1      47.431   5.874  14.692  0.00  0.00    +0.000 N 
ATOM     21  H   UNL     1      47.468   6.547  13.944  0.00  0.00    +0.000 HD
BRANCH  18  28
ATOM     22  C   UNL     1      51.479  11.493  15.023  0.00  0.00    +0.000 C 
ATOM     23  C   UNL     1      50.936  10.205  14.482  0.00  0.00    +0.000 A 
ATOM     24  N   UNL     1      51.047  10.001  13.142  0.00  0.00    +0.000 NA
ATOM     25  C   UNL     1      50.559   8.873  12.605  0.00  0.00    +0.000 A 
ATOM     26  C   UNL     1      49.932   7.869  13.322  0.00  0.00    +0.000 A 
ATOM     27  C   UNL     1      49.803   8.021  14.724  0.00  0.00    +0.000 A 
ATOM     28  C   UNL     1      49.180   7.182  15.748  0.00  0.00    +0.000 A 
ATOM     29  C   UNL     1      49.289   7.767  16.995  0.00  0.00    +0.000 A 
ATOM     30  S   UNL     1      50.082   9.261  16.980  0.00  0.00    +0.000 S 
ATOM     31  C   UNL     1      50.316   9.208  15.272  0.00  0.00    +0.000 A 
ENDBRANCH  18  28
ENDBRANCH  17  20
ENDBRANCH   1  17
TORSDOF 7
ENDMDL
MODEL 5
REMARK VINA RESULT:    -7.276      2.546      3.087
REMARK INTER + INTRA:         -11.076
REMARK INTER:                 -10.293
REMARK INTRA:                  -0.783
REMARK UNBOUND:                -0.822
REMARK  Name = 
REMARK  8 active torsions:
REMARK  status: ('A' for Active; 'I' for Inactive)
REMARK    1  A    between atoms: C_1  and  C_2
REMARK    2  A    between atoms: C_7  and  C_8
REMARK    3  A    between atoms: N_10  and  C_11
REMARK    4  A    between atoms: C_11  and  C_12
REMARK    5  A    between atoms: C_15  and  N_16
REMARK    6  A    between atoms: N_16  and  C_17
REMARK    7  A    between atoms: C_17  and  C_18
REMARK    8  A    between atoms: C_18  and  C_19
REMARK                            x       y       z     vdW  Elec       q    Type
REMARK                         _______ _______ _______ _____ _____    ______ ____
ROOT
ATOM      1  C   UNL     1      46.534   7.767  13.058  0.00  0.00    +0.000 A 
ATOM      2  C   UNL     1      46.917   6.463  12.744  0.00  0.00    +0.000 A 
ATOM      3  C   UNL     1      46.206   5.713  11.802  0.00  0.00    +0.000 A 
ATOM      4  C   UNL     1      45.086   6.235  11.141  0.00  0.00    +0.000 A 
ATOM      5  C   UNL     1      44.721   7.553  11.443  0.00  0.00    +0.000 A 
ATOM      6  C   UNL     1      45.412   8.301  12.412  0.00  0.00    +0.000 A 
ENDROOT
BRANCH   4   7
ATOM      7  N   UNL     1      44.416   5.548  10.109  0.00  0.00    +0.000 N 
ATOM      8  H   UNL     1      43.413   5.715  10.143  0.00  0.00    +0.000 HD
BRANCH   7   9
ATOM      9  C   UNL     1      44.761   4.131   9.931  0.00  0.00    +0.000 C 
BRANCH   9  10
ATOM     10  C   UNL     1      44.561   3.671   8.481  0.00  0.00    +0.000 C 
BRANCH  10  11
ATOM     11  C   UNL     1      45.769   2.913   7.970  0.00  0.00    +0.000 A 
ATOM     12  C   UNL     1      46.757   3.528   7.196  0.00  0.00    +0.000 A 
ATOM     13  C   UNL     1      47.802   2.757   6.708  0.00  0.00    +0.000 A 
ATOM     14  N   UNL     1      47.928   1.431   6.936  0.00  0.00    +0.000 NA
ATOM     15  C   UNL     1      46.973   0.857   7.693  0.00  0.00    +0.000 A 
ATOM     16  C   UNL     1      45.895   1.543   8.229  0.00  0.00    +0.000 A 
ENDBRANCH  10  11
ENDBRANCH   9  10
ENDBRANCH   7   9
ENDBRANCH   4   7
BRANCH   1  17
ATOM     17  C   UNL     1      47.360   8.575  14.028  0.00  0.00    +0.000 C 
BRANCH  17  20
ATOM     18  C   UNL     1      48.767   8.071  15.962  0.00  0.00    +0.000 C 
ATOM     19  O   UNL     1      48.305   9.025  16.578  0.00  0.00    +0.000 OA
ATOM     20  N   UNL     1      48.363   7.760  14.680  0.00  0.00    +0.000 N 
ATOM     21  H   UNL     1      48.460   6.802  14.386  0.00  0.00    +0.000 HD
BRANCH  18  28
ATOM     22  C   UNL     1      52.284   3.277  18.287  0.00  0.00    +0.000 C 
ATOM     23  C   UNL     1      51.005   3.868  17.777  0.00  0.00    +0.000 A 
ATOM     24  N   UNL     1      49.941   3.031  17.658  0.00  0.00    +0.000 NA
ATOM     25  C   UNL     1      48.777   3.506  17.187  0.00  0.00    +0.000 A 
ATOM     26  C   UNL     1      48.564   4.818  16.800  0.00  0.00    +0.000 A 
ATOM     27  C   UNL     1      49.633   5.738  16.918  0.00  0.00    +0.000 A 
ATOM     28  C   UNL     1      49.749   7.156  16.578  0.00  0.00    +0.000 A 
ATOM     29  C   UNL     1      51.017   7.627  16.859  0.00  0.00    +0.000 A 
ATOM     30  S   UNL     1      52.056   6.452  17.492  0.00  0.00    +0.000 S 
ATOM     31  C   UNL     1      50.845   5.226  17.410  0.00  0.00    +0.000 A 
ENDBRANCH  18  28
ENDBRANCH  17  20
ENDBRANCH   1  17
TORSDOF 7
ENDMDL
MODEL 6
REMARK VINA RESULT:    -7.128      2.194      3.007
REMARK INTER + INTRA:         -10.866
REMARK INTER:                 -10.016
REMARK INTRA:                  -0.850
REMARK UNBOUND:                -0.822
REMARK  Name = 
REMARK  8 active torsions:
REMARK  status: ('A' for Active; 'I' for Inactive)
REMARK    1  A    between atoms: C_1  and  C_2
REMARK    2  A    between atoms: C_7  and  C_8
REMARK    3  A    between atoms: N_10  and  C_11
REMARK    4  A    between atoms: C_11  and  C_12
REMARK    5  A    between atoms: C_15  and  N_16
REMARK    6  A    between atoms: N_16  and  C_17
REMARK    7  A    between atoms: C_17  and  C_18
REMARK    8  A    between atoms: C_18  and  C_19
REMARK                            x       y       z     vdW  Elec       q    Type
REMARK                         _______ _______ _______ _____ _____    ______ ____
ROOT
ATOM      1  C   UNL     1      46.279   4.633  13.575  0.00  0.00    +0.000 A 
ATOM      2  C   UNL     1      45.944   5.853  12.986  0.00  0.00    +0.000 A 
ATOM      3  C   UNL     1      45.237   5.899  11.781  0.00  0.00    +0.000 A 
ATOM      4  C   UNL     1      44.838   4.731  11.118  0.00  0.00    +0.000 A 
ATOM      5  C   UNL     1      45.156   3.510  11.726  0.00  0.00    +0.000 A 
ATOM      6  C   UNL     1      45.894   3.456  12.921  0.00  0.00    +0.000 A 
ENDROOT
BRANCH   4   7
ATOM      7  N   UNL     1      44.031   4.743   9.963  0.00  0.00    +0.000 N 
ATOM      8  H   UNL     1      43.041   4.753  10.202  0.00  0.00    +0.000 HD
BRANCH   7   9
ATOM      9  C   UNL     1      44.364   3.766   8.917  0.00  0.00    +0.000 C 
BRANCH   9  10
ATOM     10  C   UNL     1      45.544   4.231   8.055  0.00  0.00    +0.000 C 
BRANCH  10  11
ATOM     11  C   UNL     1      46.242   3.059   7.395  0.00  0.00    +0.000 A 
ATOM     12  C   UNL     1      46.394   1.828   8.040  0.00  0.00    +0.000 A 
ATOM     13  C   UNL     1      47.100   0.820   7.400  0.00  0.00    +0.000 A 
ATOM     14  N   UNL     1      47.659   0.953   6.177  0.00  0.00    +0.000 NA
ATOM     15  C   UNL     1      47.493   2.142   5.566  0.00  0.00    +0.000 A 
ATOM     16  C   UNL     1      46.800   3.206   6.119  0.00  0.00    +0.000 A 
ENDBRANCH  10  11
ENDBRANCH   9  10
ENDBRANCH   7   9
ENDBRANCH   4   7
BRANCH   1  17
ATOM     17  C   UNL     1      46.983   4.616  14.908  0.00  0.00    +0.000 C 
BRANCH  17  20
ATOM     18  C   UNL     1      48.762   5.859  16.031  0.00  0.00    +0.000 C 
ATOM     19  O   UNL     1      49.118   4.854  16.635  0.00  0.00    +0.000 OA
ATOM     20  N   UNL     1      47.704   5.848  15.145  0.00  0.00    +0.000 N 
ATOM     21  H   UNL     1      47.704   6.545  14.419  0.00  0.00    +0.000 HD
BRANCH  18  28
ATOM     22  C   UNL     1      51.702  11.252  17.775  0.00  0.00    +0.000 C 
ATOM     23  C   UNL     1      50.776  10.099  18.017  0.00  0.00    +0.000 A 
ATOM     24  N   UNL     1      50.216  10.004  19.252  0.00  0.00    +0.000 NA
ATOM     25  C   UNL     1      49.395   8.979  19.527  0.00  0.00    +0.000 A 
ATOM     26  C   UNL     1      49.062   7.978  18.630  0.00  0.00    +0.000 A 
ATOM     27  C   UNL     1      49.604   8.034  17.324  0.00  0.00    +0.000 A 
ATOM     28  C   UNL     1      49.482   7.140  16.172  0.00  0.00    +0.000 A 
ATOM     29  C   UNL     1      50.224   7.611  15.105  0.00  0.00    +0.000 A 
ATOM     30  S   UNL     1      51.054   9.048  15.432  0.00  0.00    +0.000 S 
ATOM     31  C   UNL     1      50.463   9.111  17.052  0.00  0.00    +0.000 A 
ENDBRANCH  18  28
ENDBRANCH  17  20
ENDBRANCH   1  17
TORSDOF 7
ENDMDL
MODEL 7
REMARK VINA RESULT:    -7.060      2.298      3.053
REMARK INTER + INTRA:         -10.772
REMARK INTER:                 -10.085
REMARK INTRA:                  -0.687
REMARK UNBOUND:                -0.822
REMARK  Name = 
REMARK  8 active torsions:
REMARK  status: ('A' for Active; 'I' for Inactive)
REMARK    1  A    between atoms: C_1  and  C_2
REMARK    2  A    between atoms: C_7  and  C_8
REMARK    3  A    between atoms: N_10  and  C_11
REMARK    4  A    between atoms: C_11  and  C_12
REMARK    5  A    between atoms: C_15  and  N_16
REMARK    6  A    between atoms: N_16  and  C_17
REMARK    7  A    between atoms: C_17  and  C_18
REMARK    8  A    between atoms: C_18  and  C_19
REMARK                            x       y       z     vdW  Elec       q    Type
REMARK                         _______ _______ _______ _____ _____    ______ ____
ROOT
ATOM      1  C   UNL     1      46.108   6.147  12.758  0.00  0.00    +0.000 A 
ATOM      2  C   UNL     1      46.138   4.770  12.985  0.00  0.00    +0.000 A 
ATOM      3  C   UNL     1      45.360   3.899  12.215  0.00  0.00    +0.000 A 
ATOM      4  C   UNL     1      44.525   4.368  11.192  0.00  0.00    +0.000 A 
ATOM      5  C   UNL     1      44.519   5.749  10.954  0.00  0.00    +0.000 A 
ATOM      6  C   UNL     1      45.273   6.633  11.745  0.00  0.00    +0.000 A 
ENDROOT
BRANCH   4   7
ATOM      7  N   UNL     1      43.816   3.511  10.328  0.00  0.00    +0.000 N 
ATOM      8  H   UNL     1      43.126   2.961  10.835  0.00  0.00    +0.000 HD
BRANCH   7   9
ATOM      9  C   UNL     1      44.617   2.713   9.390  0.00  0.00    +0.000 C 
BRANCH   9  10
ATOM     10  C   UNL     1      45.340   3.593   8.361  0.00  0.00    +0.000 C 
BRANCH  10  11
ATOM     11  C   UNL     1      46.189   2.761   7.423  0.00  0.00    +0.000 A 
ATOM     12  C   UNL     1      46.653   1.490   7.773  0.00  0.00    +0.000 A 
ATOM     13  C   UNL     1      47.480   0.813   6.888  0.00  0.00    +0.000 A 
ATOM     14  N   UNL     1      47.872   1.309   5.694  0.00  0.00    +0.000 NA
ATOM     15  C   UNL     1      47.406   2.530   5.369  0.00  0.00    +0.000 A 
ATOM     16  C   UNL     1      46.572   3.282   6.180  0.00  0.00    +0.000 A 
ENDBRANCH  10  11
ENDBRANCH   9  10
ENDBRANCH   7   9
ENDBRANCH   4   7
BRANCH   1  17
ATOM     17  C   UNL     1      47.008   7.054  13.560  0.00  0.00    +0.000 C 
BRANCH  17  20
ATOM     18  C   UNL     1      48.726   6.956  15.296  0.00  0.00    +0.000 C 
ATOM     19  O   UNL     1      49.020   8.131  15.106  0.00  0.00    +0.000 OA
ATOM     20  N   UNL     1      47.735   6.321  14.575  0.00  0.00    +0.000 N 
ATOM     21  H   UNL     1      47.280   5.536  15.011  0.00  0.00    +0.000 HD
BRANCH  18  28
ATOM     22  C   UNL     1      52.455   4.197  19.682  0.00  0.00    +0.000 C 
ATOM     23  C   UNL     1      52.226   5.052  18.473  0.00  0.00    +0.000 A 
ATOM     24  N   UNL     1      53.312   5.668  17.935  0.00  0.00    +0.000 NA
ATOM     25  C   UNL     1      53.158   6.460  16.864  0.00  0.00    +0.000 A 
ATOM     26  C   UNL     1      51.947   6.711  16.241  0.00  0.00    +0.000 A 
ATOM     27  C   UNL     1      50.784   6.084  16.748  0.00  0.00    +0.000 A 
ATOM     28  C   UNL     1      49.377   6.158  16.353  0.00  0.00    +0.000 A 
ATOM     29  C   UNL     1      48.594   5.369  17.174  0.00  0.00    +0.000 A 
ATOM     30  S   UNL     1      49.465   4.570  18.385  0.00  0.00    +0.000 S 
ATOM     31  C   UNL     1      50.961   5.259  17.871  0.00  0.00    +0.000 A 
ENDBRANCH  18  28
ENDBRANCH  17  20
ENDBRANCH   1  17
TORSDOF 7
ENDMDL
MODEL 8
REMARK VINA RESULT:    -7.044      5.109      6.624
REMARK INTER + INTRA:         -10.748
REMARK INTER:                  -9.938
REMARK INTRA:                  -0.810
REMARK UNBOUND:                -0.822
REMARK  Name = 
REMARK  8 active torsions:
REMARK  status: ('A' for Active; 'I' for Inactive)
REMARK    1  A    between atoms: C_1  and  C_2
REMARK    2  A    between atoms: C_7  and  C_8
REMARK    3  A    between atoms: N_10  and  C_11
REMARK    4  A    between atoms: C_11  and  C_12
REMARK    5  A    between atoms: C_15  and  N_16
REMARK    6  A    between atoms: N_16  and  C_17
REMARK    7  A    between atoms: C_17  and  C_18
REMARK    8  A    between atoms: C_18  and  C_19
REMARK                            x       y       z     vdW  Elec       q    Type
REMARK                         _______ _______ _______ _____ _____    ______ ____
ROOT
ATOM      1  C   UNL     1      44.470   4.152   9.781  0.00  0.00    +0.000 A 
ATOM      2  C   UNL     1      44.381   2.767   9.923  0.00  0.00    +0.000 A 
ATOM      3  C   UNL     1      45.065   1.911   9.053  0.00  0.00    +0.000 A 
ATOM      4  C   UNL     1      45.861   2.405   8.011  0.00  0.00    +0.000 A 
ATOM      5  C   UNL     1      45.965   3.796   7.889  0.00  0.00    +0.000 A 
ATOM      6  C   UNL     1      45.255   4.662   8.739  0.00  0.00    +0.000 A 
ENDROOT
BRANCH   4   7
ATOM      7  N   UNL     1      46.649   1.575   7.189  0.00  0.00    +0.000 N 
ATOM      8  H   UNL     1      47.451   1.205   7.695  0.00  0.00    +0.000 HD
BRANCH   7   9
ATOM      9  C   UNL     1      46.994   2.100   5.861  0.00  0.00    +0.000 C 
BRANCH   9  10
ATOM     10  C   UNL     1      47.776   1.078   5.027  0.00  0.00    +0.000 C 
BRANCH  10  11
ATOM     11  C   UNL     1      46.909   0.468   3.945  0.00  0.00    +0.000 A 
ATOM     12  C   UNL     1      45.994   1.229   3.212  0.00  0.00    +0.000 A 
ATOM     13  C   UNL     1      45.187   0.591   2.281  0.00  0.00    +0.000 A 
ATOM     14  N   UNL     1      45.227  -0.736   2.035  0.00  0.00    +0.000 NA
ATOM     15  C   UNL     1      46.122  -1.452   2.743  0.00  0.00    +0.000 A 
ATOM     16  C   UNL     1      46.975  -0.907   3.688  0.00  0.00    +0.000 A 
ENDBRANCH  10  11
ENDBRANCH   9  10
ENDBRANCH   7   9
ENDBRANCH   4   7
BRANCH   1  17
ATOM     17  C   UNL     1      43.775   5.050  10.774  0.00  0.00    +0.000 C 
BRANCH  17  20
ATOM     18  C   UNL     1      45.261   6.558  11.996  0.00  0.00    +0.000 C 
ATOM     19  O   UNL     1      45.431   5.718  12.874  0.00  0.00    +0.000 OA
ATOM     20  N   UNL     1      44.451   6.324  10.904  0.00  0.00    +0.000 N 
ATOM     21  H   UNL     1      44.647   6.844  10.065  0.00  0.00    +0.000 HD
BRANCH  18  28
ATOM     22  C   UNL     1      49.242  11.548  11.918  0.00  0.00    +0.000 C 
ATOM     23  C   UNL     1      48.938  10.085  12.035  0.00  0.00    +0.000 A 
ATOM     24  N   UNL     1      49.997   9.242  12.160  0.00  0.00    +0.000 NA
ATOM     25  C   UNL     1      49.780   7.920  12.248  0.00  0.00    +0.000 A 
ATOM     26  C   UNL     1      48.530   7.327  12.222  0.00  0.00    +0.000 A 
ATOM     27  C   UNL     1      47.390   8.158  12.109  0.00  0.00    +0.000 A 
ATOM     28  C   UNL     1      45.961   7.857  12.024  0.00  0.00    +0.000 A 
ATOM     29  C   UNL     1      45.221   9.018  11.902  0.00  0.00    +0.000 A 
ATOM     30  S   UNL     1      46.159  10.425  11.875  0.00  0.00    +0.000 S 
ATOM     31  C   UNL     1      47.632   9.538  12.015  0.00  0.00    +0.000 A 
ENDBRANCH  18  28
ENDBRANCH  17  20
ENDBRANCH   1  17
TORSDOF 7
ENDMDL
MODEL 9
REMARK VINA RESULT:    -6.874      3.623      8.577
REMARK INTER + INTRA:         -10.509
REMARK INTER:                  -8.964
REMARK INTRA:                  -1.545
REMARK UNBOUND:                -0.822
REMARK  Name = 
REMARK  8 active torsions:
REMARK  status: ('A' for Active; 'I' for Inactive)
REMARK    1  A    between atoms: C_1  and  C_2
REMARK    2  A    between atoms: C_7  and  C_8
REMARK    3  A    between atoms: N_10  and  C_11
REMARK    4  A    between atoms: C_11  and  C_12
REMARK    5  A    between atoms: C_15  and  N_16
REMARK    6  A    between atoms: N_16  and  C_17
REMARK    7  A    between atoms: C_17  and  C_18
REMARK    8  A    between atoms: C_18  and  C_19
REMARK                            x       y       z     vdW  Elec       q    Type
REMARK                         _______ _______ _______ _____ _____    ______ ____
ROOT
ATOM      1  C   UNL     1      48.783   8.643  16.583  0.00  0.00    +0.000 A 
ATOM      2  C   UNL     1      48.019   8.668  17.750  0.00  0.00    +0.000 A 
ATOM      3  C   UNL     1      48.432   7.977  18.894  0.00  0.00    +0.000 A 
ATOM      4  C   UNL     1      49.620   7.236  18.916  0.00  0.00    +0.000 A 
ATOM      5  C   UNL     1      50.395   7.234  17.748  0.00  0.00    +0.000 A 
ATOM      6  C   UNL     1      49.970   7.899  16.585  0.00  0.00    +0.000 A 
ENDROOT
BRANCH   4   7
ATOM      7  N   UNL     1      50.119   6.622  20.081  0.00  0.00    +0.000 N 
ATOM      8  H   UNL     1      50.988   7.055  20.386  0.00  0.00    +0.000 HD
BRANCH   7   9
ATOM      9  C   UNL     1      50.174   5.153  20.080  0.00  0.00    +0.000 C 
BRANCH   9  10
ATOM     10  C   UNL     1      48.850   4.532  19.617  0.00  0.00    +0.000 C 
BRANCH  10  11
ATOM     11  C   UNL     1      49.045   3.665  18.390  0.00  0.00    +0.000 A 
ATOM     12  C   UNL     1      47.996   3.374  17.514  0.00  0.00    +0.000 A 
ATOM     13  C   UNL     1      48.233   2.521  16.446  0.00  0.00    +0.000 A 
ATOM     14  N   UNL     1      49.428   1.945  16.195  0.00  0.00    +0.000 NA
ATOM     15  C   UNL     1      50.431   2.245  17.043  0.00  0.00    +0.000 A 
ATOM     16  C   UNL     1      50.295   3.090  18.132  0.00  0.00    +0.000 A 
ENDBRANCH  10  11
ENDBRANCH   9  10
ENDBRANCH   7   9
ENDBRANCH   4   7
BRANCH   1  17
ATOM     17  C   UNL     1      48.347   9.451  15.387  0.00  0.00    +0.000 C 
BRANCH  17  20
ATOM     18  C   UNL     1      47.670   7.905  13.620  0.00  0.00    +0.000 C 
ATOM     19  O   UNL     1      48.841   7.686  13.328  0.00  0.00    +0.000 OA
ATOM     20  N   UNL     1      47.315   8.772  14.633  0.00  0.00    +0.000 N 
ATOM     21  H   UNL     1      46.424   8.621  15.076  0.00  0.00    +0.000 HD
BRANCH  18  28
ATOM     22  C   UNL     1      43.177   3.982  11.342  0.00  0.00    +0.000 C 
ATOM     23  C   UNL     1      44.462   4.265  12.060  0.00  0.00    +0.000 A 
ATOM     24  N   UNL     1      45.112   3.205  12.607  0.00  0.00    +0.000 NA
ATOM     25  C   UNL     1      46.257   3.407  13.278  0.00  0.00    +0.000 A 
ATOM     26  C   UNL     1      46.848   4.644  13.465  0.00  0.00    +0.000 A 
ATOM     27  C   UNL     1      46.223   5.783  12.903  0.00  0.00    +0.000 A 
ATOM     28  C   UNL     1      46.561   7.206  12.940  0.00  0.00    +0.000 A 
ATOM     29  C   UNL     1      45.624   7.951  12.250  0.00  0.00    +0.000 A 
ATOM     30  S   UNL     1      44.373   7.028  11.585  0.00  0.00    +0.000 S 
ATOM     31  C   UNL     1      45.025   5.556  12.206  0.00  0.00    +0.000 A 
ENDBRANCH  18  28
ENDBRANCH  17  20
ENDBRANCH   1  17
TORSDOF 7
ENDMDL
