MODEL 1
REMARK VINA RESULT:    -7.542      0.000      0.000
REMARK INTER + INTRA:         -11.016
REMARK INTER:                  -9.746
REMARK INTRA:                  -1.269
REMARK UNBOUND:                -1.269
REMARK  Name = 
REMARK  7 active torsions:
REMARK  status: ('A' for Active; 'I' for Inactive)
REMARK    1  A    between atoms: C_1  and  C_2
REMARK    2  A    between atoms: C_2  and  N_3
REMARK    3  A    between atoms: C_2  and  C_16
REMARK    4  A    between atoms: C_4  and  C_6
REMARK    5  A    between atoms: N_20  and  C_21
REMARK    6  A    between atoms: C_21  and  C_22
REMARK    7  A    between atoms: C_21  and  C_23
REMARK                            x       y       z     vdW  Elec       q    Type
REMARK                         _______ _______ _______ _____ _____    ______ ____
ROOT
ATOM      1  C   UNL     1      48.436   6.787  18.556  0.00  0.00    +0.000 C 
ATOM      2  C   UNL     1      49.334   6.331  17.403  0.00  0.00    +0.000 C 
ENDROOT
BRANCH   2   3
ATOM      3  C   UNL     1      48.504   5.688  16.308  0.00  0.00    +0.000 A 
ATOM      4  C   UNL     1      47.762   4.532  16.533  0.00  0.00    +0.000 A 
ATOM      5  C   UNL     1      46.953   4.021  15.514  0.00  0.00    +0.000 A 
ATOM      6  C   UNL     1      46.866   4.686  14.293  0.00  0.00    +0.000 A 
ATOM      7  N   UNL     1      45.934   4.234  13.368  0.00  0.00    +0.000 N 
ATOM      8  N   UNL     1      47.594   5.790  14.051  0.00  0.00    +0.000 NA
ATOM      9  C   UNL     1      48.399   6.252  15.040  0.00  0.00    +0.000 A 
ATOM     10  H   UNL     1      46.000   3.252  13.136  0.00  0.00    +0.000 HD
BRANCH   7  11
ATOM     11  C   UNL     1      45.446   5.122  12.318  0.00  0.00    +0.000 C 
ATOM     12  C   UNL     1      44.190   5.791  12.899  0.00  0.00    +0.000 C 
BRANCH  11  13
ATOM     13  C   UNL     1      45.225   4.372  11.017  0.00  0.00    +0.000 A 
ATOM     14  C   UNL     1      45.501   4.991   9.790  0.00  0.00    +0.000 A 
ATOM     15  C   UNL     1      45.249   4.328   8.590  0.00  0.00    +0.000 A 
ATOM     16  C   UNL     1      44.716   3.053   8.645  0.00  0.00    +0.000 A 
ATOM     17  N   UNL     1      44.424   2.418   9.798  0.00  0.00    +0.000 NA
ATOM     18  C   UNL     1      44.678   3.091  10.948  0.00  0.00    +0.000 A 
ENDBRANCH  11  13
ENDBRANCH   7  11
ENDBRANCH   2   3
BRANCH   2  19
ATOM     19  N   UNL     1      50.366   5.397  17.829  0.00  0.00    +0.000 N 
ATOM     20  C   UNL     1      51.620   5.340  17.273  0.00  0.00    +0.000 C 
ATOM     21  O   UNL     1      51.997   6.114  16.398  0.00  0.00    +0.000 OA
ATOM     22  H   UNL     1      50.028   4.546  18.271  0.00  0.00    +0.000 HD
BRANCH  20  23
ATOM     23  C   UNL     1      52.528   4.343  17.852  0.00  0.00    +0.000 A 
ATOM     24  C   UNL     1      53.690   4.752  18.491  0.00  0.00    +0.000 A 
ATOM     25  S   UNL     1      54.598   3.463  19.143  0.00  0.00    +0.000 S 
ATOM     26  C   UNL     1      53.495   2.310  18.550  0.00  0.00    +0.000 A 
ATOM     27  N   UNL     1      53.696   0.981  18.741  0.00  0.00    +0.000 NA
ATOM     28  C   UNL     1      52.790   0.221  18.213  0.00  0.00    +0.000 A 
ATOM     29  N   UNL     1      51.703   0.674  17.516  0.00  0.00    +0.000 N 
ATOM     30  C   UNL     1      51.442   2.010  17.327  0.00  0.00    +0.000 A 
ATOM     31  O   UNL     1      50.431   2.392  16.745  0.00  0.00    +0.000 OA
ATOM     32  C   UNL     1      52.437   2.904  17.885  0.00  0.00    +0.000 A 
ATOM     33  H   UNL     1      51.025   0.028  17.138  0.00  0.00    +0.000 HD
ENDBRANCH  20  23
ENDBRANCH   2  19
TORSDOF 5
ENDMDL
MODEL 2
REMARK VINA RESULT:    -7.447      3.745      8.608
REMARK INTER + INTRA:         -10.893
REMARK INTER:                 -10.062
REMARK INTRA:                  -0.830
REMARK UNBOUND:                -1.269
REMARK  Name = 
REMARK  7 active torsions:
REMARK  status: ('A' for Active; 'I' for Inactive)
REMARK    1  A    between atoms: C_1  and  C_2
REMARK    2  A    between atoms: C_2  and  N_3
REMARK    3  A    between atoms: C_2  and  C_16
REMARK    4  A    between atoms: C_4  and  C_6
REMARK    5  A    between atoms: N_20  and  C_21
REMARK    6  A    between atoms: C_21  and  C_22
REMARK    7  A    between atoms: C_21  and  C_23
REMARK                            x       y       z     vdW  Elec       q    Type
REMARK                         _______ _______ _______ _____ _____    ______ ____
ROOT
ATOM      1  C   UNL     1      49.470   8.328  11.487  0.00  0.00    +0.000 C 
ATOM      2  C   UNL     1      48.190   7.966  12.246  0.00  0.00    +0.000 C 
ENDROOT
BRANCH   2   3
ATOM      3  C   UNL     1      48.513   7.583  13.677  0.00  0.00    +0.000 A 
ATOM      4  C   UNL     1      48.820   8.538  14.642  0.00  0.00    +0.000 A 
ATOM      5  C   UNL     1      49.036   8.140  15.964  0.00  0.00    +0.000 A 
ATOM      6  C   UNL     1      48.911   6.799  16.319  0.00  0.00    +0.000 A 
ATOM      7  N   UNL     1      48.978   6.471  17.666  0.00  0.00    +0.000 N 
ATOM      8  N   UNL     1      48.638   5.860  15.395  0.00  0.00    +0.000 NA
ATOM      9  C   UNL     1      48.465   6.261  14.112  0.00  0.00    +0.000 A 
ATOM     10  H   UNL     1      49.803   6.800  18.149  0.00  0.00    +0.000 HD
BRANCH   7  11
ATOM     11  C   UNL     1      48.391   5.226  18.152  0.00  0.00    +0.000 C 
ATOM     12  C   UNL     1      48.169   5.439  19.658  0.00  0.00    +0.000 C 
BRANCH  11  13
ATOM     13  C   UNL     1      49.256   4.030  17.798  0.00  0.00    +0.000 A 
ATOM     14  C   UNL     1      50.613   4.011  18.152  0.00  0.00    +0.000 A 
ATOM     15  C   UNL     1      51.425   2.941  17.783  0.00  0.00    +0.000 A 
ATOM     16  C   UNL     1      50.860   1.908  17.057  0.00  0.00    +0.000 A 
ATOM     17  N   UNL     1      49.565   1.883  16.683  0.00  0.00    +0.000 NA
ATOM     18  C   UNL     1      48.802   2.941  17.056  0.00  0.00    +0.000 A 
ENDBRANCH  11  13
ENDBRANCH   7  11
ENDBRANCH   2   3
BRANCH   2  19
ATOM     19  N   UNL     1      47.452   6.880  11.617  0.00  0.00    +0.000 N 
ATOM     20  C   UNL     1      46.085   6.855  11.497  0.00  0.00    +0.000 C 
ATOM     21  O   UNL     1      45.367   7.779  11.865  0.00  0.00    +0.000 OA
ATOM     22  H   UNL     1      47.923   5.978  11.614  0.00  0.00    +0.000 HD
BRANCH  20  23
ATOM     23  C   UNL     1      45.527   5.682  10.814  0.00  0.00    +0.000 A 
ATOM     24  C   UNL     1      45.698   5.529   9.446  0.00  0.00    +0.000 A 
ATOM     25  S   UNL     1      45.025   4.085   8.833  0.00  0.00    +0.000 S 
ATOM     26  C   UNL     1      44.438   3.640  10.367  0.00  0.00    +0.000 A 
ATOM     27  N   UNL     1      43.729   2.496  10.544  0.00  0.00    +0.000 NA
ATOM     28  C   UNL     1      43.324   2.298  11.758  0.00  0.00    +0.000 A 
ATOM     29  N   UNL     1      43.569   3.142  12.808  0.00  0.00    +0.000 N 
ATOM     30  C   UNL     1      44.309   4.293  12.682  0.00  0.00    +0.000 A 
ATOM     31  O   UNL     1      44.562   5.004  13.650  0.00  0.00    +0.000 OA
ATOM     32  C   UNL     1      44.773   4.568  11.337  0.00  0.00    +0.000 A 
ATOM     33  H   UNL     1      43.235   2.924  13.735  0.00  0.00    +0.000 HD
ENDBRANCH  20  23
ENDBRANCH   2  19
TORSDOF 5
ENDMDL
MODEL 3
REMARK VINA RESULT:    -7.241      3.855      4.870
REMARK INTER + INTRA:         -10.627
REMARK INTER:                 -10.754
REMARK INTRA:                   0.127
REMARK UNBOUND:                -1.269
REMARK  Name = 
REMARK  7 active torsions:
REMARK  status: ('A' for Active; 'I' for Inactive)
REMARK    1  A    between atoms: C_1  and  C_2
REMARK    2  A    between atoms: C_2  and  N_3
REMARK    3  A    between atoms: C_2  and  C_16
REMARK    4  A    between atoms: C_4  and  C_6
REMARK    5  A    between atoms: N_20  and  C_21
REMARK    6  A    between atoms: C_21  and  C_22
REMARK    7  A    between atoms: C_21  and  C_23
REMARK                            x       y       z     vdW  Elec       q    Type
REMARK                         _______ _______ _______ _____ _____    ______ ____
ROOT
ATOM      1  C   UNL     1      49.375   7.611  12.838  0.00  0.00    +0.000 C 
ATOM      2  C   UNL     1      48.518   6.622  13.636  0.00  0.00    +0.000 C 
ENDROOT
BRANCH   2   3
ATOM      3  C   UNL     1      47.215   6.348  12.911  0.00  0.00    +0.000 A 
ATOM      4  C   UNL     1      46.603   7.309  12.110  0.00  0.00    +0.000 A 
ATOM      5  C   UNL     1      45.443   6.981  11.402  0.00  0.00    +0.000 A 
ATOM      6  C   UNL     1      44.923   5.691  11.473  0.00  0.00    +0.000 A 
ATOM      7  N   UNL     1      43.865   5.366  10.634  0.00  0.00    +0.000 N 
ATOM      8  N   UNL     1      45.488   4.758  12.260  0.00  0.00    +0.000 NA
ATOM      9  C   UNL     1      46.593   5.104  12.965  0.00  0.00    +0.000 A 
ATOM     10  H   UNL     1      43.065   5.983  10.693  0.00  0.00    +0.000 HD
BRANCH   7  11
ATOM     11  C   UNL     1      43.593   3.974  10.296  0.00  0.00    +0.000 C 
ATOM     12  C   UNL     1      43.443   3.248  11.642  0.00  0.00    +0.000 C 
BRANCH  11  13
ATOM     13  C   UNL     1      44.665   3.406   9.382  0.00  0.00    +0.000 A 
ATOM     14  C   UNL     1      45.320   4.236   8.461  0.00  0.00    +0.000 A 
ATOM     15  C   UNL     1      46.266   3.710   7.583  0.00  0.00    +0.000 A 
ATOM     16  C   UNL     1      46.533   2.354   7.642  0.00  0.00    +0.000 A 
ATOM     17  N   UNL     1      45.925   1.513   8.501  0.00  0.00    +0.000 NA
ATOM     18  C   UNL     1      45.008   2.055   9.341  0.00  0.00    +0.000 A 
ENDBRANCH  11  13
ENDBRANCH   7  11
ENDBRANCH   2   3
BRANCH   2  19
ATOM     19  N   UNL     1      48.225   7.092  14.982  0.00  0.00    +0.000 N 
ATOM     20  C   UNL     1      49.001   6.802  16.076  0.00  0.00    +0.000 C 
ATOM     21  O   UNL     1      50.045   6.161  16.003  0.00  0.00    +0.000 OA
ATOM     22  H   UNL     1      47.248   7.310  15.164  0.00  0.00    +0.000 HD
BRANCH  20  23
ATOM     23  C   UNL     1      48.552   7.382  17.347  0.00  0.00    +0.000 A 
ATOM     24  C   UNL     1      48.457   8.759  17.485  0.00  0.00    +0.000 A 
ATOM     25  S   UNL     1      47.873   9.252  19.011  0.00  0.00    +0.000 S 
ATOM     26  C   UNL     1      47.775   7.643  19.557  0.00  0.00    +0.000 A 
ATOM     27  N   UNL     1      47.363   7.352  20.818  0.00  0.00    +0.000 NA
ATOM     28  C   UNL     1      47.363   6.089  21.103  0.00  0.00    +0.000 A 
ATOM     29  N   UNL     1      47.735   5.095  20.238  0.00  0.00    +0.000 N 
ATOM     30  C   UNL     1      48.126   5.340  18.944  0.00  0.00    +0.000 A 
ATOM     31  O   UNL     1      48.401   4.428  18.171  0.00  0.00    +0.000 OA
ATOM     32  C   UNL     1      48.159   6.743  18.579  0.00  0.00    +0.000 A 
ATOM     33  H   UNL     1      47.700   4.126  20.519  0.00  0.00    +0.000 HD
ENDBRANCH  20  23
ENDBRANCH   2  19
TORSDOF 5
ENDMDL
MODEL 4
REMARK VINA RESULT:    -7.181      3.756      9.177
REMARK INTER + INTRA:         -10.550
REMARK INTER:                  -9.587
REMARK INTRA:                  -0.962
REMARK UNBOUND:                -1.269
REMARK  Name = 
REMARK  7 active torsions:
REMARK  status: ('A' for Active; 'I' for Inactive)
REMARK    1  A    between atoms: C_1  and  C_2
REMARK    2  A    between atoms: C_2  and  N_3
REMARK    3  A    between atoms: C_2  and  C_16
REMARK    4  A    between atoms: C_4  and  C_6
REMARK    5  A    between atoms: N_20  and  C_21
REMARK    6  A    between atoms: C_21  and  C_22
REMARK    7  A    between atoms: C_21  and  C_23
REMARK                            x       y       z     vdW  Elec       q    Type
REMARK                         _______ _______ _______ _____ _____    ______ ____
ROOT
ATOM      1  C   UNL     1      47.905   8.243  11.882  0.00  0.00    +0.000 C 
ATOM      2  C   UNL     1      47.151   7.498  12.988  0.00  0.00    +0.000 C 
ENDROOT
BRANCH   2   3
ATOM      3  C   UNL     1      48.100   7.108  14.105  0.00  0.00    +0.000 A 
ATOM      4  C   UNL     1      49.026   8.006  14.630  0.00  0.00    +0.000 A 
ATOM      5  C   UNL     1      49.826   7.621  15.709  0.00  0.00    +0.000 A 
ATOM      6  C   UNL     1      49.672   6.359  16.277  0.00  0.00    +0.000 A 
ATOM      7  N   UNL     1      50.373   6.077  17.442  0.00  0.00    +0.000 N 
ATOM      8  N   UNL     1      48.799   5.471  15.769  0.00  0.00    +0.000 NA
ATOM      9  C   UNL     1      48.055   5.850  14.700  0.00  0.00    +0.000 A 
ATOM     10  H   UNL     1      51.372   6.229  17.391  0.00  0.00    +0.000 HD
BRANCH   7  11
ATOM     11  C   UNL     1      49.919   5.019  18.338  0.00  0.00    +0.000 C 
ATOM     12  C   UNL     1      50.123   5.570  19.759  0.00  0.00    +0.000 C 
BRANCH  11  13
ATOM     13  C   UNL     1      50.631   3.709  18.055  0.00  0.00    +0.000 A 
ATOM     14  C   UNL     1      51.993   3.567  18.355  0.00  0.00    +0.000 A 
ATOM     15  C   UNL     1      52.666   2.386  18.047  0.00  0.00    +0.000 A 
ATOM     16  C   UNL     1      51.958   1.367  17.436  0.00  0.00    +0.000 A 
ATOM     17  N   UNL     1      50.651   1.457  17.118  0.00  0.00    +0.000 NA
ATOM     18  C   UNL     1      50.025   2.621  17.428  0.00  0.00    +0.000 A 
ENDBRANCH  11  13
ENDBRANCH   7  11
ENDBRANCH   2   3
BRANCH   2  19
ATOM     19  N   UNL     1      46.472   6.306  12.502  0.00  0.00    +0.000 N 
ATOM     20  C   UNL     1      45.188   6.303  12.017  0.00  0.00    +0.000 C 
ATOM     21  O   UNL     1      44.516   7.324  11.903  0.00  0.00    +0.000 OA
ATOM     22  H   UNL     1      46.816   5.425  12.877  0.00  0.00    +0.000 HD
BRANCH  20  23
ATOM     23  C   UNL     1      44.684   5.005  11.554  0.00  0.00    +0.000 A 
ATOM     24  C   UNL     1      43.904   4.224  12.395  0.00  0.00    +0.000 A 
ATOM     25  S   UNL     1      43.368   2.773  11.674  0.00  0.00    +0.000 S 
ATOM     26  C   UNL     1      44.202   3.115  10.231  0.00  0.00    +0.000 A 
ATOM     27  N   UNL     1      44.183   2.249   9.186  0.00  0.00    +0.000 NA
ATOM     28  C   UNL     1      44.883   2.627   8.163  0.00  0.00    +0.000 A 
ATOM     29  N   UNL     1      45.594   3.795   8.095  0.00  0.00    +0.000 N 
ATOM     30  C   UNL     1      45.615   4.715   9.115  0.00  0.00    +0.000 A 
ATOM     31  O   UNL     1      46.216   5.780   9.008  0.00  0.00    +0.000 OA
ATOM     32  C   UNL     1      44.860   4.331  10.291  0.00  0.00    +0.000 A 
ATOM     33  H   UNL     1      46.111   4.037   7.262  0.00  0.00    +0.000 HD
ENDBRANCH  20  23
ENDBRANCH   2  19
TORSDOF 5
ENDMDL
MODEL 5
REMARK VINA RESULT:    -7.170      4.074      5.738
REMARK INTER + INTRA:         -10.536
REMARK INTER:                 -10.432
REMARK INTRA:                  -0.104
REMARK UNBOUND:                -1.269
REMARK  Name = 
REMARK  7 active torsions:
REMARK  status: ('A' for Active; 'I' for Inactive)
REMARK    1  A    between atoms: C_1  and  C_2
REMARK    2  A    between atoms: C_2  and  N_3
REMARK    3  A    between atoms: C_2  and  C_16
REMARK    4  A    between atoms: C_4  and  C_6
REMARK    5  A    between atoms: N_20  and  C_21
REMARK    6  A    between atoms: C_21  and  C_22
REMARK    7  A    between atoms: C_21  and  C_23
REMARK                            x       y       z     vdW  Elec       q    Type
REMARK                         _______ _______ _______ _____ _____    ______ ____
ROOT
ATOM      1  C   UNL     1      49.284   7.678  12.932  0.00  0.00    +0.000 C 
ATOM      2  C   UNL     1      48.468   6.610  13.667  0.00  0.00    +0.000 C 
ENDROOT
BRANCH   2   3
ATOM      3  C   UNL     1      47.182   6.319  12.917  0.00  0.00    +0.000 A 
ATOM      4  C   UNL     1      46.567   7.276  12.113  0.00  0.00    +0.000 A 
ATOM      5  C   UNL     1      45.426   6.934  11.383  0.00  0.00    +0.000 A 
ATOM      6  C   UNL     1      44.927   5.635  11.434  0.00  0.00    +0.000 A 
ATOM      7  N   UNL     1      43.890   5.298  10.575  0.00  0.00    +0.000 N 
ATOM      8  N   UNL     1      45.495   4.704  12.223  0.00  0.00    +0.000 NA
ATOM      9  C   UNL     1      46.581   5.064  12.951  0.00  0.00    +0.000 A 
ATOM     10  H   UNL     1      43.078   5.900  10.624  0.00  0.00    +0.000 HD
BRANCH   7  11
ATOM     11  C   UNL     1      43.649   3.904  10.220  0.00  0.00    +0.000 C 
ATOM     12  C   UNL     1      43.505   3.161  11.558  0.00  0.00    +0.000 C 
BRANCH  11  13
ATOM     13  C   UNL     1      44.737   3.368   9.308  0.00  0.00    +0.000 A 
ATOM     14  C   UNL     1      45.383   4.221   8.402  0.00  0.00    +0.000 A 
ATOM     15  C   UNL     1      46.345   3.725   7.524  0.00  0.00    +0.000 A 
ATOM     16  C   UNL     1      46.637   2.373   7.568  0.00  0.00    +0.000 A 
ATOM     17  N   UNL     1      46.038   1.510   8.412  0.00  0.00    +0.000 NA
ATOM     18  C   UNL     1      45.105   2.024   9.252  0.00  0.00    +0.000 A 
ENDBRANCH  11  13
ENDBRANCH   7  11
ENDBRANCH   2   3
BRANCH   2  19
ATOM     19  N   UNL     1      48.146   6.992  15.034  0.00  0.00    +0.000 N 
ATOM     20  C   UNL     1      48.948   6.713  16.113  0.00  0.00    +0.000 C 
ATOM     21  O   UNL     1      50.039   6.161  16.007  0.00  0.00    +0.000 OA
ATOM     22  H   UNL     1      47.156   7.123  15.229  0.00  0.00    +0.000 HD
BRANCH  20  23
ATOM     23  C   UNL     1      48.462   7.196  17.410  0.00  0.00    +0.000 A 
ATOM     24  C   UNL     1      48.289   6.307  18.461  0.00  0.00    +0.000 A 
ATOM     25  S   UNL     1      47.765   7.051  19.904  0.00  0.00    +0.000 S 
ATOM     26  C   UNL     1      47.703   8.581  19.160  0.00  0.00    +0.000 A 
ATOM     27  N   UNL     1      47.297   9.680  19.846  0.00  0.00    +0.000 NA
ATOM     28  C   UNL     1      47.275  10.770  19.146  0.00  0.00    +0.000 A 
ATOM     29  N   UNL     1      47.624  10.855  17.825  0.00  0.00    +0.000 N 
ATOM     30  C   UNL     1      48.072   9.776  17.102  0.00  0.00    +0.000 A 
ATOM     31  O   UNL     1      48.432   9.889  15.934  0.00  0.00    +0.000 OA
ATOM     32  C   UNL     1      48.100   8.526  17.836  0.00  0.00    +0.000 A 
ATOM     33  H   UNL     1      47.596  11.739  17.339  0.00  0.00    +0.000 HD
ENDBRANCH  20  23
ENDBRANCH   2  19
TORSDOF 5
ENDMDL
MODEL 6
REMARK VINA RESULT:    -6.790      4.021      9.595
REMARK INTER + INTRA:         -10.044
REMARK INTER:                  -8.845
REMARK INTRA:                  -1.199
REMARK UNBOUND:                -1.269
REMARK  Name = 
REMARK  7 active torsions:
REMARK  status: ('A' for Active; 'I' for Inactive)
REMARK    1  A    between atoms: C_1  and  C_2
REMARK    2  A    between atoms: C_2  and  N_3
REMARK    3  A    between atoms: C_2  and  C_16
REMARK    4  A    between atoms: C_4  and  C_6
REMARK    5  A    between atoms: N_20  and  C_21
REMARK    6  A    between atoms: C_21  and  C_22
REMARK    7  A    between atoms: C_21  and  C_23
REMARK                            x       y       z     vdW  Elec       q    Type
REMARK                         _______ _______ _______ _____ _____    ______ ____
ROOT
ATOM      1  C   UNL     1      48.804   7.854  11.541  0.00  0.00    +0.000 C 
ATOM      2  C   UNL     1      47.634   7.607  12.498  0.00  0.00    +0.000 C 
ENDROOT
BRANCH   2   3
ATOM      3  C   UNL     1      48.136   7.473  13.923  0.00  0.00    +0.000 A 
ATOM      4  C   UNL     1      48.388   8.586  14.721  0.00  0.00    +0.000 A 
ATOM      5  C   UNL     1      48.776   8.408  16.051  0.00  0.00    +0.000 A 
ATOM      6  C   UNL     1      48.877   7.125  16.584  0.00  0.00    +0.000 A 
ATOM      7  N   UNL     1      49.110   7.000  17.947  0.00  0.00    +0.000 N 
ATOM      8  N   UNL     1      48.659   6.038  15.821  0.00  0.00    +0.000 NA
ATOM      9  C   UNL     1      48.316   6.230  14.523  0.00  0.00    +0.000 A 
ATOM     10  H   UNL     1      49.920   7.498  18.292  0.00  0.00    +0.000 HD
BRANCH   7  11
ATOM     11  C   UNL     1      48.754   5.770  18.646  0.00  0.00    +0.000 C 
ATOM     12  C   UNL     1      47.371   6.036  19.263  0.00  0.00    +0.000 C 
BRANCH  11  13
ATOM     13  C   UNL     1      49.828   5.367  19.640  0.00  0.00    +0.000 A 
ATOM     14  C   UNL     1      49.559   5.385  21.016  0.00  0.00    +0.000 A 
ATOM     15  C   UNL     1      50.557   5.069  21.937  0.00  0.00    +0.000 A 
ATOM     16  C   UNL     1      51.812   4.744  21.457  0.00  0.00    +0.000 A 
ATOM     17  N   UNL     1      52.125   4.721  20.145  0.00  0.00    +0.000 NA
ATOM     18  C   UNL     1      51.133   5.036  19.276  0.00  0.00    +0.000 A 
ENDBRANCH  11  13
ENDBRANCH   7  11
ENDBRANCH   2   3
BRANCH   2  19
ATOM     19  N   UNL     1      46.864   6.421  12.151  0.00  0.00    +0.000 N 
ATOM     20  C   UNL     1      45.492   6.383  12.124  0.00  0.00    +0.000 C 
ATOM     21  O   UNL     1      44.794   7.368  12.342  0.00  0.00    +0.000 OA
ATOM     22  H   UNL     1      47.339   5.534  12.301  0.00  0.00    +0.000 HD
BRANCH  20  23
ATOM     23  C   UNL     1      44.898   5.100  11.731  0.00  0.00    +0.000 A 
ATOM     24  C   UNL     1      44.164   4.365  12.651  0.00  0.00    +0.000 A 
ATOM     25  S   UNL     1      43.509   2.927  12.006  0.00  0.00    +0.000 S 
ATOM     26  C   UNL     1      44.226   3.213  10.489  0.00  0.00    +0.000 A 
ATOM     27  N   UNL     1      44.080   2.333   9.466  0.00  0.00    +0.000 NA
ATOM     28  C   UNL     1      44.702   2.667   8.379  0.00  0.00    +0.000 A 
ATOM     29  N   UNL     1      45.451   3.803   8.228  0.00  0.00    +0.000 N 
ATOM     30  C   UNL     1      45.598   4.737   9.225  0.00  0.00    +0.000 A 
ATOM     31  O   UNL     1      46.229   5.774   9.047  0.00  0.00    +0.000 OA
ATOM     32  C   UNL     1      44.934   4.401  10.469  0.00  0.00    +0.000 A 
ATOM     33  H   UNL     1      45.901   4.012   7.349  0.00  0.00    +0.000 HD
ENDBRANCH  20  23
ENDBRANCH   2  19
TORSDOF 5
ENDMDL
MODEL 7
REMARK VINA RESULT:    -6.774      4.179      8.665
REMARK INTER + INTRA:         -10.024
REMARK INTER:                  -9.566
REMARK INTRA:                  -0.457
REMARK UNBOUND:                -1.269
REMARK  Name = 
REMARK  7 active torsions:
REMARK  status: ('A' for Active; 'I' for Inactive)
REMARK    1  A    between atoms: C_1  and  C_2
REMARK    2  A    between atoms: C_2  and  N_3
REMARK    3  A    between atoms: C_2  and  C_16
REMARK    4  A    between atoms: C_4  and  C_6
REMARK    5  A    between atoms: N_20  and  C_21
REMARK    6  A    between atoms: C_21  and  C_22
REMARK    7  A    between atoms: C_21  and  C_23
REMARK                            x       y       z     vdW  Elec       q    Type
REMARK                         _______ _______ _______ _____ _____    ______ ____
ROOT
ATOM      1  C   UNL     1      49.156   7.840  11.340  0.00  0.00    +0.000 C 
ATOM      2  C   UNL     1      47.953   7.798  12.287  0.00  0.00    +0.000 C 
ENDROOT
BRANCH   2   3
ATOM      3  C   UNL     1      48.416   7.850  13.731  0.00  0.00    +0.000 A 
ATOM      4  C   UNL     1      47.899   8.773  14.636  0.00  0.00    +0.000 A 
ATOM      5  C   UNL     1      48.302   8.729  15.973  0.00  0.00    +0.000 A 
ATOM      6  C   UNL     1      49.190   7.746  16.403  0.00  0.00    +0.000 A 
ATOM      7  N   UNL     1      49.440   7.642  17.765  0.00  0.00    +0.000 N 
ATOM      8  N   UNL     1      49.717   6.861  15.538  0.00  0.00    +0.000 NA
ATOM      9  C   UNL     1      49.340   6.940  14.238  0.00  0.00    +0.000 A 
ATOM     10  H   UNL     1      49.747   8.495  18.212  0.00  0.00    +0.000 HD
BRANCH   7  11
ATOM     11  C   UNL     1      49.939   6.393  18.329  0.00  0.00    +0.000 C 
ATOM     12  C   UNL     1      51.377   6.253  17.805  0.00  0.00    +0.000 C 
BRANCH  11  13
ATOM     13  C   UNL     1      49.024   5.228  17.995  0.00  0.00    +0.000 A 
ATOM     14  C   UNL     1      49.553   4.047  17.456  0.00  0.00    +0.000 A 
ATOM     15  C   UNL     1      48.712   2.995  17.097  0.00  0.00    +0.000 A 
ATOM     16  C   UNL     1      47.350   3.152  17.280  0.00  0.00    +0.000 A 
ATOM     17  N   UNL     1      46.791   4.270  17.784  0.00  0.00    +0.000 NA
ATOM     18  C   UNL     1      47.636   5.276  18.122  0.00  0.00    +0.000 A 
ENDBRANCH  11  13
ENDBRANCH   7  11
ENDBRANCH   2   3
BRANCH   2  19
ATOM     19  N   UNL     1      47.126   6.617  12.094  0.00  0.00    +0.000 N 
ATOM     20  C   UNL     1      45.757   6.621  12.184  0.00  0.00    +0.000 C 
ATOM     21  O   UNL     1      45.105   7.641  12.386  0.00  0.00    +0.000 OA
ATOM     22  H   UNL     1      47.589   5.728  12.269  0.00  0.00    +0.000 HD
BRANCH  20  23
ATOM     23  C   UNL     1      45.098   5.333  11.938  0.00  0.00    +0.000 A 
ATOM     24  C   UNL     1      44.440   4.682  12.971  0.00  0.00    +0.000 A 
ATOM     25  S   UNL     1      43.692   3.225  12.491  0.00  0.00    +0.000 S 
ATOM     26  C   UNL     1      44.265   3.390  10.896  0.00  0.00    +0.000 A 
ATOM     27  N   UNL     1      44.000   2.449   9.954  0.00  0.00    +0.000 NA
ATOM     28  C   UNL     1      44.521   2.693   8.793  0.00  0.00    +0.000 A 
ATOM     29  N   UNL     1      45.277   3.794   8.494  0.00  0.00    +0.000 N 
ATOM     30  C   UNL     1      45.542   4.786   9.407  0.00  0.00    +0.000 A 
ATOM     31  O   UNL     1      46.177   5.791   9.099  0.00  0.00    +0.000 OA
ATOM     32  C   UNL     1      44.995   4.553  10.728  0.00  0.00    +0.000 A 
ATOM     33  H   UNL     1      45.645   3.931   7.564  0.00  0.00    +0.000 HD
ENDBRANCH  20  23
ENDBRANCH   2  19
TORSDOF 5
ENDMDL
MODEL 8
REMARK VINA RESULT:    -6.665      4.285      9.402
REMARK INTER + INTRA:          -9.883
REMARK INTER:                  -8.707
REMARK INTRA:                  -1.176
REMARK UNBOUND:                -1.269
REMARK  Name = 
REMARK  7 active torsions:
REMARK  status: ('A' for Active; 'I' for Inactive)
REMARK    1  A    between atoms: C_1  and  C_2
REMARK    2  A    between atoms: C_2  and  N_3
REMARK    3  A    between atoms: C_2  and  C_16
REMARK    4  A    between atoms: C_4  and  C_6
REMARK    5  A    between atoms: N_20  and  C_21
REMARK    6  A    between atoms: C_21  and  C_22
REMARK    7  A    between atoms: C_21  and  C_23
REMARK                            x       y       z     vdW  Elec       q    Type
REMARK                         _______ _______ _______ _____ _____    ______ ____
ROOT
ATOM      1  C   UNL     1      48.165   3.177  16.648  0.00  0.00    +0.000 C 
ATOM      2  C   UNL     1      48.193   4.649  16.222  0.00  0.00    +0.000 C 
ENDROOT
BRANCH   2   3
ATOM      3  C   UNL     1      47.940   5.549  17.415  0.00  0.00    +0.000 A 
ATOM      4  C   UNL     1      47.397   5.063  18.601  0.00  0.00    +0.000 A 
ATOM      5  C   UNL     1      47.254   5.918  19.697  0.00  0.00    +0.000 A 
ATOM      6  C   UNL     1      47.685   7.240  19.613  0.00  0.00    +0.000 A 
ATOM      7  N   UNL     1      47.670   8.007  20.770  0.00  0.00    +0.000 N 
ATOM      8  N   UNL     1      48.191   7.733  18.468  0.00  0.00    +0.000 NA
ATOM      9  C   UNL     1      48.290   6.897  17.404  0.00  0.00    +0.000 A 
ATOM     10  H   UNL     1      46.781   8.044  21.250  0.00  0.00    +0.000 HD
BRANCH   7  11
ATOM     11  C   UNL     1      48.524   9.184  20.885  0.00  0.00    +0.000 C 
ATOM     12  C   UNL     1      49.278   9.015  22.213  0.00  0.00    +0.000 C 
BRANCH  11  13
ATOM     13  C   UNL     1      47.719  10.466  20.768  0.00  0.00    +0.000 A 
ATOM     14  C   UNL     1      46.334  10.413  20.557  0.00  0.00    +0.000 A 
ATOM     15  C   UNL     1      45.597  11.585  20.395  0.00  0.00    +0.000 A 
ATOM     16  C   UNL     1      46.268  12.793  20.443  0.00  0.00    +0.000 A 
ATOM     17  N   UNL     1      47.599  12.898  20.634  0.00  0.00    +0.000 NA
ATOM     18  C   UNL     1      48.287  11.739  20.785  0.00  0.00    +0.000 A 
ENDBRANCH  11  13
ENDBRANCH   7  11
ENDBRANCH   2   3
BRANCH   2  19
ATOM     19  N   UNL     1      47.221   4.951  15.182  0.00  0.00    +0.000 N 
ATOM     20  C   UNL     1      47.515   5.661  14.045  0.00  0.00    +0.000 C 
ATOM     21  O   UNL     1      48.646   6.059  13.782  0.00  0.00    +0.000 OA
ATOM     22  H   UNL     1      46.249   4.963  15.484  0.00  0.00    +0.000 HD
BRANCH  20  23
ATOM     23  C   UNL     1      46.405   5.848  13.104  0.00  0.00    +0.000 A 
ATOM     24  C   UNL     1      46.035   7.126  12.713  0.00  0.00    +0.000 A 
ATOM     25  S   UNL     1      44.759   7.149  11.580  0.00  0.00    +0.000 S 
ATOM     26  C   UNL     1      44.624   5.453  11.612  0.00  0.00    +0.000 A 
ATOM     27  N   UNL     1      43.685   4.808  10.872  0.00  0.00    +0.000 NA
ATOM     28  C   UNL     1      43.682   3.521  11.014  0.00  0.00    +0.000 A 
ATOM     29  N   UNL     1      44.535   2.825  11.828  0.00  0.00    +0.000 N 
ATOM     30  C   UNL     1      45.520   3.433  12.569  0.00  0.00    +0.000 A 
ATOM     31  O   UNL     1      46.309   2.781  13.248  0.00  0.00    +0.000 OA
ATOM     32  C   UNL     1      45.556   4.877  12.456  0.00  0.00    +0.000 A 
ATOM     33  H   UNL     1      44.488   1.818  11.885  0.00  0.00    +0.000 HD
ENDBRANCH  20  23
ENDBRANCH   2  19
TORSDOF 5
ENDMDL
MODEL 9
REMARK VINA RESULT:    -6.484      4.127      6.192
REMARK INTER + INTRA:          -9.648
REMARK INTER:                  -8.488
REMARK INTRA:                  -1.161
REMARK UNBOUND:                -1.269
REMARK  Name = 
REMARK  7 active torsions:
REMARK  status: ('A' for Active; 'I' for Inactive)
REMARK    1  A    between atoms: C_1  and  C_2
REMARK    2  A    between atoms: C_2  and  N_3
REMARK    3  A    between atoms: C_2  and  C_16
REMARK    4  A    between atoms: C_4  and  C_6
REMARK    5  A    between atoms: N_20  and  C_21
REMARK    6  A    between atoms: C_21  and  C_22
REMARK    7  A    between atoms: C_21  and  C_23
REMARK                            x       y       z     vdW  Elec       q    Type
REMARK                         _______ _______ _______ _____ _____    ______ ____
ROOT
ATOM      1  C   UNL     1      50.198   7.907  15.211  0.00  0.00    +0.000 C 
ATOM      2  C   UNL     1      49.370   7.046  16.170  0.00  0.00    +0.000 C 
ENDROOT
BRANCH   2   3
ATOM      3  C   UNL     1      48.392   6.184  15.395  0.00  0.00    +0.000 A 
ATOM      4  C   UNL     1      47.879   5.001  15.920  0.00  0.00    +0.000 A 
ATOM      5  C   UNL     1      46.922   4.282  15.198  0.00  0.00    +0.000 A 
ATOM      6  C   UNL     1      46.460   4.766  13.977  0.00  0.00    +0.000 A 
ATOM      7  N   UNL     1      45.399   4.106  13.371  0.00  0.00    +0.000 N 
ATOM      8  N   UNL     1      46.961   5.895  13.444  0.00  0.00    +0.000 NA
ATOM      9  C   UNL     1      47.914   6.561  14.143  0.00  0.00    +0.000 A 
ATOM     10  H   UNL     1      45.533   3.113  13.234  0.00  0.00    +0.000 HD
BRANCH   7  11
ATOM     11  C   UNL     1      44.565   4.795  12.392  0.00  0.00    +0.000 C 
ATOM     12  C   UNL     1      43.136   4.727  12.954  0.00  0.00    +0.000 C 
BRANCH  11  13
ATOM     13  C   UNL     1      44.733   4.200  11.005  0.00  0.00    +0.000 A 
ATOM     14  C   UNL     1      45.302   4.961   9.975  0.00  0.00    +0.000 A 
ATOM     15  C   UNL     1      45.409   4.441   8.687  0.00  0.00    +0.000 A 
ATOM     16  C   UNL     1      44.935   3.162   8.455  0.00  0.00    +0.000 A 
ATOM     17  N   UNL     1      44.372   2.393   9.408  0.00  0.00    +0.000 NA
ATOM     18  C   UNL     1      44.280   2.930  10.650  0.00  0.00    +0.000 A 
ENDBRANCH  11  13
ENDBRANCH   7  11
ENDBRANCH   2   3
BRANCH   2  19
ATOM     19  N   UNL     1      48.638   7.838  17.147  0.00  0.00    +0.000 N 
ATOM     20  C   UNL     1      49.060   8.037  18.437  0.00  0.00    +0.000 C 
ATOM     21  O   UNL     1      50.126   7.604  18.865  0.00  0.00    +0.000 OA
ATOM     22  H   UNL     1      47.638   7.920  16.980  0.00  0.00    +0.000 HD
BRANCH  20  23
ATOM     23  C   UNL     1      48.194   8.882  19.267  0.00  0.00    +0.000 A 
ATOM     24  C   UNL     1      47.738   8.417  20.492  0.00  0.00    +0.000 A 
ATOM     25  S   UNL     1      46.785   9.550  21.340  0.00  0.00    +0.000 S 
ATOM     26  C   UNL     1      46.907  10.683  20.077  0.00  0.00    +0.000 A 
ATOM     27  N   UNL     1      46.284  11.888  20.150  0.00  0.00    +0.000 NA
ATOM     28  C   UNL     1      46.443  12.637  19.106  0.00  0.00    +0.000 A 
ATOM     29  N   UNL     1      47.170  12.289  18.000  0.00  0.00    +0.000 N 
ATOM     30  C   UNL     1      47.843  11.095  17.896  0.00  0.00    +0.000 A 
ATOM     31  O   UNL     1      48.534  10.829  16.917  0.00  0.00    +0.000 OA
ATOM     32  C   UNL     1      47.684  10.212  19.034  0.00  0.00    +0.000 A 
ATOM     33  H   UNL     1      47.265  12.925  17.222  0.00  0.00    +0.000 HD
ENDBRANCH  20  23
ENDBRANCH   2  19
TORSDOF 5
ENDMDL
