MODEL 1
REMARK VINA RESULT:    -7.205      0.000      0.000
REMARK INTER + INTRA:          -8.457
REMARK INTER:                  -8.469
REMARK INTRA:                   0.012
REMARK UNBOUND:                 0.012
REMARK  Name = 
REMARK  5 active torsions:
REMARK  status: ('A' for Active; 'I' for Inactive)
REMARK    1  A    between atoms: C_1  and  C_2
REMARK    2  A    between atoms: C_2  and  C_3
REMARK    3  A    between atoms: C_2  and  N_9
REMARK    4  A    between atoms: N_9  and  C_10
REMARK    5  A    between atoms: C_11  and  C_13
REMARK                            x       y       z     vdW  Elec       q    Type
REMARK                         _______ _______ _______ _____ _____    ______ ____
ROOT
ATOM      1  N   UNL     1      45.266   5.251  12.968  0.00  0.00    +0.000 N 
ATOM      2  C   UNL     1      45.092   6.700  12.917  0.00  0.00    +0.000 C 
ATOM      3  C   UNL     1      46.391   4.599  13.504  0.00  0.00    +0.000 C 
ATOM      4  O   UNL     1      46.498   3.376  13.460  0.00  0.00    +0.000 OA
ENDROOT
BRANCH   3   5
ATOM      5  C   UNL     1      47.454   5.385  14.154  0.00  0.00    +0.000 A 
ATOM      6  C   UNL     1      48.160   6.406  13.537  0.00  0.00    +0.000 A 
ATOM      7  S   UNL     1      49.291   7.175  14.558  0.00  0.00    +0.000 S 
ATOM      8  C   UNL     1      48.749   6.297  15.907  0.00  0.00    +0.000 A 
ATOM      9  N   UNL     1      49.234   6.556  17.150  0.00  0.00    +0.000 NA
ATOM     10  C   UNL     1      48.668   5.875  18.089  0.00  0.00    +0.000 A 
ATOM     11  N   UNL     1      47.693   4.933  17.897  0.00  0.00    +0.000 N 
ATOM     12  C   UNL     1      47.265   4.539  16.640  0.00  0.00    +0.000 A 
ATOM     13  O   UNL     1      46.563   3.546  16.495  0.00  0.00    +0.000 OA
ATOM     14  C   UNL     1      47.791   5.359  15.560  0.00  0.00    +0.000 A 
ATOM     15  H   UNL     1      47.331   4.397  18.669  0.00  0.00    +0.000 HD
ENDBRANCH   3   5
BRANCH   1  17
ATOM     16  C   UNL     1      42.838   5.044  12.451  0.00  0.00    +0.000 C 
ATOM     17  C   UNL     1      44.227   4.405  12.323  0.00  0.00    +0.000 C 
BRANCH  17  18
ATOM     18  C   UNL     1      44.559   4.035  10.875  0.00  0.00    +0.000 A 
ATOM     19  C   UNL     1      44.305   2.741  10.423  0.00  0.00    +0.000 A 
ATOM     20  C   UNL     1      44.660   2.399   9.120  0.00  0.00    +0.000 A 
ATOM     21  C   UNL     1      45.270   3.347   8.307  0.00  0.00    +0.000 A 
ATOM     22  C   UNL     1      45.504   4.604   8.832  0.00  0.00    +0.000 A 
ATOM     23  N   UNL     1      45.166   4.965  10.089  0.00  0.00    +0.000 NA
ENDBRANCH  17  18
ENDBRANCH   1  17
TORSDOF 3
ENDMDL
MODEL 2
REMARK VINA RESULT:    -6.458      3.694      6.545
REMARK INTER + INTRA:          -7.578
REMARK INTER:                  -7.094
REMARK INTRA:                  -0.484
REMARK UNBOUND:                 0.012
REMARK  Name = 
REMARK  5 active torsions:
REMARK  status: ('A' for Active; 'I' for Inactive)
REMARK    1  A    between atoms: C_1  and  C_2
REMARK    2  A    between atoms: C_2  and  C_3
REMARK    3  A    between atoms: C_2  and  N_9
REMARK    4  A    between atoms: N_9  and  C_10
REMARK    5  A    between atoms: C_11  and  C_13
REMARK                            x       y       z     vdW  Elec       q    Type
REMARK                         _______ _______ _______ _____ _____    ______ ____
ROOT
ATOM      1  N   UNL     1      46.566   7.268  12.363  0.00  0.00    +0.000 N 
ATOM      2  C   UNL     1      47.549   6.200  12.524  0.00  0.00    +0.000 C 
ATOM      3  C   UNL     1      45.444   7.202  11.518  0.00  0.00    +0.000 C 
ATOM      4  O   UNL     1      44.689   8.163  11.388  0.00  0.00    +0.000 OA
ENDROOT
BRANCH   3   5
ATOM      5  C   UNL     1      45.143   5.956  10.793  0.00  0.00    +0.000 A 
ATOM      6  C   UNL     1      45.663   5.631   9.549  0.00  0.00    +0.000 A 
ATOM      7  S   UNL     1      45.182   4.095   8.983  0.00  0.00    +0.000 S 
ATOM      8  C   UNL     1      44.416   3.734  10.455  0.00  0.00    +0.000 A 
ATOM      9  N   UNL     1      43.884   2.504  10.683  0.00  0.00    +0.000 NA
ATOM     10  C   UNL     1      43.414   2.345  11.874  0.00  0.00    +0.000 A 
ATOM     11  N   UNL     1      43.392   3.312  12.844  0.00  0.00    +0.000 N 
ATOM     12  C   UNL     1      43.797   4.616  12.616  0.00  0.00    +0.000 A 
ATOM     13  O   UNL     1      43.557   5.502  13.427  0.00  0.00    +0.000 OA
ATOM     14  C   UNL     1      44.440   4.811  11.326  0.00  0.00    +0.000 A 
ATOM     15  H   UNL     1      42.960   3.138  13.738  0.00  0.00    +0.000 HD
ENDBRANCH   3   5
BRANCH   1  17
ATOM     16  C   UNL     1      47.664   8.333  14.330  0.00  0.00    +0.000 C 
ATOM     17  C   UNL     1      46.818   8.553  13.068  0.00  0.00    +0.000 C 
BRANCH  17  18
ATOM     18  C   UNL     1      47.409   9.636  12.162  0.00  0.00    +0.000 A 
ATOM     19  C   UNL     1      48.742   9.548  11.767  0.00  0.00    +0.000 A 
ATOM     20  C   UNL     1      49.285  10.567  10.988  0.00  0.00    +0.000 A 
ATOM     21  C   UNL     1      48.492  11.652  10.632  0.00  0.00    +0.000 A 
ATOM     22  C   UNL     1      47.182  11.676  11.075  0.00  0.00    +0.000 A 
ATOM     23  N   UNL     1      46.629  10.701  11.828  0.00  0.00    +0.000 NA
ENDBRANCH  17  18
ENDBRANCH   1  17
TORSDOF 3
ENDMDL
MODEL 3
REMARK VINA RESULT:    -6.444      3.455      7.021
REMARK INTER + INTRA:          -7.562
REMARK INTER:                  -7.111
REMARK INTRA:                  -0.451
REMARK UNBOUND:                 0.012
REMARK  Name = 
REMARK  5 active torsions:
REMARK  status: ('A' for Active; 'I' for Inactive)
REMARK    1  A    between atoms: C_1  and  C_2
REMARK    2  A    between atoms: C_2  and  C_3
REMARK    3  A    between atoms: C_2  and  N_9
REMARK    4  A    between atoms: N_9  and  C_10
REMARK    5  A    between atoms: C_11  and  C_13
REMARK                            x       y       z     vdW  Elec       q    Type
REMARK                         _______ _______ _______ _____ _____    ______ ____
ROOT
ATOM      1  N   UNL     1      46.612   6.806  12.399  0.00  0.00    +0.000 N 
ATOM      2  C   UNL     1      47.410   5.771  13.051  0.00  0.00    +0.000 C 
ATOM      3  C   UNL     1      45.460   6.561  11.631  0.00  0.00    +0.000 C 
ATOM      4  O   UNL     1      44.870   7.477  11.061  0.00  0.00    +0.000 OA
ENDROOT
BRANCH   3   5
ATOM      5  C   UNL     1      44.926   5.193  11.523  0.00  0.00    +0.000 A 
ATOM      6  C   UNL     1      44.156   4.575  12.495  0.00  0.00    +0.000 A 
ATOM      7  S   UNL     1      43.631   3.008  12.065  0.00  0.00    +0.000 S 
ATOM      8  C   UNL     1      44.258   3.173  10.495  0.00  0.00    +0.000 A 
ATOM      9  N   UNL     1      44.049   2.213   9.555  0.00  0.00    +0.000 NA
ATOM     10  C   UNL     1      44.505   2.512   8.386  0.00  0.00    +0.000 A 
ATOM     11  N   UNL     1      45.183   3.662   8.079  0.00  0.00    +0.000 N 
ATOM     12  C   UNL     1      45.537   4.604   9.030  0.00  0.00    +0.000 A 
ATOM     13  O   UNL     1      46.329   5.500   8.766  0.00  0.00    +0.000 OA
ATOM     14  C   UNL     1      44.946   4.365  10.337  0.00  0.00    +0.000 A 
ATOM     15  H   UNL     1      45.560   3.809   7.156  0.00  0.00    +0.000 HD
ENDBRANCH   3   5
BRANCH   1  17
ATOM     16  C   UNL     1      46.540   8.927  13.703  0.00  0.00    +0.000 C 
ATOM     17  C   UNL     1      47.104   8.207  12.470  0.00  0.00    +0.000 C 
BRANCH  17  18
ATOM     18  C   UNL     1      48.628   8.321  12.384  0.00  0.00    +0.000 A 
ATOM     19  C   UNL     1      49.290   7.822  11.263  0.00  0.00    +0.000 A 
ATOM     20  C   UNL     1      50.681   7.881  11.219  0.00  0.00    +0.000 A 
ATOM     21  C   UNL     1      51.377   8.421  12.294  0.00  0.00    +0.000 A 
ATOM     22  C   UNL     1      50.651   8.880  13.377  0.00  0.00    +0.000 A 
ATOM     23  N   UNL     1      49.302   8.840  13.446  0.00  0.00    +0.000 NA
ENDBRANCH  17  18
ENDBRANCH   1  17
TORSDOF 3
ENDMDL
MODEL 4
REMARK VINA RESULT:    -6.302      2.037      3.195
REMARK INTER + INTRA:          -7.396
REMARK INTER:                  -7.203
REMARK INTRA:                  -0.192
REMARK UNBOUND:                 0.012
REMARK  Name = 
REMARK  5 active torsions:
REMARK  status: ('A' for Active; 'I' for Inactive)
REMARK    1  A    between atoms: C_1  and  C_2
REMARK    2  A    between atoms: C_2  and  C_3
REMARK    3  A    between atoms: C_2  and  N_9
REMARK    4  A    between atoms: N_9  and  C_10
REMARK    5  A    between atoms: C_11  and  C_13
REMARK                            x       y       z     vdW  Elec       q    Type
REMARK                         _______ _______ _______ _____ _____    ______ ____
ROOT
ATOM      1  N   UNL     1      45.442   5.521  13.014  0.00  0.00    +0.000 N 
ATOM      2  C   UNL     1      45.111   6.943  12.979  0.00  0.00    +0.000 C 
ATOM      3  C   UNL     1      46.662   4.996  13.478  0.00  0.00    +0.000 C 
ATOM      4  O   UNL     1      46.896   3.791  13.424  0.00  0.00    +0.000 OA
ENDROOT
BRANCH   3   5
ATOM      5  C   UNL     1      47.672   5.893  14.064  0.00  0.00    +0.000 A 
ATOM      6  C   UNL     1      48.077   5.855  15.389  0.00  0.00    +0.000 A 
ATOM      7  S   UNL     1      49.306   6.977  15.766  0.00  0.00    +0.000 S 
ATOM      8  C   UNL     1      49.470   7.425  14.136  0.00  0.00    +0.000 A 
ATOM      9  N   UNL     1      50.447   8.284  13.742  0.00  0.00    +0.000 NA
ATOM     10  C   UNL     1      50.508   8.464  12.465  0.00  0.00    +0.000 A 
ATOM     11  N   UNL     1      49.660   7.895  11.552  0.00  0.00    +0.000 N 
ATOM     12  C   UNL     1      48.570   7.123  11.916  0.00  0.00    +0.000 A 
ATOM     13  O   UNL     1      47.711   6.819  11.097  0.00  0.00    +0.000 OA
ATOM     14  C   UNL     1      48.529   6.800  13.333  0.00  0.00    +0.000 A 
ATOM     15  H   UNL     1      49.729   8.120  10.572  0.00  0.00    +0.000 HD
ENDBRANCH   3   5
BRANCH   1  17
ATOM     16  C   UNL     1      43.034   5.120  12.522  0.00  0.00    +0.000 C 
ATOM     17  C   UNL     1      44.462   4.566  12.432  0.00  0.00    +0.000 C 
BRANCH  17  18
ATOM     18  C   UNL     1      44.819   4.122  11.011  0.00  0.00    +0.000 A 
ATOM     19  C   UNL     1      45.251   5.070  10.085  0.00  0.00    +0.000 A 
ATOM     20  C   UNL     1      45.521   4.664   8.780  0.00  0.00    +0.000 A 
ATOM     21  C   UNL     1      45.342   3.332   8.427  0.00  0.00    +0.000 A 
ATOM     22  C   UNL     1      44.896   2.454   9.397  0.00  0.00    +0.000 A 
ATOM     23  N   UNL     1      44.631   2.818  10.671  0.00  0.00    +0.000 NA
ENDBRANCH  17  18
ENDBRANCH   1  17
TORSDOF 3
ENDMDL
MODEL 5
REMARK VINA RESULT:    -6.099      2.568      6.859
REMARK INTER + INTRA:          -7.156
REMARK INTER:                  -6.556
REMARK INTRA:                  -0.601
REMARK UNBOUND:                 0.012
REMARK  Name = 
REMARK  5 active torsions:
REMARK  status: ('A' for Active; 'I' for Inactive)
REMARK    1  A    between atoms: C_1  and  C_2
REMARK    2  A    between atoms: C_2  and  C_3
REMARK    3  A    between atoms: C_2  and  N_9
REMARK    4  A    between atoms: N_9  and  C_10
REMARK    5  A    between atoms: C_11  and  C_13
REMARK                            x       y       z     vdW  Elec       q    Type
REMARK                         _______ _______ _______ _____ _____    ______ ____
ROOT
ATOM      1  N   UNL     1      48.529   7.529  14.400  0.00  0.00    +0.000 N 
ATOM      2  C   UNL     1      47.751   8.597  15.022  0.00  0.00    +0.000 C 
ATOM      3  C   UNL     1      48.046   6.669  13.397  0.00  0.00    +0.000 C 
ATOM      4  O   UNL     1      48.738   5.753  12.959  0.00  0.00    +0.000 OA
ENDROOT
BRANCH   3   5
ATOM      5  C   UNL     1      46.700   6.877  12.836  0.00  0.00    +0.000 A 
ATOM      6  C   UNL     1      46.358   7.920  11.990  0.00  0.00    +0.000 A 
ATOM      7  S   UNL     1      44.738   7.868  11.454  0.00  0.00    +0.000 S 
ATOM      8  C   UNL     1      44.490   6.355  12.184  0.00  0.00    +0.000 A 
ATOM      9  N   UNL     1      43.323   5.679  12.011  0.00  0.00    +0.000 NA
ATOM     10  C   UNL     1      43.309   4.506  12.549  0.00  0.00    +0.000 A 
ATOM     11  N   UNL     1      44.336   3.963  13.274  0.00  0.00    +0.000 N 
ATOM     12  C   UNL     1      45.487   4.665  13.591  0.00  0.00    +0.000 A 
ATOM     13  O   UNL     1      46.279   4.236  14.421  0.00  0.00    +0.000 OA
ATOM     14  C   UNL     1      45.596   5.945  12.911  0.00  0.00    +0.000 A 
ATOM     15  H   UNL     1      44.239   3.061  13.714  0.00  0.00    +0.000 HD
ENDBRANCH   3   5
BRANCH   1  17
ATOM     16  C   UNL     1      50.734   8.553  14.939  0.00  0.00    +0.000 C 
ATOM     17  C   UNL     1      49.894   7.268  14.927  0.00  0.00    +0.000 C 
BRANCH  17  18
ATOM     18  C   UNL     1      49.895   6.566  16.287  0.00  0.00    +0.000 A 
ATOM     19  C   UNL     1      50.608   7.125  17.346  0.00  0.00    +0.000 A 
ATOM     20  C   UNL     1      50.648   6.451  18.564  0.00  0.00    +0.000 A 
ATOM     21  C   UNL     1      49.989   5.234  18.693  0.00  0.00    +0.000 A 
ATOM     22  C   UNL     1      49.317   4.736  17.593  0.00  0.00    +0.000 A 
ATOM     23  N   UNL     1      49.258   5.370  16.402  0.00  0.00    +0.000 NA
ENDBRANCH  17  18
ENDBRANCH   1  17
TORSDOF 3
ENDMDL
MODEL 6
REMARK VINA RESULT:    -5.874      4.259      6.843
REMARK INTER + INTRA:          -6.892
REMARK INTER:                  -6.168
REMARK INTRA:                  -0.724
REMARK UNBOUND:                 0.012
REMARK  Name = 
REMARK  5 active torsions:
REMARK  status: ('A' for Active; 'I' for Inactive)
REMARK    1  A    between atoms: C_1  and  C_2
REMARK    2  A    between atoms: C_2  and  C_3
REMARK    3  A    between atoms: C_2  and  N_9
REMARK    4  A    between atoms: N_9  and  C_10
REMARK    5  A    between atoms: C_11  and  C_13
REMARK                            x       y       z     vdW  Elec       q    Type
REMARK                         _______ _______ _______ _____ _____    ______ ____
ROOT
ATOM      1  N   UNL     1      48.061   8.519  12.350  0.00  0.00    +0.000 N 
ATOM      2  C   UNL     1      48.855   7.701  11.437  0.00  0.00    +0.000 C 
ATOM      3  C   UNL     1      46.908   8.078  13.023  0.00  0.00    +0.000 C 
ATOM      4  O   UNL     1      46.255   8.840  13.732  0.00  0.00    +0.000 OA
ENDROOT
BRANCH   3   5
ATOM      5  C   UNL     1      46.480   6.673  12.903  0.00  0.00    +0.000 A 
ATOM      6  C   UNL     1      47.052   5.620  13.599  0.00  0.00    +0.000 A 
ATOM      7  S   UNL     1      46.308   4.113  13.299  0.00  0.00    +0.000 S 
ATOM      8  C   UNL     1      45.083   4.842  12.376  0.00  0.00    +0.000 A 
ATOM      9  N   UNL     1      44.037   4.114  11.902  0.00  0.00    +0.000 NA
ATOM     10  C   UNL     1      43.140   4.814  11.295  0.00  0.00    +0.000 A 
ATOM     11  N   UNL     1      43.209   6.165  11.082  0.00  0.00    +0.000 N 
ATOM     12  C   UNL     1      44.315   6.925  11.426  0.00  0.00    +0.000 A 
ATOM     13  O   UNL     1      44.439   8.075  11.024  0.00  0.00    +0.000 OA
ATOM     14  C   UNL     1      45.299   6.201  12.214  0.00  0.00    +0.000 A 
ATOM     15  H   UNL     1      42.498   6.643  10.552  0.00  0.00    +0.000 HD
ENDBRANCH   3   5
BRANCH   1  17
ATOM     16  C   UNL     1      49.941  10.088  12.811  0.00  0.00    +0.000 C 
ATOM     17  C   UNL     1      48.443   9.948  12.509  0.00  0.00    +0.000 C 
BRANCH  17  18
ATOM     18  C   UNL     1      48.007  10.826  11.333  0.00  0.00    +0.000 A 
ATOM     19  C   UNL     1      48.966  11.299  10.439  0.00  0.00    +0.000 A 
ATOM     20  C   UNL     1      48.567  12.141   9.404  0.00  0.00    +0.000 A 
ATOM     21  C   UNL     1      47.230  12.501   9.293  0.00  0.00    +0.000 A 
ATOM     22  C   UNL     1      46.340  12.005  10.227  0.00  0.00    +0.000 A 
ATOM     23  N   UNL     1      46.697  11.183  11.238  0.00  0.00    +0.000 NA
ENDBRANCH  17  18
ENDBRANCH   1  17
TORSDOF 3
ENDMDL
MODEL 7
REMARK VINA RESULT:    -5.844      3.969      6.469
REMARK INTER + INTRA:          -6.856
REMARK INTER:                  -6.073
REMARK INTRA:                  -0.784
REMARK UNBOUND:                 0.012
REMARK  Name = 
REMARK  5 active torsions:
REMARK  status: ('A' for Active; 'I' for Inactive)
REMARK    1  A    between atoms: C_1  and  C_2
REMARK    2  A    between atoms: C_2  and  C_3
REMARK    3  A    between atoms: C_2  and  N_9
REMARK    4  A    between atoms: N_9  and  C_10
REMARK    5  A    between atoms: C_11  and  C_13
REMARK                            x       y       z     vdW  Elec       q    Type
REMARK                         _______ _______ _______ _____ _____    ______ ____
ROOT
ATOM      1  N   UNL     1      50.369   6.059  17.137  0.00  0.00    +0.000 N 
ATOM      2  C   UNL     1      51.547   6.419  16.353  0.00  0.00    +0.000 C 
ATOM      3  C   UNL     1      50.338   5.047  18.114  0.00  0.00    +0.000 C 
ATOM      4  O   UNL     1      49.294   4.758  18.695  0.00  0.00    +0.000 OA
ENDROOT
BRANCH   3   5
ATOM      5  C   UNL     1      51.576   4.335  18.474  0.00  0.00    +0.000 A 
ATOM      6  C   UNL     1      52.512   4.805  19.381  0.00  0.00    +0.000 A 
ATOM      7  S   UNL     1      53.817   3.735  19.639  0.00  0.00    +0.000 S 
ATOM      8  C   UNL     1      53.085   2.530  18.692  0.00  0.00    +0.000 A 
ATOM      9  N   UNL     1      53.636   1.291  18.588  0.00  0.00    +0.000 NA
ATOM     10  C   UNL     1      52.926   0.454  17.909  0.00  0.00    +0.000 A 
ATOM     11  N   UNL     1      51.739   0.750  17.294  0.00  0.00    +0.000 N 
ATOM     12  C   UNL     1      51.207   2.028  17.259  0.00  0.00    +0.000 A 
ATOM     13  O   UNL     1      50.271   2.302  16.518  0.00  0.00    +0.000 OA
ATOM     14  C   UNL     1      51.912   2.978  18.105  0.00  0.00    +0.000 A 
ATOM     15  H   UNL     1      51.261   0.062  16.733  0.00  0.00    +0.000 HD
ENDBRANCH   3   5
BRANCH   1  17
ATOM     16  C   UNL     1      49.261   8.266  16.813  0.00  0.00    +0.000 C 
ATOM     17  C   UNL     1      49.088   6.741  16.816  0.00  0.00    +0.000 C 
BRANCH  17  18
ATOM     18  C   UNL     1      48.436   6.233  15.527  0.00  0.00    +0.000 A 
ATOM     19  C   UNL     1      48.461   7.032  14.385  0.00  0.00    +0.000 A 
ATOM     20  C   UNL     1      47.818   6.584  13.234  0.00  0.00    +0.000 A 
ATOM     21  C   UNL     1      47.157   5.361  13.252  0.00  0.00    +0.000 A 
ATOM     22  C   UNL     1      47.163   4.633  14.427  0.00  0.00    +0.000 A 
ATOM     23  N   UNL     1      47.781   5.040  15.556  0.00  0.00    +0.000 NA
ENDBRANCH  17  18
ENDBRANCH   1  17
TORSDOF 3
ENDMDL
MODEL 8
REMARK VINA RESULT:    -5.488      6.217      7.934
REMARK INTER + INTRA:          -6.439
REMARK INTER:                  -5.722
REMARK INTRA:                  -0.717
REMARK UNBOUND:                 0.012
REMARK  Name = 
REMARK  5 active torsions:
REMARK  status: ('A' for Active; 'I' for Inactive)
REMARK    1  A    between atoms: C_1  and  C_2
REMARK    2  A    between atoms: C_2  and  C_3
REMARK    3  A    between atoms: C_2  and  N_9
REMARK    4  A    between atoms: N_9  and  C_10
REMARK    5  A    between atoms: C_11  and  C_13
REMARK                            x       y       z     vdW  Elec       q    Type
REMARK                         _______ _______ _______ _____ _____    ______ ____
ROOT
ATOM      1  N   UNL     1      49.469   5.155  18.340  0.00  0.00    +0.000 N 
ATOM      2  C   UNL     1      49.490   4.670  19.717  0.00  0.00    +0.000 C 
ATOM      3  C   UNL     1      50.548   5.061  17.443  0.00  0.00    +0.000 C 
ATOM      4  O   UNL     1      50.480   5.545  16.315  0.00  0.00    +0.000 OA
ENDROOT
BRANCH   3   5
ATOM      5  C   UNL     1      51.775   4.351  17.841  0.00  0.00    +0.000 A 
ATOM      6  C   UNL     1      52.849   4.946  18.484  0.00  0.00    +0.000 A 
ATOM      7  S   UNL     1      54.106   3.860  18.873  0.00  0.00    +0.000 S 
ATOM      8  C   UNL     1      53.184   2.527  18.364  0.00  0.00    +0.000 A 
ATOM      9  N   UNL     1      53.638   1.257  18.533  0.00  0.00    +0.000 NA
ATOM     10  C   UNL     1      52.796   0.345  18.182  0.00  0.00    +0.000 A 
ATOM     11  N   UNL     1      51.559   0.584  17.643  0.00  0.00    +0.000 N 
ATOM     12  C   UNL     1      51.109   1.856  17.328  0.00  0.00    +0.000 A 
ATOM     13  O   UNL     1      50.103   2.018  16.648  0.00  0.00    +0.000 OA
ATOM     14  C   UNL     1      51.975   2.919  17.811  0.00  0.00    +0.000 A 
ATOM     15  H   UNL     1      50.971  -0.175  17.340  0.00  0.00    +0.000 HD
ENDBRANCH   3   5
BRANCH   1  17
ATOM     16  C   UNL     1      46.981   5.102  18.217  0.00  0.00    +0.000 C 
ATOM     17  C   UNL     1      48.258   5.886  17.881  0.00  0.00    +0.000 C 
BRANCH  17  18
ATOM     18  C   UNL     1      48.195   7.331  18.383  0.00  0.00    +0.000 A 
ATOM     19  C   UNL     1      47.344   7.654  19.438  0.00  0.00    +0.000 A 
ATOM     20  C   UNL     1      47.253   8.981  19.851  0.00  0.00    +0.000 A 
ATOM     21  C   UNL     1      48.000   9.953  19.195  0.00  0.00    +0.000 A 
ATOM     22  C   UNL     1      48.809   9.558  18.147  0.00  0.00    +0.000 A 
ATOM     23  N   UNL     1      48.920   8.278  17.728  0.00  0.00    +0.000 NA
ENDBRANCH  17  18
ENDBRANCH   1  17
TORSDOF 3
ENDMDL
MODEL 9
REMARK VINA RESULT:    -5.435      4.086      6.550
REMARK INTER + INTRA:          -6.376
REMARK INTER:                  -5.664
REMARK INTRA:                  -0.712
REMARK UNBOUND:                 0.012
REMARK  Name = 
REMARK  5 active torsions:
REMARK  status: ('A' for Active; 'I' for Inactive)
REMARK    1  A    between atoms: C_1  and  C_2
REMARK    2  A    between atoms: C_2  and  C_3
REMARK    3  A    between atoms: C_2  and  N_9
REMARK    4  A    between atoms: N_9  and  C_10
REMARK    5  A    between atoms: C_11  and  C_13
REMARK                            x       y       z     vdW  Elec       q    Type
REMARK                         _______ _______ _______ _____ _____    ______ ____
ROOT
ATOM      1  N   UNL     1      48.408   8.149  12.479  0.00  0.00    +0.000 N 
ATOM      2  C   UNL     1      48.719   7.328  11.313  0.00  0.00    +0.000 C 
ATOM      3  C   UNL     1      47.167   8.160  13.142  0.00  0.00    +0.000 C 
ATOM      4  O   UNL     1      46.956   8.921  14.083  0.00  0.00    +0.000 OA
ENDROOT
BRANCH   3   5
ATOM      5  C   UNL     1      46.104   7.229  12.726  0.00  0.00    +0.000 A 
ATOM      6  C   UNL     1      45.059   7.564  11.879  0.00  0.00    +0.000 A 
ATOM      7  S   UNL     1      44.014   6.261  11.529  0.00  0.00    +0.000 S 
ATOM      8  C   UNL     1      45.021   5.164  12.345  0.00  0.00    +0.000 A 
ATOM      9  N   UNL     1      44.758   3.830  12.332  0.00  0.00    +0.000 NA
ATOM     10  C   UNL     1      45.654   3.110  12.917  0.00  0.00    +0.000 A 
ATOM     11  N   UNL     1      46.767   3.601  13.547  0.00  0.00    +0.000 N 
ATOM     12  C   UNL     1      47.006   4.956  13.703  0.00  0.00    +0.000 A 
ATOM     13  O   UNL     1      47.883   5.359  14.458  0.00  0.00    +0.000 OA
ATOM     14  C   UNL     1      46.085   5.802  12.962  0.00  0.00    +0.000 A 
ATOM     15  H   UNL     1      47.401   2.986  14.032  0.00  0.00    +0.000 HD
ENDBRANCH   3   5
BRANCH   1  17
ATOM     16  C   UNL     1      50.620   8.383  13.600  0.00  0.00    +0.000 C 
ATOM     17  C   UNL     1      49.441   9.113  12.943  0.00  0.00    +0.000 C 
BRANCH  17  18
ATOM     18  C   UNL     1      49.899  10.083  11.851  0.00  0.00    +0.000 A 
ATOM     19  C   UNL     1      48.966  10.919  11.241  0.00  0.00    +0.000 A 
ATOM     20  C   UNL     1      49.384  11.758  10.211  0.00  0.00    +0.000 A 
ATOM     21  C   UNL     1      50.713  11.735   9.807  0.00  0.00    +0.000 A 
ATOM     22  C   UNL     1      51.576  10.868  10.450  0.00  0.00    +0.000 A 
ATOM     23  N   UNL     1      51.201  10.046  11.454  0.00  0.00    +0.000 NA
ENDBRANCH  17  18
ENDBRANCH   1  17
TORSDOF 3
ENDMDL
