MODEL 1
REMARK VINA RESULT:    -8.080      0.000      0.000
REMARK INTER + INTRA:         -12.138
REMARK INTER:                 -11.386
REMARK INTRA:                  -0.752
REMARK UNBOUND:                -0.752
REMARK  Name = 
REMARK  8 active torsions:
REMARK  status: ('A' for Active; 'I' for Inactive)
REMARK    1  A    between atoms: C_1  and  C_2
REMARK    2  A    between atoms: C_2  and  C_3
REMARK    3  A    between atoms: C_3  and  C_4
REMARK    4  A    between atoms: C_6  and  C_7
REMARK    5  A    between atoms: C_7  and  C_8
REMARK    6  A    between atoms: C_16  and  C_17
REMARK    7  A    between atoms: C_17  and  N_18
REMARK    8  A    between atoms: C_19  and  C_21
REMARK                            x       y       z     vdW  Elec       q    Type
REMARK                         _______ _______ _______ _____ _____    ______ ____
ROOT
ATOM      1  C   UNL     1      43.910   5.568  11.075  0.00  0.00    +0.000 A 
ATOM      2  N   UNL     1      43.688   4.556  10.188  0.00  0.00    +0.000 NA
ATOM      3  C   UNL     1      44.644   4.264   9.269  0.00  0.00    +0.000 A 
ATOM      4  C   UNL     1      45.830   4.983   9.195  0.00  0.00    +0.000 A 
ATOM      5  C   UNL     1      46.052   6.012  10.107  0.00  0.00    +0.000 A 
ATOM      6  C   UNL     1      45.083   6.333  11.070  0.00  0.00    +0.000 A 
ENDROOT
BRANCH   1   7
ATOM      7  C   UNL     1      42.786   5.818  12.053  0.00  0.00    +0.000 C 
BRANCH   7   9
ATOM      8  C   UNL     1      43.446   3.529  12.863  0.00  0.00    +0.000 C 
ATOM      9  C   UNL     1      42.849   4.872  13.255  0.00  0.00    +0.000 C 
ENDBRANCH   7   9
ENDBRANCH   1   7
BRANCH   3  10
ATOM     10  C   UNL     1      44.401   3.081   8.351  0.00  0.00    +0.000 C 
BRANCH  10  11
ATOM     11  C   UNL     1      45.651   2.593   7.644  0.00  0.00    +0.000 A 
ATOM     12  C   UNL     1      46.143   3.282   6.524  0.00  0.00    +0.000 A 
ATOM     13  C   UNL     1      47.258   2.811   5.830  0.00  0.00    +0.000 A 
ATOM     14  C   UNL     1      47.910   1.656   6.258  0.00  0.00    +0.000 A 
ATOM     15  C   UNL     1      47.458   0.985   7.393  0.00  0.00    +0.000 A 
ATOM     16  C   UNL     1      46.335   1.450   8.084  0.00  0.00    +0.000 A 
ENDBRANCH  10  11
ENDBRANCH   3  10
BRANCH   6  17
ATOM     17  C   UNL     1      45.357   7.442  12.054  0.00  0.00    +0.000 C 
BRANCH  17  18
ATOM     18  N   UNL     1      46.084   6.976  13.209  0.00  0.00    +0.000 N 
ATOM     19  C   UNL     1      47.423   7.241  13.368  0.00  0.00    +0.000 C 
ATOM     20  O   UNL     1      48.051   7.911  12.552  0.00  0.00    +0.000 OA
ATOM     21  H   UNL     1      45.666   6.223  13.750  0.00  0.00    +0.000 HD
BRANCH  19  22
ATOM     22  C   UNL     1      48.055   6.735  14.594  0.00  0.00    +0.000 A 
ATOM     23  C   UNL     1      48.960   7.534  15.283  0.00  0.00    +0.000 A 
ATOM     24  S   UNL     1      49.564   6.811  16.706  0.00  0.00    +0.000 S 
ATOM     25  C   UNL     1      48.677   5.386  16.422  0.00  0.00    +0.000 A 
ATOM     26  N   UNL     1      48.768   4.326  17.271  0.00  0.00    +0.000 NA
ATOM     27  C   UNL     1      48.065   3.300  16.920  0.00  0.00    +0.000 A 
ATOM     28  N   UNL     1      47.279   3.237  15.802  0.00  0.00    +0.000 N 
ATOM     29  C   UNL     1      47.133   4.298  14.931  0.00  0.00    +0.000 A 
ATOM     30  O   UNL     1      46.377   4.231  13.968  0.00  0.00    +0.000 OA
ATOM     31  C   UNL     1      47.916   5.469  15.273  0.00  0.00    +0.000 A 
ATOM     32  H   UNL     1      46.734   2.412  15.592  0.00  0.00    +0.000 HD
ENDBRANCH  19  22
ENDBRANCH  17  18
ENDBRANCH   6  17
TORSDOF 7
ENDMDL
MODEL 2
REMARK VINA RESULT:    -7.992      1.706      2.959
REMARK INTER + INTRA:         -12.014
REMARK INTER:                 -10.806
REMARK INTRA:                  -1.209
REMARK UNBOUND:                -0.752
REMARK  Name = 
REMARK  8 active torsions:
REMARK  status: ('A' for Active; 'I' for Inactive)
REMARK    1  A    between atoms: C_1  and  C_2
REMARK    2  A    between atoms: C_2  and  C_3
REMARK    3  A    between atoms: C_3  and  C_4
REMARK    4  A    between atoms: C_6  and  C_7
REMARK    5  A    between atoms: C_7  and  C_8
REMARK    6  A    between atoms: C_16  and  C_17
REMARK    7  A    between atoms: C_17  and  N_18
REMARK    8  A    between atoms: C_19  and  C_21
REMARK                            x       y       z     vdW  Elec       q    Type
REMARK                         _______ _______ _______ _____ _____    ______ ____
ROOT
ATOM      1  C   UNL     1      45.385   7.866  11.984  0.00  0.00    +0.000 A 
ATOM      2  N   UNL     1      44.624   7.087  11.161  0.00  0.00    +0.000 NA
ATOM      3  C   UNL     1      44.922   5.767  11.043  0.00  0.00    +0.000 A 
ATOM      4  C   UNL     1      45.991   5.196  11.721  0.00  0.00    +0.000 A 
ATOM      5  C   UNL     1      46.760   5.997  12.563  0.00  0.00    +0.000 A 
ATOM      6  C   UNL     1      46.474   7.362  12.706  0.00  0.00    +0.000 A 
ENDROOT
BRANCH   1   7
ATOM      7  C   UNL     1      44.978   9.320  12.042  0.00  0.00    +0.000 C 
BRANCH   7   9
ATOM      8  C   UNL     1      44.212  10.821  10.174  0.00  0.00    +0.000 C 
ATOM      9  C   UNL     1      43.848   9.640  11.060  0.00  0.00    +0.000 C 
ENDBRANCH   7   9
ENDBRANCH   1   7
BRANCH   3  10
ATOM     10  C   UNL     1      44.008   4.913  10.185  0.00  0.00    +0.000 C 
BRANCH  10  11
ATOM     11  C   UNL     1      44.748   3.923   9.306  0.00  0.00    +0.000 A 
ATOM     12  C   UNL     1      44.614   2.544   9.528  0.00  0.00    +0.000 A 
ATOM     13  C   UNL     1      45.335   1.624   8.764  0.00  0.00    +0.000 A 
ATOM     14  C   UNL     1      46.182   2.071   7.752  0.00  0.00    +0.000 A 
ATOM     15  C   UNL     1      46.293   3.436   7.493  0.00  0.00    +0.000 A 
ATOM     16  C   UNL     1      45.581   4.358   8.264  0.00  0.00    +0.000 A 
ENDBRANCH  10  11
ENDBRANCH   3  10
BRANCH   6  17
ATOM     17  C   UNL     1      47.314   8.201  13.636  0.00  0.00    +0.000 C 
BRANCH  17  18
ATOM     18  N   UNL     1      47.683   7.483  14.830  0.00  0.00    +0.000 N 
ATOM     19  C   UNL     1      48.920   6.897  14.961  0.00  0.00    +0.000 C 
ATOM     20  O   UNL     1      49.773   6.985  14.082  0.00  0.00    +0.000 OA
ATOM     21  H   UNL     1      46.931   7.181  15.444  0.00  0.00    +0.000 HD
BRANCH  19  22
ATOM     22  C   UNL     1      49.193   6.210  16.231  0.00  0.00    +0.000 A 
ATOM     23  C   UNL     1      50.204   6.679  17.064  0.00  0.00    +0.000 A 
ATOM     24  S   UNL     1      50.357   5.795  18.515  0.00  0.00    +0.000 S 
ATOM     25  C   UNL     1      49.115   4.724  18.057  0.00  0.00    +0.000 A 
ATOM     26  N   UNL     1      48.757   3.685  18.860  0.00  0.00    +0.000 NA
ATOM     27  C   UNL     1      47.822   2.936  18.376  0.00  0.00    +0.000 A 
ATOM     28  N   UNL     1      47.210   3.131  17.168  0.00  0.00    +0.000 N 
ATOM     29  C   UNL     1      47.520   4.188  16.337  0.00  0.00    +0.000 A 
ATOM     30  O   UNL     1      46.916   4.369  15.285  0.00  0.00    +0.000 OA
ATOM     31  C   UNL     1      48.577   5.049  16.827  0.00  0.00    +0.000 A 
ATOM     32  H   UNL     1      46.468   2.521  16.853  0.00  0.00    +0.000 HD
ENDBRANCH  19  22
ENDBRANCH  17  18
ENDBRANCH   6  17
TORSDOF 7
ENDMDL
MODEL 3
REMARK VINA RESULT:    -7.466      3.832      9.868
REMARK INTER + INTRA:         -11.274
REMARK INTER:                  -9.795
REMARK INTRA:                  -1.479
REMARK UNBOUND:                -0.752
REMARK  Name = 
REMARK  8 active torsions:
REMARK  status: ('A' for Active; 'I' for Inactive)
REMARK    1  A    between atoms: C_1  and  C_2
REMARK    2  A    between atoms: C_2  and  C_3
REMARK    3  A    between atoms: C_3  and  C_4
REMARK    4  A    between atoms: C_6  and  C_7
REMARK    5  A    between atoms: C_7  and  C_8
REMARK    6  A    between atoms: C_16  and  C_17
REMARK    7  A    between atoms: C_17  and  N_18
REMARK    8  A    between atoms: C_19  and  C_21
REMARK                            x       y       z     vdW  Elec       q    Type
REMARK                         _______ _______ _______ _____ _____    ______ ____
ROOT
ATOM      1  C   UNL     1      49.236   5.875  17.660  0.00  0.00    +0.000 A 
ATOM      2  N   UNL     1      49.326   6.661  18.771  0.00  0.00    +0.000 NA
ATOM      3  C   UNL     1      48.269   6.722  19.622  0.00  0.00    +0.000 A 
ATOM      4  C   UNL     1      47.094   6.022  19.379  0.00  0.00    +0.000 A 
ATOM      5  C   UNL     1      47.012   5.218  18.244  0.00  0.00    +0.000 A 
ATOM      6  C   UNL     1      48.089   5.133  17.350  0.00  0.00    +0.000 A 
ENDROOT
BRANCH   1   7
ATOM      7  C   UNL     1      50.461   5.879  16.774  0.00  0.00    +0.000 C 
BRANCH   7   9
ATOM      8  C   UNL     1      51.359   3.699  17.655  0.00  0.00    +0.000 C 
ATOM      9  C   UNL     1      51.650   5.176  17.436  0.00  0.00    +0.000 C 
ENDBRANCH   7   9
ENDBRANCH   1   7
BRANCH   3  10
ATOM     10  C   UNL     1      48.431   7.539  20.890  0.00  0.00    +0.000 C 
BRANCH  10  11
ATOM     11  C   UNL     1      47.480   8.717  20.979  0.00  0.00    +0.000 A 
ATOM     12  C   UNL     1      46.782   8.972  22.170  0.00  0.00    +0.000 A 
ATOM     13  C   UNL     1      45.860  10.017  22.248  0.00  0.00    +0.000 A 
ATOM     14  C   UNL     1      45.642  10.837  21.143  0.00  0.00    +0.000 A 
ATOM     15  C   UNL     1      46.359  10.623  19.967  0.00  0.00    +0.000 A 
ATOM     16  C   UNL     1      47.274   9.569  19.884  0.00  0.00    +0.000 A 
ENDBRANCH  10  11
ENDBRANCH   3  10
BRANCH   6  17
ATOM     17  C   UNL     1      47.978   4.243  16.138  0.00  0.00    +0.000 C 
BRANCH  17  18
ATOM     18  N   UNL     1      47.003   4.731  15.194  0.00  0.00    +0.000 N 
ATOM     19  C   UNL     1      47.369   5.519  14.128  0.00  0.00    +0.000 C 
ATOM     20  O   UNL     1      48.542   5.815  13.916  0.00  0.00    +0.000 OA
ATOM     21  H   UNL     1      46.028   4.720  15.483  0.00  0.00    +0.000 HD
BRANCH  19  22
ATOM     22  C   UNL     1      46.294   5.939  13.220  0.00  0.00    +0.000 A 
ATOM     23  C   UNL     1      46.092   7.293  12.972  0.00  0.00    +0.000 A 
ATOM     24  S   UNL     1      44.834   7.603  11.862  0.00  0.00    +0.000 S 
ATOM     25  C   UNL     1      44.482   5.944  11.714  0.00  0.00    +0.000 A 
ATOM     26  N   UNL     1      43.464   5.513  10.919  0.00  0.00    +0.000 NA
ATOM     27  C   UNL     1      43.290   4.233  10.924  0.00  0.00    +0.000 A 
ATOM     28  N   UNL     1      44.038   3.344  11.646  0.00  0.00    +0.000 N 
ATOM     29  C   UNL     1      45.098   3.734  12.440  0.00  0.00    +0.000 A 
ATOM     30  O   UNL     1      45.786   2.910  13.032  0.00  0.00    +0.000 OA
ATOM     31  C   UNL     1      45.325   5.164  12.483  0.00  0.00    +0.000 A 
ATOM     32  H   UNL     1      43.866   2.350  11.591  0.00  0.00    +0.000 HD
ENDBRANCH  19  22
ENDBRANCH  17  18
ENDBRANCH   6  17
TORSDOF 7
ENDMDL
MODEL 4
REMARK VINA RESULT:    -7.259      3.036      4.901
REMARK INTER + INTRA:         -10.982
REMARK INTER:                  -9.749
REMARK INTRA:                  -1.233
REMARK UNBOUND:                -0.752
REMARK  Name = 
REMARK  8 active torsions:
REMARK  status: ('A' for Active; 'I' for Inactive)
REMARK    1  A    between atoms: C_1  and  C_2
REMARK    2  A    between atoms: C_2  and  C_3
REMARK    3  A    between atoms: C_3  and  C_4
REMARK    4  A    between atoms: C_6  and  C_7
REMARK    5  A    between atoms: C_7  and  C_8
REMARK    6  A    between atoms: C_16  and  C_17
REMARK    7  A    between atoms: C_17  and  N_18
REMARK    8  A    between atoms: C_19  and  C_21
REMARK                            x       y       z     vdW  Elec       q    Type
REMARK                         _______ _______ _______ _____ _____    ______ ____
ROOT
ATOM      1  C   UNL     1      47.259   7.003  12.759  0.00  0.00    +0.000 A 
ATOM      2  N   UNL     1      46.234   6.594  11.957  0.00  0.00    +0.000 NA
ATOM      3  C   UNL     1      45.585   5.438  12.256  0.00  0.00    +0.000 A 
ATOM      4  C   UNL     1      45.952   4.654  13.342  0.00  0.00    +0.000 A 
ATOM      5  C   UNL     1      46.997   5.081  14.158  0.00  0.00    +0.000 A 
ATOM      6  C   UNL     1      47.683   6.272  13.875  0.00  0.00    +0.000 A 
ENDROOT
BRANCH   1   7
ATOM      7  C   UNL     1      47.920   8.296  12.340  0.00  0.00    +0.000 C 
BRANCH   7   9
ATOM      8  C   UNL     1      50.327   8.863  11.872  0.00  0.00    +0.000 C 
ATOM      9  C   UNL     1      49.120   8.056  11.419  0.00  0.00    +0.000 C 
ENDBRANCH   7   9
ENDBRANCH   1   7
BRANCH   3  10
ATOM     10  C   UNL     1      44.398   5.054  11.393  0.00  0.00    +0.000 C 
BRANCH  10  11
ATOM     11  C   UNL     1      44.767   4.205  10.193  0.00  0.00    +0.000 A 
ATOM     12  C   UNL     1      44.429   2.842  10.160  0.00  0.00    +0.000 A 
ATOM     13  C   UNL     1      44.814   2.037   9.088  0.00  0.00    +0.000 A 
ATOM     14  C   UNL     1      45.523   2.586   8.022  0.00  0.00    +0.000 A 
ATOM     15  C   UNL     1      45.829   3.946   8.020  0.00  0.00    +0.000 A 
ATOM     16  C   UNL     1      45.454   4.752   9.099  0.00  0.00    +0.000 A 
ENDBRANCH  10  11
ENDBRANCH   3  10
BRANCH   6  17
ATOM     17  C   UNL     1      48.799   6.717  14.785  0.00  0.00    +0.000 C 
BRANCH  17  18
ATOM     18  N   UNL     1      48.467   6.544  16.177  0.00  0.00    +0.000 N 
ATOM     19  C   UNL     1      49.311   5.883  17.039  0.00  0.00    +0.000 C 
ATOM     20  O   UNL     1      50.395   5.439  16.670  0.00  0.00    +0.000 OA
ATOM     21  H   UNL     1      47.493   6.666  16.443  0.00  0.00    +0.000 HD
BRANCH  19  22
ATOM     22  C   UNL     1      48.878   5.786  18.440  0.00  0.00    +0.000 A 
ATOM     23  C   UNL     1      48.978   4.571  19.109  0.00  0.00    +0.000 A 
ATOM     24  S   UNL     1      48.475   4.645  20.738  0.00  0.00    +0.000 S 
ATOM     25  C   UNL     1      48.057   6.288  20.590  0.00  0.00    +0.000 A 
ATOM     26  N   UNL     1      47.522   6.970  21.640  0.00  0.00    +0.000 NA
ATOM     27  C   UNL     1      47.225   8.200  21.380  0.00  0.00    +0.000 A 
ATOM     28  N   UNL     1      47.414   8.812  20.170  0.00  0.00    +0.000 N 
ATOM     29  C   UNL     1      47.981   8.167  19.089  0.00  0.00    +0.000 A 
ATOM     30  O   UNL     1      48.190   8.758  18.035  0.00  0.00    +0.000 OA
ATOM     31  C   UNL     1      48.317   6.778  19.325  0.00  0.00    +0.000 A 
ATOM     32  H   UNL     1      47.180   9.786  20.035  0.00  0.00    +0.000 HD
ENDBRANCH  19  22
ENDBRANCH  17  18
ENDBRANCH   6  17
TORSDOF 7
ENDMDL
MODEL 5
REMARK VINA RESULT:    -7.246      3.843      9.548
REMARK INTER + INTRA:         -10.963
REMARK INTER:                 -10.105
REMARK INTRA:                  -0.857
REMARK UNBOUND:                -0.752
REMARK  Name = 
REMARK  8 active torsions:
REMARK  status: ('A' for Active; 'I' for Inactive)
REMARK    1  A    between atoms: C_1  and  C_2
REMARK    2  A    between atoms: C_2  and  C_3
REMARK    3  A    between atoms: C_3  and  C_4
REMARK    4  A    between atoms: C_6  and  C_7
REMARK    5  A    between atoms: C_7  and  C_8
REMARK    6  A    between atoms: C_16  and  C_17
REMARK    7  A    between atoms: C_17  and  N_18
REMARK    8  A    between atoms: C_19  and  C_21
REMARK                            x       y       z     vdW  Elec       q    Type
REMARK                         _______ _______ _______ _____ _____    ______ ____
ROOT
ATOM      1  C   UNL     1      49.316   4.863  17.529  0.00  0.00    +0.000 A 
ATOM      2  N   UNL     1      50.645   4.990  17.814  0.00  0.00    +0.000 NA
ATOM      3  C   UNL     1      51.438   3.889  17.757  0.00  0.00    +0.000 A 
ATOM      4  C   UNL     1      50.929   2.638  17.435  0.00  0.00    +0.000 A 
ATOM      5  C   UNL     1      49.573   2.517  17.141  0.00  0.00    +0.000 A 
ATOM      6  C   UNL     1      48.731   3.638  17.189  0.00  0.00    +0.000 A 
ENDROOT
BRANCH   1   7
ATOM      7  C   UNL     1      48.518   6.142  17.626  0.00  0.00    +0.000 C 
BRANCH   7   9
ATOM      8  C   UNL     1      47.585   6.026  19.960  0.00  0.00    +0.000 C 
ATOM      9  C   UNL     1      48.559   6.739  19.035  0.00  0.00    +0.000 C 
ENDBRANCH   7   9
ENDBRANCH   1   7
BRANCH   3  10
ATOM     10  C   UNL     1      52.924   4.079  18.000  0.00  0.00    +0.000 C 
BRANCH  10  11
ATOM     11  C   UNL     1      53.354   3.760  19.418  0.00  0.00    +0.000 A 
ATOM     12  C   UNL     1      52.793   4.458  20.500  0.00  0.00    +0.000 A 
ATOM     13  C   UNL     1      53.223   4.216  21.805  0.00  0.00    +0.000 A 
ATOM     14  C   UNL     1      54.202   3.255  22.050  0.00  0.00    +0.000 A 
ATOM     15  C   UNL     1      54.738   2.525  20.991  0.00  0.00    +0.000 A 
ATOM     16  C   UNL     1      54.317   2.774  19.682  0.00  0.00    +0.000 A 
ENDBRANCH  10  11
ENDBRANCH   3  10
BRANCH   6  17
ATOM     17  C   UNL     1      47.270   3.480  16.850  0.00  0.00    +0.000 C 
BRANCH  17  18
ATOM     18  N   UNL     1      46.829   4.456  15.884  0.00  0.00    +0.000 N 
ATOM     19  C   UNL     1      46.860   4.193  14.535  0.00  0.00    +0.000 C 
ATOM     20  O   UNL     1      47.235   3.109  14.096  0.00  0.00    +0.000 OA
ATOM     21  H   UNL     1      46.764   5.422  16.194  0.00  0.00    +0.000 HD
BRANCH  19  22
ATOM     22  C   UNL     1      46.366   5.254  13.646  0.00  0.00    +0.000 A 
ATOM     23  C   UNL     1      47.160   6.368  13.395  0.00  0.00    +0.000 A 
ATOM     24  S   UNL     1      46.454   7.478  12.308  0.00  0.00    +0.000 S 
ATOM     25  C   UNL     1      45.044   6.535  12.176  0.00  0.00    +0.000 A 
ATOM     26  N   UNL     1      44.000   6.942  11.403  0.00  0.00    +0.000 NA
ATOM     27  C   UNL     1      42.983   6.145  11.417  0.00  0.00    +0.000 A 
ATOM     28  N   UNL     1      42.913   4.979  12.130  0.00  0.00    +0.000 N 
ATOM     29  C   UNL     1      43.959   4.512  12.901  0.00  0.00    +0.000 A 
ATOM     30  O   UNL     1      43.888   3.435  13.483  0.00  0.00    +0.000 OA
ATOM     31  C   UNL     1      45.118   5.380  12.932  0.00  0.00    +0.000 A 
ATOM     32  H   UNL     1      42.096   4.386  12.083  0.00  0.00    +0.000 HD
ENDBRANCH  19  22
ENDBRANCH  17  18
ENDBRANCH   6  17
TORSDOF 7
ENDMDL
MODEL 6
REMARK VINA RESULT:    -7.203      2.840      4.407
REMARK INTER + INTRA:         -10.903
REMARK INTER:                  -9.550
REMARK INTRA:                  -1.353
REMARK UNBOUND:                -0.752
REMARK  Name = 
REMARK  8 active torsions:
REMARK  status: ('A' for Active; 'I' for Inactive)
REMARK    1  A    between atoms: C_1  and  C_2
REMARK    2  A    between atoms: C_2  and  C_3
REMARK    3  A    between atoms: C_3  and  C_4
REMARK    4  A    between atoms: C_6  and  C_7
REMARK    5  A    between atoms: C_7  and  C_8
REMARK    6  A    between atoms: C_16  and  C_17
REMARK    7  A    between atoms: C_17  and  N_18
REMARK    8  A    between atoms: C_19  and  C_21
REMARK                            x       y       z     vdW  Elec       q    Type
REMARK                         _______ _______ _______ _____ _____    ______ ____
ROOT
ATOM      1  C   UNL     1      47.591   7.086  12.249  0.00  0.00    +0.000 A 
ATOM      2  N   UNL     1      46.596   6.671  11.412  0.00  0.00    +0.000 NA
ATOM      3  C   UNL     1      45.846   5.595  11.764  0.00  0.00    +0.000 A 
ATOM      4  C   UNL     1      46.078   4.896  12.941  0.00  0.00    +0.000 A 
ATOM      5  C   UNL     1      47.093   5.328  13.792  0.00  0.00    +0.000 A 
ATOM      6  C   UNL     1      47.881   6.438  13.456  0.00  0.00    +0.000 A 
ENDROOT
BRANCH   1   7
ATOM      7  C   UNL     1      48.372   8.286  11.767  0.00  0.00    +0.000 C 
BRANCH   7   9
ATOM      8  C   UNL     1      48.424  10.364  13.186  0.00  0.00    +0.000 C 
ATOM      9  C   UNL     1      47.668   9.603  12.107  0.00  0.00    +0.000 C 
ENDBRANCH   7   9
ENDBRANCH   1   7
BRANCH   3  10
ATOM     10  C   UNL     1      44.696   5.210  10.852  0.00  0.00    +0.000 C 
BRANCH  10  11
ATOM     11  C   UNL     1      45.086   4.232   9.761  0.00  0.00    +0.000 A 
ATOM     12  C   UNL     1      44.784   2.868   9.894  0.00  0.00    +0.000 A 
ATOM     13  C   UNL     1      45.189   1.949   8.925  0.00  0.00    +0.000 A 
ATOM     14  C   UNL     1      45.881   2.385   7.797  0.00  0.00    +0.000 A 
ATOM     15  C   UNL     1      46.151   3.742   7.631  0.00  0.00    +0.000 A 
ATOM     16  C   UNL     1      45.757   4.662   8.606  0.00  0.00    +0.000 A 
ENDBRANCH  10  11
ENDBRANCH   3  10
BRANCH   6  17
ATOM     17  C   UNL     1      48.962   6.893  14.404  0.00  0.00    +0.000 C 
BRANCH  17  18
ATOM     18  N   UNL     1      48.459   7.106  15.738  0.00  0.00    +0.000 N 
ATOM     19  C   UNL     1      49.091   7.956  16.615  0.00  0.00    +0.000 C 
ATOM     20  O   UNL     1      50.089   8.594  16.292  0.00  0.00    +0.000 OA
ATOM     21  H   UNL     1      47.809   6.417  16.107  0.00  0.00    +0.000 HD
BRANCH  19  22
ATOM     22  C   UNL     1      48.476   8.112  17.941  0.00  0.00    +0.000 A 
ATOM     23  C   UNL     1      48.044   9.367  18.357  0.00  0.00    +0.000 A 
ATOM     24  S   UNL     1      47.315   9.361  19.900  0.00  0.00    +0.000 S 
ATOM     25  C   UNL     1      47.599   7.693  20.087  0.00  0.00    +0.000 A 
ATOM     26  N   UNL     1      47.236   7.046  21.228  0.00  0.00    +0.000 NA
ATOM     27  C   UNL     1      47.536   5.789  21.246  0.00  0.00    +0.000 A 
ATOM     28  N   UNL     1      48.163   5.120  20.231  0.00  0.00    +0.000 N 
ATOM     29  C   UNL     1      48.520   5.729  19.045  0.00  0.00    +0.000 A 
ATOM     30  O   UNL     1      49.030   5.090  18.130  0.00  0.00    +0.000 OA
ATOM     31  C   UNL     1      48.219   7.144  18.981  0.00  0.00    +0.000 A 
ATOM     32  H   UNL     1      48.352   4.129  20.297  0.00  0.00    +0.000 HD
ENDBRANCH  19  22
ENDBRANCH  17  18
ENDBRANCH   6  17
TORSDOF 7
ENDMDL
MODEL 7
REMARK VINA RESULT:    -6.872      3.949      9.981
REMARK INTER + INTRA:         -10.436
REMARK INTER:                  -9.009
REMARK INTRA:                  -1.427
REMARK UNBOUND:                -0.752
REMARK  Name = 
REMARK  8 active torsions:
REMARK  status: ('A' for Active; 'I' for Inactive)
REMARK    1  A    between atoms: C_1  and  C_2
REMARK    2  A    between atoms: C_2  and  C_3
REMARK    3  A    between atoms: C_3  and  C_4
REMARK    4  A    between atoms: C_6  and  C_7
REMARK    5  A    between atoms: C_7  and  C_8
REMARK    6  A    between atoms: C_16  and  C_17
REMARK    7  A    between atoms: C_17  and  N_18
REMARK    8  A    between atoms: C_19  and  C_21
REMARK                            x       y       z     vdW  Elec       q    Type
REMARK                         _______ _______ _______ _____ _____    ______ ____
ROOT
ATOM      1  C   UNL     1      48.845   6.349  17.175  0.00  0.00    +0.000 A 
ATOM      2  N   UNL     1      49.071   7.323  18.104  0.00  0.00    +0.000 NA
ATOM      3  C   UNL     1      48.374   7.295  19.269  0.00  0.00    +0.000 A 
ATOM      4  C   UNL     1      47.424   6.316  19.530  0.00  0.00    +0.000 A 
ATOM      5  C   UNL     1      47.202   5.323  18.578  0.00  0.00    +0.000 A 
ATOM      6  C   UNL     1      47.910   5.325  17.367  0.00  0.00    +0.000 A 
ENDROOT
BRANCH   1   7
ATOM      7  C   UNL     1      49.664   6.471  15.911  0.00  0.00    +0.000 C 
BRANCH   7   9
ATOM      8  C   UNL     1      52.053   6.115  16.619  0.00  0.00    +0.000 C 
ATOM      9  C   UNL     1      51.020   7.136  16.167  0.00  0.00    +0.000 C 
ENDBRANCH   7   9
ENDBRANCH   1   7
BRANCH   3  10
ATOM     10  C   UNL     1      48.707   8.343  20.314  0.00  0.00    +0.000 C 
BRANCH  10  11
ATOM     11  C   UNL     1      47.536   9.237  20.675  0.00  0.00    +0.000 A 
ATOM     12  C   UNL     1      47.034  10.155  19.739  0.00  0.00    +0.000 A 
ATOM     13  C   UNL     1      45.995  11.023  20.078  0.00  0.00    +0.000 A 
ATOM     14  C   UNL     1      45.428  10.970  21.349  0.00  0.00    +0.000 A 
ATOM     15  C   UNL     1      45.888  10.035  22.275  0.00  0.00    +0.000 A 
ATOM     16  C   UNL     1      46.936   9.173  21.942  0.00  0.00    +0.000 A 
ENDBRANCH  10  11
ENDBRANCH   3  10
BRANCH   6  17
ATOM     17  C   UNL     1      47.661   4.229  16.362  0.00  0.00    +0.000 C 
BRANCH  17  18
ATOM     18  N   UNL     1      46.694   4.616  15.366  0.00  0.00    +0.000 N 
ATOM     19  C   UNL     1      46.764   4.143  14.076  0.00  0.00    +0.000 C 
ATOM     20  O   UNL     1      47.631   3.347  13.726  0.00  0.00    +0.000 OA
ATOM     21  H   UNL     1      46.139   5.448  15.552  0.00  0.00    +0.000 HD
BRANCH  19  22
ATOM     22  C   UNL     1      45.711   4.589  13.152  0.00  0.00    +0.000 A 
ATOM     23  C   UNL     1      44.814   3.662  12.632  0.00  0.00    +0.000 A 
ATOM     24  S   UNL     1      43.633   4.355  11.613  0.00  0.00    +0.000 S 
ATOM     25  C   UNL     1      44.311   5.906  11.791  0.00  0.00    +0.000 A 
ATOM     26  N   UNL     1      43.782   6.978  11.140  0.00  0.00    +0.000 NA
ATOM     27  C   UNL     1      44.413   8.088  11.343  0.00  0.00    +0.000 A 
ATOM     28  N   UNL     1      45.519   8.225  12.136  0.00  0.00    +0.000 N 
ATOM     29  C   UNL     1      46.069   7.172  12.838  0.00  0.00    +0.000 A 
ATOM     30  O   UNL     1      47.027   7.337  13.586  0.00  0.00    +0.000 OA
ATOM     31  C   UNL     1      45.407   5.900  12.632  0.00  0.00    +0.000 A 
ATOM     32  H   UNL     1      45.956   9.126  12.272  0.00  0.00    +0.000 HD
ENDBRANCH  19  22
ENDBRANCH  17  18
ENDBRANCH   6  17
TORSDOF 7
ENDMDL
MODEL 8
REMARK VINA RESULT:    -6.826      4.230      9.979
REMARK INTER + INTRA:         -10.372
REMARK INTER:                  -9.339
REMARK INTRA:                  -1.033
REMARK UNBOUND:                -0.752
REMARK  Name = 
REMARK  8 active torsions:
REMARK  status: ('A' for Active; 'I' for Inactive)
REMARK    1  A    between atoms: C_1  and  C_2
REMARK    2  A    between atoms: C_2  and  C_3
REMARK    3  A    between atoms: C_3  and  C_4
REMARK    4  A    between atoms: C_6  and  C_7
REMARK    5  A    between atoms: C_7  and  C_8
REMARK    6  A    between atoms: C_16  and  C_17
REMARK    7  A    between atoms: C_17  and  N_18
REMARK    8  A    between atoms: C_19  and  C_21
REMARK                            x       y       z     vdW  Elec       q    Type
REMARK                         _______ _______ _______ _____ _____    ______ ____
ROOT
ATOM      1  C   UNL     1      48.968   7.751  17.795  0.00  0.00    +0.000 A 
ATOM      2  N   UNL     1      48.669   8.321  18.999  0.00  0.00    +0.000 NA
ATOM      3  C   UNL     1      47.909   7.627  19.885  0.00  0.00    +0.000 A 
ATOM      4  C   UNL     1      47.414   6.363  19.590  0.00  0.00    +0.000 A 
ATOM      5  C   UNL     1      47.728   5.787  18.361  0.00  0.00    +0.000 A 
ATOM      6  C   UNL     1      48.513   6.479  17.428  0.00  0.00    +0.000 A 
ENDROOT
BRANCH   1   7
ATOM      7  C   UNL     1      49.812   8.605  16.878  0.00  0.00    +0.000 C 
BRANCH   7   9
ATOM      8  C   UNL     1      49.182  10.983  16.348  0.00  0.00    +0.000 C 
ATOM      9  C   UNL     1      48.958   9.520  15.997  0.00  0.00    +0.000 C 
ENDBRANCH   7   9
ENDBRANCH   1   7
BRANCH   3  10
ATOM     10  C   UNL     1      47.663   8.253  21.245  0.00  0.00    +0.000 C 
BRANCH  10  11
ATOM     11  C   UNL     1      46.768   9.476  21.198  0.00  0.00    +0.000 A 
ATOM     12  C   UNL     1      45.928   9.777  22.282  0.00  0.00    +0.000 A 
ATOM     13  C   UNL     1      45.056  10.866  22.227  0.00  0.00    +0.000 A 
ATOM     14  C   UNL     1      45.030  11.683  21.099  0.00  0.00    +0.000 A 
ATOM     15  C   UNL     1      45.889  11.421  20.033  0.00  0.00    +0.000 A 
ATOM     16  C   UNL     1      46.754  10.324  20.080  0.00  0.00    +0.000 A 
ENDBRANCH  10  11
ENDBRANCH   3  10
BRANCH   6  17
ATOM     17  C   UNL     1      48.849   5.824  16.112  0.00  0.00    +0.000 C 
BRANCH  17  18
ATOM     18  N   UNL     1      47.724   5.809  15.211  0.00  0.00    +0.000 N 
ATOM     19  C   UNL     1      47.858   6.175  13.892  0.00  0.00    +0.000 C 
ATOM     20  O   UNL     1      48.943   6.501  13.418  0.00  0.00    +0.000 OA
ATOM     21  H   UNL     1      46.795   5.796  15.624  0.00  0.00    +0.000 HD
BRANCH  19  22
ATOM     22  C   UNL     1      46.648   6.100  13.061  0.00  0.00    +0.000 A 
ATOM     23  C   UNL     1      46.116   7.261  12.512  0.00  0.00    +0.000 A 
ATOM     24  S   UNL     1      44.740   6.989  11.540  0.00  0.00    +0.000 S 
ATOM     25  C   UNL     1      44.776   5.318  11.863  0.00  0.00    +0.000 A 
ATOM     26  N   UNL     1      43.831   4.486  11.347  0.00  0.00    +0.000 NA
ATOM     27  C   UNL     1      43.962   3.249  11.696  0.00  0.00    +0.000 A 
ATOM     28  N   UNL     1      44.951   2.766  12.510  0.00  0.00    +0.000 N 
ATOM     29  C   UNL     1      45.946   3.569  13.030  0.00  0.00    +0.000 A 
ATOM     30  O   UNL     1      46.851   3.098  13.710  0.00  0.00    +0.000 OA
ATOM     31  C   UNL     1      45.834   4.970  12.681  0.00  0.00    +0.000 A 
ATOM     32  H   UNL     1      45.013   1.782  12.730  0.00  0.00    +0.000 HD
ENDBRANCH  19  22
ENDBRANCH  17  18
ENDBRANCH   6  17
TORSDOF 7
ENDMDL
MODEL 9
REMARK VINA RESULT:    -6.761      2.460      3.807
REMARK INTER + INTRA:         -10.279
REMARK INTER:                  -9.006
REMARK INTRA:                  -1.274
REMARK UNBOUND:                -0.752
REMARK  Name = 
REMARK  8 active torsions:
REMARK  status: ('A' for Active; 'I' for Inactive)
REMARK    1  A    between atoms: C_1  and  C_2
REMARK    2  A    between atoms: C_2  and  C_3
REMARK    3  A    between atoms: C_3  and  C_4
REMARK    4  A    between atoms: C_6  and  C_7
REMARK    5  A    between atoms: C_7  and  C_8
REMARK    6  A    between atoms: C_16  and  C_17
REMARK    7  A    between atoms: C_17  and  N_18
REMARK    8  A    between atoms: C_19  and  C_21
REMARK                            x       y       z     vdW  Elec       q    Type
REMARK                         _______ _______ _______ _____ _____    ______ ____
ROOT
ATOM      1  C   UNL     1      46.152   7.717  12.344  0.00  0.00    +0.000 A 
ATOM      2  N   UNL     1      45.305   6.960  11.588  0.00  0.00    +0.000 NA
ATOM      3  C   UNL     1      45.319   5.610  11.736  0.00  0.00    +0.000 A 
ATOM      4  C   UNL     1      46.186   4.981  12.620  0.00  0.00    +0.000 A 
ATOM      5  C   UNL     1      47.044   5.761  13.392  0.00  0.00    +0.000 A 
ATOM      6  C   UNL     1      47.049   7.157  13.262  0.00  0.00    +0.000 A 
ENDROOT
BRANCH   1   7
ATOM      7  C   UNL     1      46.065   9.206  12.102  0.00  0.00    +0.000 C 
BRANCH   7   9
ATOM      8  C   UNL     1      44.113  10.761  11.777  0.00  0.00    +0.000 C 
ATOM      9  C   UNL     1      44.877   9.574  11.209  0.00  0.00    +0.000 C 
ENDBRANCH   7   9
ENDBRANCH   1   7
BRANCH   3  10
ATOM     10  C   UNL     1      44.309   4.803  10.941  0.00  0.00    +0.000 C 
BRANCH  10  11
ATOM     11  C   UNL     1      44.926   3.993   9.818  0.00  0.00    +0.000 A 
ATOM     12  C   UNL     1      45.558   4.640   8.744  0.00  0.00    +0.000 A 
ATOM     13  C   UNL     1      46.077   3.909   7.675  0.00  0.00    +0.000 A 
ATOM     14  C   UNL     1      45.995   2.518   7.677  0.00  0.00    +0.000 A 
ATOM     15  C   UNL     1      45.409   1.859   8.756  0.00  0.00    +0.000 A 
ATOM     16  C   UNL     1      44.877   2.590   9.822  0.00  0.00    +0.000 A 
ENDBRANCH  10  11
ENDBRANCH   3  10
BRANCH   6  17
ATOM     17  C   UNL     1      47.978   7.977  14.121  0.00  0.00    +0.000 C 
BRANCH  17  18
ATOM     18  N   UNL     1      48.290   7.318  15.365  0.00  0.00    +0.000 N 
ATOM     19  C   UNL     1      48.401   8.022  16.541  0.00  0.00    +0.000 C 
ATOM     20  O   UNL     1      48.209   9.234  16.590  0.00  0.00    +0.000 OA
ATOM     21  H   UNL     1      48.699   6.388  15.310  0.00  0.00    +0.000 HD
BRANCH  19  22
ATOM     22  C   UNL     1      48.703   7.242  17.749  0.00  0.00    +0.000 A 
ATOM     23  C   UNL     1      47.900   7.381  18.876  0.00  0.00    +0.000 A 
ATOM     24  S   UNL     1      48.362   6.372  20.173  0.00  0.00    +0.000 S 
ATOM     25  C   UNL     1      49.681   5.753  19.291  0.00  0.00    +0.000 A 
ATOM     26  N   UNL     1      50.527   4.843  19.846  0.00  0.00    +0.000 NA
ATOM     27  C   UNL     1      51.500   4.482  19.077  0.00  0.00    +0.000 A 
ATOM     28  N   UNL     1      51.704   4.943  17.805  0.00  0.00    +0.000 N 
ATOM     29  C   UNL     1      50.854   5.842  17.192  0.00  0.00    +0.000 A 
ATOM     30  O   UNL     1      51.031   6.194  16.031  0.00  0.00    +0.000 OA
ATOM     31  C   UNL     1      49.754   6.292  18.021  0.00  0.00    +0.000 A 
ATOM     32  H   UNL     1      52.473   4.605  17.243  0.00  0.00    +0.000 HD
ENDBRANCH  19  22
ENDBRANCH  17  18
ENDBRANCH   6  17
TORSDOF 7
ENDMDL
