MODEL 1
REMARK VINA RESULT:    -8.756      0.000      0.000
REMARK INTER + INTRA:         -12.543
REMARK INTER:                 -11.827
REMARK INTRA:                  -0.717
REMARK UNBOUND:                -0.717
REMARK  Name = 
REMARK  6 active torsions:
REMARK  status: ('A' for Active; 'I' for Inactive)
REMARK    1  A    between atoms: C_2  and  C_20
REMARK    2  A    between atoms: N_3  and  C_4
REMARK    3  A    between atoms: C_4  and  C_5
REMARK    4  A    between atoms: C_8  and  C_9
REMARK    5  A    between atoms: C_9  and  C_10
REMARK    6  A    between atoms: C_10  and  N_11
REMARK                            x       y       z     vdW  Elec       q    Type
REMARK                         _______ _______ _______ _____ _____    ______ ____
ROOT
ATOM      1  C   UNL     1      46.123   7.210  12.303  0.00  0.00    +0.000 A 
ATOM      2  C   UNL     1      47.007   6.146  12.497  0.00  0.00    +0.000 A 
ATOM      3  C   UNL     1      48.135   6.301  13.302  0.00  0.00    +0.000 A 
ATOM      4  C   UNL     1      48.400   7.515  13.952  0.00  0.00    +0.000 A 
ATOM      5  C   UNL     1      47.491   8.571  13.781  0.00  0.00    +0.000 A 
ATOM      6  C   UNL     1      46.363   8.418  12.972  0.00  0.00    +0.000 A 
ENDROOT
BRANCH   1   7
ATOM      7  C   UNL     1      44.926   7.034  11.413  0.00  0.00    +0.000 C 
BRANCH   7  10
ATOM      8  O   UNL     1      42.871   5.328  10.729  0.00  0.00    +0.000 OA
ATOM      9  C   UNL     1      44.001   5.058  10.366  0.00  0.00    +0.000 C 
ATOM     10  N   UNL     1      45.077   5.889  10.562  0.00  0.00    +0.000 N 
ATOM     11  H   UNL     1      46.001   5.498  10.475  0.00  0.00    +0.000 HD
BRANCH   9  12
ATOM     12  C   UNL     1      44.351   3.756   9.797  0.00  0.00    +0.000 A 
ATOM     13  C   UNL     1      44.018   2.553  10.403  0.00  0.00    +0.000 A 
ATOM     14  N   UNL     1      44.479   1.546   9.599  0.00  0.00    +0.000 N 
ATOM     15  C   UNL     1      45.420   2.062   8.750  0.00  0.00    +0.000 A 
ATOM     16  C   UNL     1      46.458   1.443   8.048  0.00  0.00    +0.000 A 
ATOM     17  C   UNL     1      47.178   2.238   7.148  0.00  0.00    +0.000 A 
ATOM     18  C   UNL     1      46.782   3.544   6.876  0.00  0.00    +0.000 A 
ATOM     19  C   UNL     1      45.754   4.145   7.604  0.00  0.00    +0.000 A 
ATOM     20  C   UNL     1      45.149   3.420   8.653  0.00  0.00    +0.000 A 
ATOM     21  H   UNL     1      44.232   0.567   9.685  0.00  0.00    +0.000 HD
ENDBRANCH   9  12
ENDBRANCH   7  10
ENDBRANCH   1   7
BRANCH   4  22
ATOM     22  C   UNL     1      49.626   7.737  14.821  0.00  0.00    +0.000 C 
BRANCH  22  23
ATOM     23  C   UNL     1      49.435   7.370  16.301  0.00  0.00    +0.000 C 
BRANCH  23  24
ATOM     24  N   UNL     1      48.207   6.593  16.522  0.00  0.00    +0.000 N 
ATOM     25  C   UNL     1      48.511   5.237  16.756  0.00  0.00    +0.000 A 
ATOM     26  C   UNL     1      47.439   4.343  16.946  0.00  0.00    +0.000 A 
ATOM     27  C   UNL     1      47.722   3.009  17.197  0.00  0.00    +0.000 A 
ATOM     28  C   UNL     1      49.032   2.603  17.238  0.00  0.00    +0.000 A 
ATOM     29  N   UNL     1      50.053   3.462  17.051  0.00  0.00    +0.000 NA
ATOM     30  N   UNL     1      49.776   4.776  16.817  0.00  0.00    +0.000 NA
ATOM     31  H   UNL     1      47.564   6.659  15.741  0.00  0.00    +0.000 HD
ENDBRANCH  23  24
ENDBRANCH  22  23
ENDBRANCH   4  22
TORSDOF 6
ENDMDL
MODEL 2
REMARK VINA RESULT:    -8.292      2.793      9.296
REMARK INTER + INTRA:         -11.917
REMARK INTER:                 -11.206
REMARK INTRA:                  -0.711
REMARK UNBOUND:                -0.717
REMARK  Name = 
REMARK  6 active torsions:
REMARK  status: ('A' for Active; 'I' for Inactive)
REMARK    1  A    between atoms: C_2  and  C_20
REMARK    2  A    between atoms: N_3  and  C_4
REMARK    3  A    between atoms: C_4  and  C_5
REMARK    4  A    between atoms: C_8  and  C_9
REMARK    5  A    between atoms: C_9  and  C_10
REMARK    6  A    between atoms: C_10  and  N_11
REMARK                            x       y       z     vdW  Elec       q    Type
REMARK                         _______ _______ _______ _____ _____    ______ ____
ROOT
ATOM      1  C   UNL     1      47.118   6.066  13.087  0.00  0.00    +0.000 A 
ATOM      2  C   UNL     1      46.864   6.702  11.869  0.00  0.00    +0.000 A 
ATOM      3  C   UNL     1      45.806   6.285  11.061  0.00  0.00    +0.000 A 
ATOM      4  C   UNL     1      44.963   5.236  11.455  0.00  0.00    +0.000 A 
ATOM      5  C   UNL     1      45.202   4.623  12.694  0.00  0.00    +0.000 A 
ATOM      6  C   UNL     1      46.263   5.037  13.504  0.00  0.00    +0.000 A 
ENDROOT
BRANCH   1   7
ATOM      7  C   UNL     1      48.275   6.511  13.934  0.00  0.00    +0.000 C 
BRANCH   7  10
ATOM      8  O   UNL     1      50.171   6.302  15.925  0.00  0.00    +0.000 OA
ATOM      9  C   UNL     1      48.996   6.204  16.225  0.00  0.00    +0.000 C 
ATOM     10  N   UNL     1      47.969   6.396  15.331  0.00  0.00    +0.000 N 
ATOM     11  H   UNL     1      47.055   6.050  15.576  0.00  0.00    +0.000 HD
BRANCH   9  12
ATOM     12  C   UNL     1      48.558   5.741  17.542  0.00  0.00    +0.000 A 
ATOM     13  C   UNL     1      47.883   4.546  17.736  0.00  0.00    +0.000 A 
ATOM     14  N   UNL     1      47.646   4.420  19.078  0.00  0.00    +0.000 N 
ATOM     15  C   UNL     1      47.778   5.651  19.661  0.00  0.00    +0.000 A 
ATOM     16  C   UNL     1      47.267   6.156  20.860  0.00  0.00    +0.000 A 
ATOM     17  C   UNL     1      47.696   7.432  21.245  0.00  0.00    +0.000 A 
ATOM     18  C   UNL     1      48.687   8.097  20.529  0.00  0.00    +0.000 A 
ATOM     19  C   UNL     1      49.167   7.580  19.324  0.00  0.00    +0.000 A 
ATOM     20  C   UNL     1      48.600   6.389  18.821  0.00  0.00    +0.000 A 
ATOM     21  H   UNL     1      47.333   3.575  19.543  0.00  0.00    +0.000 HD
ENDBRANCH   9  12
ENDBRANCH   7  10
ENDBRANCH   1   7
BRANCH   4  22
ATOM     22  C   UNL     1      43.813   4.733  10.599  0.00  0.00    +0.000 C 
BRANCH  22  23
ATOM     23  C   UNL     1      44.178   3.580   9.652  0.00  0.00    +0.000 C 
BRANCH  23  24
ATOM     24  N   UNL     1      44.891   4.053   8.457  0.00  0.00    +0.000 N 
ATOM     25  C   UNL     1      45.739   3.047   7.952  0.00  0.00    +0.000 A 
ATOM     26  C   UNL     1      46.529   3.353   6.827  0.00  0.00    +0.000 A 
ATOM     27  C   UNL     1      47.355   2.369   6.306  0.00  0.00    +0.000 A 
ATOM     28  C   UNL     1      47.384   1.137   6.910  0.00  0.00    +0.000 A 
ATOM     29  N   UNL     1      46.629   0.851   7.988  0.00  0.00    +0.000 NA
ATOM     30  N   UNL     1      45.808   1.814   8.494  0.00  0.00    +0.000 NA
ATOM     31  H   UNL     1      45.437   4.886   8.639  0.00  0.00    +0.000 HD
ENDBRANCH  23  24
ENDBRANCH  22  23
ENDBRANCH   4  22
TORSDOF 6
ENDMDL
MODEL 3
REMARK VINA RESULT:    -8.271      2.257      8.699
REMARK INTER + INTRA:         -11.888
REMARK INTER:                 -10.880
REMARK INTRA:                  -1.008
REMARK UNBOUND:                -0.717
REMARK  Name = 
REMARK  6 active torsions:
REMARK  status: ('A' for Active; 'I' for Inactive)
REMARK    1  A    between atoms: C_2  and  C_20
REMARK    2  A    between atoms: N_3  and  C_4
REMARK    3  A    between atoms: C_4  and  C_5
REMARK    4  A    between atoms: C_8  and  C_9
REMARK    5  A    between atoms: C_9  and  C_10
REMARK    6  A    between atoms: C_10  and  N_11
REMARK                            x       y       z     vdW  Elec       q    Type
REMARK                         _______ _______ _______ _____ _____    ______ ____
ROOT
ATOM      1  C   UNL     1      46.678   6.369  12.617  0.00  0.00    +0.000 A 
ATOM      2  C   UNL     1      45.954   6.612  11.447  0.00  0.00    +0.000 A 
ATOM      3  C   UNL     1      45.111   5.634  10.921  0.00  0.00    +0.000 A 
ATOM      4  C   UNL     1      44.953   4.394  11.558  0.00  0.00    +0.000 A 
ATOM      5  C   UNL     1      45.656   4.168  12.751  0.00  0.00    +0.000 A 
ATOM      6  C   UNL     1      46.504   5.145  13.278  0.00  0.00    +0.000 A 
ENDROOT
BRANCH   1   7
ATOM      7  C   UNL     1      47.600   7.424  13.157  0.00  0.00    +0.000 C 
BRANCH   7  10
ATOM      8  O   UNL     1      49.995   7.038  14.466  0.00  0.00    +0.000 OA
ATOM      9  C   UNL     1      48.966   7.030  15.116  0.00  0.00    +0.000 C 
ATOM     10  N   UNL     1      47.733   7.316  14.582  0.00  0.00    +0.000 N 
ATOM     11  H   UNL     1      46.915   7.041  15.102  0.00  0.00    +0.000 HD
BRANCH   9  12
ATOM     12  C   UNL     1      48.922   6.587  16.510  0.00  0.00    +0.000 A 
ATOM     13  C   UNL     1      49.556   7.268  17.539  0.00  0.00    +0.000 A 
ATOM     14  N   UNL     1      49.294   6.594  18.701  0.00  0.00    +0.000 N 
ATOM     15  C   UNL     1      48.880   5.328  18.386  0.00  0.00    +0.000 A 
ATOM     16  C   UNL     1      48.885   4.149  19.137  0.00  0.00    +0.000 A 
ATOM     17  C   UNL     1      48.264   3.031  18.568  0.00  0.00    +0.000 A 
ATOM     18  C   UNL     1      47.563   3.138  17.371  0.00  0.00    +0.000 A 
ATOM     19  C   UNL     1      47.588   4.321  16.630  0.00  0.00    +0.000 A 
ATOM     20  C   UNL     1      48.375   5.397  17.095  0.00  0.00    +0.000 A 
ATOM     21  H   UNL     1      49.470   6.944  19.636  0.00  0.00    +0.000 HD
ENDBRANCH   9  12
ENDBRANCH   7  10
ENDBRANCH   1   7
BRANCH   4  22
ATOM     22  C   UNL     1      44.063   3.291  11.012  0.00  0.00    +0.000 C 
BRANCH  22  23
ATOM     23  C   UNL     1      44.249   3.004   9.514  0.00  0.00    +0.000 C 
BRANCH  23  24
ATOM     24  N   UNL     1      45.146   1.863   9.279  0.00  0.00    +0.000 N 
ATOM     25  C   UNL     1      45.925   2.072   8.123  0.00  0.00    +0.000 A 
ATOM     26  C   UNL     1      46.812   1.050   7.731  0.00  0.00    +0.000 A 
ATOM     27  C   UNL     1      47.600   1.248   6.608  0.00  0.00    +0.000 A 
ATOM     28  C   UNL     1      47.480   2.423   5.910  0.00  0.00    +0.000 A 
ATOM     29  N   UNL     1      46.627   3.395   6.286  0.00  0.00    +0.000 NA
ATOM     30  N   UNL     1      45.861   3.207   7.398  0.00  0.00    +0.000 NA
ATOM     31  H   UNL     1      44.641   0.989   9.185  0.00  0.00    +0.000 HD
ENDBRANCH  23  24
ENDBRANCH  22  23
ENDBRANCH   4  22
TORSDOF 6
ENDMDL
MODEL 4
REMARK VINA RESULT:    -8.056      1.782      2.047
REMARK INTER + INTRA:         -11.598
REMARK INTER:                 -10.909
REMARK INTRA:                  -0.689
REMARK UNBOUND:                -0.717
REMARK  Name = 
REMARK  6 active torsions:
REMARK  status: ('A' for Active; 'I' for Inactive)
REMARK    1  A    between atoms: C_2  and  C_20
REMARK    2  A    between atoms: N_3  and  C_4
REMARK    3  A    between atoms: C_4  and  C_5
REMARK    4  A    between atoms: C_8  and  C_9
REMARK    5  A    between atoms: C_9  and  C_10
REMARK    6  A    between atoms: C_10  and  N_11
REMARK                            x       y       z     vdW  Elec       q    Type
REMARK                         _______ _______ _______ _____ _____    ______ ____
ROOT
ATOM      1  C   UNL     1      46.321   6.742  12.089  0.00  0.00    +0.000 A 
ATOM      2  C   UNL     1      47.115   7.876  12.283  0.00  0.00    +0.000 A 
ATOM      3  C   UNL     1      48.060   7.910  13.308  0.00  0.00    +0.000 A 
ATOM      4  C   UNL     1      48.254   6.807  14.152  0.00  0.00    +0.000 A 
ATOM      5  C   UNL     1      47.478   5.658  13.931  0.00  0.00    +0.000 A 
ATOM      6  C   UNL     1      46.528   5.624  12.908  0.00  0.00    +0.000 A 
ENDROOT
BRANCH   1   7
ATOM      7  C   UNL     1      45.290   6.730  10.997  0.00  0.00    +0.000 C 
BRANCH   7  10
ATOM      8  O   UNL     1      43.237   5.057  10.231  0.00  0.00    +0.000 OA
ATOM      9  C   UNL     1      44.375   4.774   9.903  0.00  0.00    +0.000 C 
ATOM     10  N   UNL     1      45.455   5.590  10.141  0.00  0.00    +0.000 N 
ATOM     11  H   UNL     1      46.376   5.188  10.081  0.00  0.00    +0.000 HD
BRANCH   9  12
ATOM     12  C   UNL     1      44.727   3.473   9.336  0.00  0.00    +0.000 A 
ATOM     13  C   UNL     1      44.312   2.271   9.890  0.00  0.00    +0.000 A 
ATOM     14  N   UNL     1      44.800   1.264   9.102  0.00  0.00    +0.000 N 
ATOM     15  C   UNL     1      45.819   1.764   8.338  0.00  0.00    +0.000 A 
ATOM     16  C   UNL     1      46.888   1.125   7.703  0.00  0.00    +0.000 A 
ATOM     17  C   UNL     1      47.698   1.912   6.877  0.00  0.00    +0.000 A 
ATOM     18  C   UNL     1      47.366   3.235   6.603  0.00  0.00    +0.000 A 
ATOM     19  C   UNL     1      46.305   3.856   7.264  0.00  0.00    +0.000 A 
ATOM     20  C   UNL     1      45.599   3.132   8.249  0.00  0.00    +0.000 A 
ATOM     21  H   UNL     1      44.518   0.292   9.149  0.00  0.00    +0.000 HD
ENDBRANCH   9  12
ENDBRANCH   7  10
ENDBRANCH   1   7
BRANCH   4  22
ATOM     22  C   UNL     1      49.256   6.805  15.294  0.00  0.00    +0.000 C 
BRANCH  22  23
ATOM     23  C   UNL     1      48.854   5.939  16.497  0.00  0.00    +0.000 C 
BRANCH  23  24
ATOM     24  N   UNL     1      48.037   6.685  17.464  0.00  0.00    +0.000 N 
ATOM     25  C   UNL     1      48.136   6.111  18.748  0.00  0.00    +0.000 A 
ATOM     26  C   UNL     1      47.378   6.684  19.788  0.00  0.00    +0.000 A 
ATOM     27  C   UNL     1      47.480   6.144  21.060  0.00  0.00    +0.000 A 
ATOM     28  C   UNL     1      48.303   5.065  21.262  0.00  0.00    +0.000 A 
ATOM     29  N   UNL     1      49.022   4.518  20.262  0.00  0.00    +0.000 NA
ATOM     30  N   UNL     1      48.933   5.057  19.013  0.00  0.00    +0.000 NA
ATOM     31  H   UNL     1      47.061   6.725  17.194  0.00  0.00    +0.000 HD
ENDBRANCH  23  24
ENDBRANCH  22  23
ENDBRANCH   4  22
TORSDOF 6
ENDMDL
MODEL 5
REMARK VINA RESULT:    -7.741      3.792      9.524
REMARK INTER + INTRA:         -11.173
REMARK INTER:                 -10.766
REMARK INTRA:                  -0.408
REMARK UNBOUND:                -0.717
REMARK  Name = 
REMARK  6 active torsions:
REMARK  status: ('A' for Active; 'I' for Inactive)
REMARK    1  A    between atoms: C_2  and  C_20
REMARK    2  A    between atoms: N_3  and  C_4
REMARK    3  A    between atoms: C_4  and  C_5
REMARK    4  A    between atoms: C_8  and  C_9
REMARK    5  A    between atoms: C_9  and  C_10
REMARK    6  A    between atoms: C_10  and  N_11
REMARK                            x       y       z     vdW  Elec       q    Type
REMARK                         _______ _______ _______ _____ _____    ______ ____
ROOT
ATOM      1  C   UNL     1      44.897   4.190   9.645  0.00  0.00    +0.000 A 
ATOM      2  C   UNL     1      44.845   2.823   9.931  0.00  0.00    +0.000 A 
ATOM      3  C   UNL     1      45.450   1.899   9.080  0.00  0.00    +0.000 A 
ATOM      4  C   UNL     1      46.140   2.315   7.932  0.00  0.00    +0.000 A 
ATOM      5  C   UNL     1      46.219   3.691   7.667  0.00  0.00    +0.000 A 
ATOM      6  C   UNL     1      45.610   4.618   8.517  0.00  0.00    +0.000 A 
ENDROOT
BRANCH   1   7
ATOM      7  C   UNL     1      44.219   5.170  10.559  0.00  0.00    +0.000 C 
BRANCH   7  10
ATOM      8  O   UNL     1      46.183   5.356  12.485  0.00  0.00    +0.000 OA
ATOM      9  C   UNL     1      45.920   6.342  11.822  0.00  0.00    +0.000 C 
ATOM     10  N   UNL     1      45.036   6.331  10.770  0.00  0.00    +0.000 N 
ATOM     11  H   UNL     1      44.676   7.214  10.443  0.00  0.00    +0.000 HD
BRANCH   9  12
ATOM     12  C   UNL     1      46.422   7.673  12.163  0.00  0.00    +0.000 A 
ATOM     13  C   UNL     1      45.591   8.727  12.514  0.00  0.00    +0.000 A 
ATOM     14  N   UNL     1      46.386   9.807  12.785  0.00  0.00    +0.000 N 
ATOM     15  C   UNL     1      47.619   9.589  12.231  0.00  0.00    +0.000 A 
ATOM     16  C   UNL     1      48.626  10.484  11.858  0.00  0.00    +0.000 A 
ATOM     17  C   UNL     1      49.840   9.931  11.433  0.00  0.00    +0.000 A 
ATOM     18  C   UNL     1      50.066   8.560  11.513  0.00  0.00    +0.000 A 
ATOM     19  C   UNL     1      49.038   7.686  11.871  0.00  0.00    +0.000 A 
ATOM     20  C   UNL     1      47.750   8.213  12.111  0.00  0.00    +0.000 A 
ATOM     21  H   UNL     1      46.083  10.662  13.236  0.00  0.00    +0.000 HD
ENDBRANCH   9  12
ENDBRANCH   7  10
ENDBRANCH   1   7
BRANCH   4  22
ATOM     22  C   UNL     1      46.796   1.345   6.964  0.00  0.00    +0.000 C 
BRANCH  22  23
ATOM     23  C   UNL     1      47.490   2.009   5.765  0.00  0.00    +0.000 C 
BRANCH  23  24
ATOM     24  N   UNL     1      46.591   2.135   4.609  0.00  0.00    +0.000 N 
ATOM     25  C   UNL     1      46.520   0.919   3.900  0.00  0.00    +0.000 A 
ATOM     26  C   UNL     1      45.729   0.880   2.734  0.00  0.00    +0.000 A 
ATOM     27  C   UNL     1      45.632  -0.313   2.035  0.00  0.00    +0.000 A 
ATOM     28  C   UNL     1      46.318  -1.410   2.493  0.00  0.00    +0.000 A 
ATOM     29  N   UNL     1      47.076  -1.366   3.606  0.00  0.00    +0.000 NA
ATOM     30  N   UNL     1      47.162  -0.196   4.301  0.00  0.00    +0.000 NA
ATOM     31  H   UNL     1      46.879   2.872   3.975  0.00  0.00    +0.000 HD
ENDBRANCH  23  24
ENDBRANCH  22  23
ENDBRANCH   4  22
TORSDOF 6
ENDMDL
MODEL 6
REMARK VINA RESULT:    -7.317      2.619      4.211
REMARK INTER + INTRA:         -10.600
REMARK INTER:                  -9.676
REMARK INTRA:                  -0.924
REMARK UNBOUND:                -0.717
REMARK  Name = 
REMARK  6 active torsions:
REMARK  status: ('A' for Active; 'I' for Inactive)
REMARK    1  A    between atoms: C_2  and  C_20
REMARK    2  A    between atoms: N_3  and  C_4
REMARK    3  A    between atoms: C_4  and  C_5
REMARK    4  A    between atoms: C_8  and  C_9
REMARK    5  A    between atoms: C_9  and  C_10
REMARK    6  A    between atoms: C_10  and  N_11
REMARK                            x       y       z     vdW  Elec       q    Type
REMARK                         _______ _______ _______ _____ _____    ______ ____
ROOT
ATOM      1  C   UNL     1      46.162   7.069  12.564  0.00  0.00    +0.000 A 
ATOM      2  C   UNL     1      46.541   8.339  13.005  0.00  0.00    +0.000 A 
ATOM      3  C   UNL     1      47.622   8.492  13.873  0.00  0.00    +0.000 A 
ATOM      4  C   UNL     1      48.366   7.385  14.307  0.00  0.00    +0.000 A 
ATOM      5  C   UNL     1      48.001   6.115  13.834  0.00  0.00    +0.000 A 
ATOM      6  C   UNL     1      46.916   5.959  12.968  0.00  0.00    +0.000 A 
ENDROOT
BRANCH   1   7
ATOM      7  C   UNL     1      44.980   6.919  11.649  0.00  0.00    +0.000 C 
BRANCH   7  10
ATOM      8  O   UNL     1      42.906   5.397  10.659  0.00  0.00    +0.000 OA
ATOM      9  C   UNL     1      44.049   5.060  10.409  0.00  0.00    +0.000 C 
ATOM     10  N   UNL     1      45.149   5.803  10.763  0.00  0.00    +0.000 N 
ATOM     11  H   UNL     1      46.049   5.350  10.759  0.00  0.00    +0.000 HD
BRANCH   9  12
ATOM     12  C   UNL     1      44.373   3.762   9.818  0.00  0.00    +0.000 A 
ATOM     13  C   UNL     1      44.003   2.556  10.395  0.00  0.00    +0.000 A 
ATOM     14  N   UNL     1      44.447   1.554   9.577  0.00  0.00    +0.000 N 
ATOM     15  C   UNL     1      45.410   2.063   8.748  0.00  0.00    +0.000 A 
ATOM     16  C   UNL     1      46.440   1.432   8.045  0.00  0.00    +0.000 A 
ATOM     17  C   UNL     1      47.190   2.226   7.169  0.00  0.00    +0.000 A 
ATOM     18  C   UNL     1      46.830   3.547   6.919  0.00  0.00    +0.000 A 
ATOM     19  C   UNL     1      45.810   4.159   7.649  0.00  0.00    +0.000 A 
ATOM     20  C   UNL     1      45.175   3.429   8.676  0.00  0.00    +0.000 A 
ATOM     21  H   UNL     1      44.175   0.579   9.640  0.00  0.00    +0.000 HD
ENDBRANCH   9  12
ENDBRANCH   7  10
ENDBRANCH   1   7
BRANCH   4  22
ATOM     22  C   UNL     1      49.537   7.500  15.268  0.00  0.00    +0.000 C 
BRANCH  22  23
ATOM     23  C   UNL     1      50.619   8.503  14.838  0.00  0.00    +0.000 C 
BRANCH  23  24
ATOM     24  N   UNL     1      51.569   7.913  13.885  0.00  0.00    +0.000 N 
ATOM     25  C   UNL     1      51.612   8.666  12.694  0.00  0.00    +0.000 A 
ATOM     26  C   UNL     1      52.447   8.211  11.655  0.00  0.00    +0.000 A 
ATOM     27  C   UNL     1      52.516   8.950  10.484  0.00  0.00    +0.000 A 
ATOM     28  C   UNL     1      51.760  10.090  10.372  0.00  0.00    +0.000 A 
ATOM     29  N   UNL     1      50.960  10.518  11.368  0.00  0.00    +0.000 NA
ATOM     30  N   UNL     1      50.902   9.799  12.524  0.00  0.00    +0.000 NA
ATOM     31  H   UNL     1      51.343   6.951  13.661  0.00  0.00    +0.000 HD
ENDBRANCH  23  24
ENDBRANCH  22  23
ENDBRANCH   4  22
TORSDOF 6
ENDMDL
MODEL 7
REMARK VINA RESULT:    -7.259      2.992      9.299
REMARK INTER + INTRA:         -10.522
REMARK INTER:                 -10.027
REMARK INTRA:                  -0.495
REMARK UNBOUND:                -0.717
REMARK  Name = 
REMARK  6 active torsions:
REMARK  status: ('A' for Active; 'I' for Inactive)
REMARK    1  A    between atoms: C_2  and  C_20
REMARK    2  A    between atoms: N_3  and  C_4
REMARK    3  A    between atoms: C_4  and  C_5
REMARK    4  A    between atoms: C_8  and  C_9
REMARK    5  A    between atoms: C_9  and  C_10
REMARK    6  A    between atoms: C_10  and  N_11
REMARK                            x       y       z     vdW  Elec       q    Type
REMARK                         _______ _______ _______ _____ _____    ______ ____
ROOT
ATOM      1  C   UNL     1      46.666   7.516  12.926  0.00  0.00    +0.000 A 
ATOM      2  C   UNL     1      45.421   7.656  12.309  0.00  0.00    +0.000 A 
ATOM      3  C   UNL     1      44.703   6.532  11.901  0.00  0.00    +0.000 A 
ATOM      4  C   UNL     1      45.200   5.238  12.116  0.00  0.00    +0.000 A 
ATOM      5  C   UNL     1      46.436   5.102  12.766  0.00  0.00    +0.000 A 
ATOM      6  C   UNL     1      47.158   6.227  13.172  0.00  0.00    +0.000 A 
ENDROOT
BRANCH   1   7
ATOM      7  C   UNL     1      47.437   8.737  13.338  0.00  0.00    +0.000 C 
BRANCH   7  10
ATOM      8  O   UNL     1      49.698   8.924  14.905  0.00  0.00    +0.000 OA
ATOM      9  C   UNL     1      48.610   8.892  15.450  0.00  0.00    +0.000 C 
ATOM     10  N   UNL     1      47.420   8.905  14.763  0.00  0.00    +0.000 N 
ATOM     11  H   UNL     1      46.587   8.618  15.251  0.00  0.00    +0.000 HD
BRANCH   9  12
ATOM     12  C   UNL     1      48.461   8.703  16.893  0.00  0.00    +0.000 A 
ATOM     13  C   UNL     1      48.619   7.473  17.514  0.00  0.00    +0.000 A 
ATOM     14  N   UNL     1      48.430   7.662  18.856  0.00  0.00    +0.000 N 
ATOM     15  C   UNL     1      47.772   8.848  19.041  0.00  0.00    +0.000 A 
ATOM     16  C   UNL     1      46.995   9.308  20.108  0.00  0.00    +0.000 A 
ATOM     17  C   UNL     1      46.560  10.637  20.049  0.00  0.00    +0.000 A 
ATOM     18  C   UNL     1      46.998  11.487  19.038  0.00  0.00    +0.000 A 
ATOM     19  C   UNL     1      47.758  10.999  17.973  0.00  0.00    +0.000 A 
ATOM     20  C   UNL     1      48.039   9.616  17.916  0.00  0.00    +0.000 A 
ATOM     21  H   UNL     1      48.655   6.991  19.582  0.00  0.00    +0.000 HD
ENDBRANCH   9  12
ENDBRANCH   7  10
ENDBRANCH   1   7
BRANCH   4  22
ATOM     22  C   UNL     1      44.465   3.986  11.670  0.00  0.00    +0.000 C 
BRANCH  22  23
ATOM     23  C   UNL     1      43.745   4.114  10.318  0.00  0.00    +0.000 C 
BRANCH  23  24
ATOM     24  N   UNL     1      44.634   4.632   9.268  0.00  0.00    +0.000 N 
ATOM     25  C   UNL     1      45.382   3.587   8.689  0.00  0.00    +0.000 A 
ATOM     26  C   UNL     1      46.316   3.919   7.689  0.00  0.00    +0.000 A 
ATOM     27  C   UNL     1      47.047   2.901   7.096  0.00  0.00    +0.000 A 
ATOM     28  C   UNL     1      46.844   1.609   7.510  0.00  0.00    +0.000 A 
ATOM     29  N   UNL     1      45.952   1.297   8.470  0.00  0.00    +0.000 NA
ATOM     30  N   UNL     1      45.224   2.296   9.045  0.00  0.00    +0.000 NA
ATOM     31  H   UNL     1      45.269   5.341   9.616  0.00  0.00    +0.000 HD
ENDBRANCH  23  24
ENDBRANCH  22  23
ENDBRANCH   4  22
TORSDOF 6
ENDMDL
MODEL 8
REMARK VINA RESULT:    -7.134      1.828      2.928
REMARK INTER + INTRA:         -10.353
REMARK INTER:                  -9.531
REMARK INTRA:                  -0.822
REMARK UNBOUND:                -0.717
REMARK  Name = 
REMARK  6 active torsions:
REMARK  status: ('A' for Active; 'I' for Inactive)
REMARK    1  A    between atoms: C_2  and  C_20
REMARK    2  A    between atoms: N_3  and  C_4
REMARK    3  A    between atoms: C_4  and  C_5
REMARK    4  A    between atoms: C_8  and  C_9
REMARK    5  A    between atoms: C_9  and  C_10
REMARK    6  A    between atoms: C_10  and  N_11
REMARK                            x       y       z     vdW  Elec       q    Type
REMARK                         _______ _______ _______ _____ _____    ______ ____
ROOT
ATOM      1  C   UNL     1      47.896   7.700  13.563  0.00  0.00    +0.000 A 
ATOM      2  C   UNL     1      48.183   8.768  14.418  0.00  0.00    +0.000 A 
ATOM      3  C   UNL     1      48.577   8.532  15.735  0.00  0.00    +0.000 A 
ATOM      4  C   UNL     1      48.714   7.226  16.228  0.00  0.00    +0.000 A 
ATOM      5  C   UNL     1      48.457   6.158  15.356  0.00  0.00    +0.000 A 
ATOM      6  C   UNL     1      48.060   6.391  14.037  0.00  0.00    +0.000 A 
ENDROOT
BRANCH   1   7
ATOM      7  C   UNL     1      47.451   7.971  12.155  0.00  0.00    +0.000 C 
BRANCH   7  10
ATOM      8  O   UNL     1      44.814   8.011  11.350  0.00  0.00    +0.000 OA
ATOM      9  C   UNL     1      45.417   6.953  11.325  0.00  0.00    +0.000 C 
ATOM     10  N   UNL     1      46.758   6.842  11.604  0.00  0.00    +0.000 N 
ATOM     11  H   UNL     1      47.125   5.928  11.816  0.00  0.00    +0.000 HD
BRANCH   9  12
ATOM     12  C   UNL     1      44.744   5.671  11.121  0.00  0.00    +0.000 A 
ATOM     13  C   UNL     1      43.914   5.095  12.071  0.00  0.00    +0.000 A 
ATOM     14  N   UNL     1      43.443   3.921  11.549  0.00  0.00    +0.000 N 
ATOM     15  C   UNL     1      44.250   3.553  10.507  0.00  0.00    +0.000 A 
ATOM     16  C   UNL     1      44.475   2.304   9.920  0.00  0.00    +0.000 A 
ATOM     17  C   UNL     1      45.273   2.279   8.770  0.00  0.00    +0.000 A 
ATOM     18  C   UNL     1      45.703   3.461   8.174  0.00  0.00    +0.000 A 
ATOM     19  C   UNL     1      45.481   4.694   8.791  0.00  0.00    +0.000 A 
ATOM     20  C   UNL     1      44.850   4.719  10.053  0.00  0.00    +0.000 A 
ATOM     21  H   UNL     1      42.682   3.371  11.932  0.00  0.00    +0.000 HD
ENDBRANCH   9  12
ENDBRANCH   7  10
ENDBRANCH   1   7
BRANCH   4  22
ATOM     22  C   UNL     1      49.118   6.921  17.660  0.00  0.00    +0.000 C 
BRANCH  22  23
ATOM     23  C   UNL     1      49.283   5.426  17.974  0.00  0.00    +0.000 C 
BRANCH  23  24
ATOM     24  N   UNL     1      50.662   5.092  18.357  0.00  0.00    +0.000 N 
ATOM     25  C   UNL     1      50.990   3.785  17.945  0.00  0.00    +0.000 A 
ATOM     26  C   UNL     1      52.269   3.291  18.273  0.00  0.00    +0.000 A 
ATOM     27  C   UNL     1      52.615   2.015  17.859  0.00  0.00    +0.000 A 
ATOM     28  C   UNL     1      51.700   1.272  17.156  0.00  0.00    +0.000 A 
ATOM     29  N   UNL     1      50.478   1.747  16.849  0.00  0.00    +0.000 NA
ATOM     30  N   UNL     1      50.141   3.007  17.246  0.00  0.00    +0.000 NA
ATOM     31  H   UNL     1      50.814   5.173  19.356  0.00  0.00    +0.000 HD
ENDBRANCH  23  24
ENDBRANCH  22  23
ENDBRANCH   4  22
TORSDOF 6
ENDMDL
MODEL 9
REMARK VINA RESULT:    -7.079      4.852      8.029
REMARK INTER + INTRA:         -10.279
REMARK INTER:                  -9.372
REMARK INTRA:                  -0.907
REMARK UNBOUND:                -0.717
REMARK  Name = 
REMARK  6 active torsions:
REMARK  status: ('A' for Active; 'I' for Inactive)
REMARK    1  A    between atoms: C_2  and  C_20
REMARK    2  A    between atoms: N_3  and  C_4
REMARK    3  A    between atoms: C_4  and  C_5
REMARK    4  A    between atoms: C_8  and  C_9
REMARK    5  A    between atoms: C_9  and  C_10
REMARK    6  A    between atoms: C_10  and  N_11
REMARK                            x       y       z     vdW  Elec       q    Type
REMARK                         _______ _______ _______ _____ _____    ______ ____
ROOT
ATOM      1  C   UNL     1      44.604   9.382  11.725  0.00  0.00    +0.000 A 
ATOM      2  C   UNL     1      43.489   9.021  10.964  0.00  0.00    +0.000 A 
ATOM      3  C   UNL     1      42.733   9.994  10.311  0.00  0.00    +0.000 A 
ATOM      4  C   UNL     1      43.081  11.351  10.384  0.00  0.00    +0.000 A 
ATOM      5  C   UNL     1      44.221  11.705  11.121  0.00  0.00    +0.000 A 
ATOM      6  C   UNL     1      44.977  10.732  11.779  0.00  0.00    +0.000 A 
ENDROOT
BRANCH   1   7
ATOM      7  C   UNL     1      45.393   8.324  12.441  0.00  0.00    +0.000 C 
BRANCH   7  10
ATOM      8  O   UNL     1      46.861   5.991  12.487  0.00  0.00    +0.000 OA
ATOM      9  C   UNL     1      45.690   5.937  12.162  0.00  0.00    +0.000 C 
ATOM     10  N   UNL     1      44.843   7.019  12.206  0.00  0.00    +0.000 N 
ATOM     11  H   UNL     1      43.981   6.969  11.688  0.00  0.00    +0.000 HD
BRANCH   9  12
ATOM     12  C   UNL     1      45.095   4.741  11.565  0.00  0.00    +0.000 A 
ATOM     13  C   UNL     1      44.465   3.758  12.313  0.00  0.00    +0.000 A 
ATOM     14  N   UNL     1      44.014   2.804  11.442  0.00  0.00    +0.000 N 
ATOM     15  C   UNL     1      44.681   2.946  10.256  0.00  0.00    +0.000 A 
ATOM     16  C   UNL     1      44.912   2.037   9.219  0.00  0.00    +0.000 A 
ATOM     17  C   UNL     1      45.527   2.534   8.064  0.00  0.00    +0.000 A 
ATOM     18  C   UNL     1      45.770   3.896   7.915  0.00  0.00    +0.000 A 
ATOM     19  C   UNL     1      45.548   4.781   8.972  0.00  0.00    +0.000 A 
ATOM     20  C   UNL     1      45.113   4.264  10.212  0.00  0.00    +0.000 A 
ATOM     21  H   UNL     1      43.365   2.059  11.670  0.00  0.00    +0.000 HD
ENDBRANCH   9  12
ENDBRANCH   7  10
ENDBRANCH   1   7
BRANCH   4  22
ATOM     22  C   UNL     1      42.277  12.448   9.708  0.00  0.00    +0.000 C 
BRANCH  22  23
ATOM     23  C   UNL     1      40.945  12.782  10.398  0.00  0.00    +0.000 C 
BRANCH  23  24
ATOM     24  N   UNL     1      39.789  12.465   9.548  0.00  0.00    +0.000 N 
ATOM     25  C   UNL     1      39.025  11.425  10.116  0.00  0.00    +0.000 A 
ATOM     26  C   UNL     1      37.898  10.969   9.403  0.00  0.00    +0.000 A 
ATOM     27  C   UNL     1      37.124   9.961   9.956  0.00  0.00    +0.000 A 
ATOM     28  C   UNL     1      37.487   9.433  11.169  0.00  0.00    +0.000 A 
ATOM     29  N   UNL     1      38.568   9.870  11.845  0.00  0.00    +0.000 NA
ATOM     30  N   UNL     1      39.322  10.871  11.307  0.00  0.00    +0.000 NA
ATOM     31  H   UNL     1      40.062  12.200   8.609  0.00  0.00    +0.000 HD
ENDBRANCH  23  24
ENDBRANCH  22  23
ENDBRANCH   4  22
TORSDOF 6
ENDMDL
