MODEL 1
REMARK VINA RESULT:    -8.114      0.000      0.000
REMARK INTER + INTRA:         -10.574
REMARK INTER:                 -10.012
REMARK INTRA:                  -0.562
REMARK UNBOUND:                -0.562
REMARK  Name = 
REMARK  4 active torsions:
REMARK  status: ('A' for Active; 'I' for Inactive)
REMARK    1  A    between atoms: C_2  and  C_4
REMARK    2  A    between atoms: C_8  and  C_9
REMARK    3  A    between atoms: C_9  and  N_10
REMARK    4  A    between atoms: C_15  and  C_16
REMARK                            x       y       z     vdW  Elec       q    Type
REMARK                         _______ _______ _______ _____ _____    ______ ____
ROOT
ATOM      1  N   UNL     1      45.135   2.965  12.408  0.00  0.00    +0.000 N 
ATOM      2  C   UNL     1      44.843   3.413  11.121  0.00  0.00    +0.000 A 
ATOM      3  N   UNL     1      43.975   4.419  10.951  0.00  0.00    +0.000 NA
ATOM      4  C   UNL     1      43.742   4.816   9.693  0.00  0.00    +0.000 A 
ATOM      5  C   UNL     1      44.360   4.268   8.598  0.00  0.00    +0.000 A 
ATOM      6  C   UNL     1      45.249   3.242   8.850  0.00  0.00    +0.000 A 
ATOM      7  N   UNL     1      45.463   2.791  10.111  0.00  0.00    +0.000 NA
ATOM      8  H   UNL     1      44.568   2.130  12.532  0.00  0.00    +0.000 HD
ENDROOT
BRANCH   6   9
ATOM      9  C   UNL     1      46.028   2.580   7.778  0.00  0.00    +0.000 A 
ATOM     10  C   UNL     1      46.376   3.244   6.583  0.00  0.00    +0.000 A 
ATOM     11  C   UNL     1      47.116   2.609   5.580  0.00  0.00    +0.000 A 
ATOM     12  C   UNL     1      47.533   1.293   5.748  0.00  0.00    +0.000 A 
ATOM     13  C   UNL     1      47.210   0.613   6.919  0.00  0.00    +0.000 A 
ATOM     14  C   UNL     1      46.469   1.252   7.921  0.00  0.00    +0.000 A 
ENDBRANCH   6   9
BRANCH   1  15
ATOM     15  C   UNL     1      44.832   3.952  13.438  0.00  0.00    +0.000 C 
BRANCH  15  20
ATOM     16  C   UNL     1      47.720   4.657  15.613  0.00  0.00    +0.000 A 
ATOM     17  N   UNL     1      48.336   5.739  15.080  0.00  0.00    +0.000 NA
ATOM     18  C   UNL     1      47.787   6.214  13.949  0.00  0.00    +0.000 A 
ATOM     19  C   UNL     1      46.672   5.666  13.358  0.00  0.00    +0.000 A 
ATOM     20  C   UNL     1      46.110   4.562  13.982  0.00  0.00    +0.000 A 
ATOM     21  N   UNL     1      46.627   4.042  15.116  0.00  0.00    +0.000 NA
BRANCH  16  23
ATOM     22  N   UNL     1      47.411   4.008  17.950  0.00  0.00    +0.000 N 
ATOM     23  C   UNL     1      48.297   4.129  16.905  0.00  0.00    +0.000 C 
ATOM     24  O   UNL     1      49.476   3.808  17.051  0.00  0.00    +0.000 OA
ATOM     25  H   UNL     1      47.735   3.633  18.830  0.00  0.00    +0.000 HD
ATOM     26  H   UNL     1      46.435   4.247  17.815  0.00  0.00    +0.000 HD
ENDBRANCH  16  23
ENDBRANCH  15  20
ENDBRANCH   1  15
TORSDOF 4
ENDMDL
MODEL 2
REMARK VINA RESULT:    -7.759      2.704      7.924
REMARK INTER + INTRA:         -10.135
REMARK INTER:                  -9.772
REMARK INTRA:                  -0.364
REMARK UNBOUND:                -0.562
REMARK  Name = 
REMARK  4 active torsions:
REMARK  status: ('A' for Active; 'I' for Inactive)
REMARK    1  A    between atoms: C_2  and  C_4
REMARK    2  A    between atoms: C_8  and  C_9
REMARK    3  A    between atoms: C_9  and  N_10
REMARK    4  A    between atoms: C_15  and  C_16
REMARK                            x       y       z     vdW  Elec       q    Type
REMARK                         _______ _______ _______ _____ _____    ______ ____
ROOT
ATOM      1  N   UNL     1      45.269   2.680  12.214  0.00  0.00    +0.000 N 
ATOM      2  C   UNL     1      45.837   3.815  12.788  0.00  0.00    +0.000 A 
ATOM      3  N   UNL     1      45.710   5.000  12.177  0.00  0.00    +0.000 NA
ATOM      4  C   UNL     1      46.266   6.059  12.781  0.00  0.00    +0.000 A 
ATOM      5  C   UNL     1      46.922   5.989  13.983  0.00  0.00    +0.000 A 
ATOM      6  C   UNL     1      47.006   4.736  14.559  0.00  0.00    +0.000 A 
ATOM      7  N   UNL     1      46.494   3.643  13.942  0.00  0.00    +0.000 NA
ATOM      8  H   UNL     1      46.036   2.208  11.743  0.00  0.00    +0.000 HD
ENDROOT
BRANCH   6   9
ATOM      9  C   UNL     1      47.642   4.505  15.877  0.00  0.00    +0.000 A 
ATOM     10  C   UNL     1      48.523   5.440  16.460  0.00  0.00    +0.000 A 
ATOM     11  C   UNL     1      49.114   5.212  17.707  0.00  0.00    +0.000 A 
ATOM     12  C   UNL     1      48.835   4.042  18.407  0.00  0.00    +0.000 A 
ATOM     13  C   UNL     1      47.966   3.103  17.859  0.00  0.00    +0.000 A 
ATOM     14  C   UNL     1      47.376   3.336  16.612  0.00  0.00    +0.000 A 
ENDBRANCH   6   9
BRANCH   1  15
ATOM     15  C   UNL     1      44.200   2.991  11.271  0.00  0.00    +0.000 C 
BRANCH  15  20
ATOM     16  C   UNL     1      45.986   2.045   8.192  0.00  0.00    +0.000 A 
ATOM     17  N   UNL     1      45.843   3.088   7.339  0.00  0.00    +0.000 NA
ATOM     18  C   UNL     1      45.101   4.110   7.801  0.00  0.00    +0.000 A 
ATOM     19  C   UNL     1      44.525   4.127   9.050  0.00  0.00    +0.000 A 
ATOM     20  C   UNL     1      44.733   3.014   9.851  0.00  0.00    +0.000 A 
ATOM     21  N   UNL     1      45.464   1.958   9.433  0.00  0.00    +0.000 NA
BRANCH  16  23
ATOM     22  N   UNL     1      47.946   1.257   6.962  0.00  0.00    +0.000 N 
ATOM     23  C   UNL     1      46.847   0.902   7.710  0.00  0.00    +0.000 C 
ATOM     24  O   UNL     1      46.620  -0.281   7.956  0.00  0.00    +0.000 OA
ATOM     25  H   UNL     1      48.574   0.536   6.636  0.00  0.00    +0.000 HD
ATOM     26  H   UNL     1      48.143   2.236   6.786  0.00  0.00    +0.000 HD
ENDBRANCH  16  23
ENDBRANCH  15  20
ENDBRANCH   1  15
TORSDOF 4
ENDMDL
MODEL 3
REMARK VINA RESULT:    -7.538      1.823      2.708
REMARK INTER + INTRA:          -9.863
REMARK INTER:                  -9.234
REMARK INTRA:                  -0.629
REMARK UNBOUND:                -0.562
REMARK  Name = 
REMARK  4 active torsions:
REMARK  status: ('A' for Active; 'I' for Inactive)
REMARK    1  A    between atoms: C_2  and  C_4
REMARK    2  A    between atoms: C_8  and  C_9
REMARK    3  A    between atoms: C_9  and  N_10
REMARK    4  A    between atoms: C_15  and  C_16
REMARK                            x       y       z     vdW  Elec       q    Type
REMARK                         _______ _______ _______ _____ _____    ______ ____
ROOT
ATOM      1  N   UNL     1      45.279   3.091  12.587  0.00  0.00    +0.000 N 
ATOM      2  C   UNL     1      44.918   3.478  11.297  0.00  0.00    +0.000 A 
ATOM      3  N   UNL     1      44.013   4.450  11.126  0.00  0.00    +0.000 NA
ATOM      4  C   UNL     1      43.714   4.789   9.865  0.00  0.00    +0.000 A 
ATOM      5  C   UNL     1      44.301   4.215   8.767  0.00  0.00    +0.000 A 
ATOM      6  C   UNL     1      45.231   3.226   9.019  0.00  0.00    +0.000 A 
ATOM      7  N   UNL     1      45.513   2.833  10.286  0.00  0.00    +0.000 NA
ATOM      8  H   UNL     1      44.743   2.246  12.769  0.00  0.00    +0.000 HD
ENDROOT
BRANCH   6   9
ATOM      9  C   UNL     1      45.984   2.543   7.941  0.00  0.00    +0.000 A 
ATOM     10  C   UNL     1      46.406   1.202   8.054  0.00  0.00    +0.000 A 
ATOM     11  C   UNL     1      47.113   0.566   7.027  0.00  0.00    +0.000 A 
ATOM     12  C   UNL     1      47.411   1.256   5.856  0.00  0.00    +0.000 A 
ATOM     13  C   UNL     1      47.003   2.579   5.714  0.00  0.00    +0.000 A 
ATOM     14  C   UNL     1      46.296   3.211   6.743  0.00  0.00    +0.000 A 
ENDBRANCH   6   9
BRANCH   1  15
ATOM     15  C   UNL     1      44.990   4.111  13.590  0.00  0.00    +0.000 C 
BRANCH  15  20
ATOM     16  C   UNL     1      47.982   6.257  13.495  0.00  0.00    +0.000 A 
ATOM     17  N   UNL     1      48.648   6.025  14.651  0.00  0.00    +0.000 NA
ATOM     18  C   UNL     1      48.057   5.156  15.490  0.00  0.00    +0.000 A 
ATOM     19  C   UNL     1      46.866   4.525  15.215  0.00  0.00    +0.000 A 
ATOM     20  C   UNL     1      46.263   4.826  14.002  0.00  0.00    +0.000 A 
ATOM     21  N   UNL     1      46.811   5.697  13.128  0.00  0.00    +0.000 NA
BRANCH  16  23
ATOM     22  N   UNL     1      50.022   7.201  12.533  0.00  0.00    +0.000 N 
ATOM     23  C   UNL     1      48.646   7.201  12.521  0.00  0.00    +0.000 C 
ATOM     24  O   UNL     1      48.033   7.931  11.744  0.00  0.00    +0.000 OA
ATOM     25  H   UNL     1      50.521   7.791  11.884  0.00  0.00    +0.000 HD
ATOM     26  H   UNL     1      50.522   6.577  13.157  0.00  0.00    +0.000 HD
ENDBRANCH  16  23
ENDBRANCH  15  20
ENDBRANCH   1  15
TORSDOF 4
ENDMDL
MODEL 4
REMARK VINA RESULT:    -7.429      3.089      9.435
REMARK INTER + INTRA:          -9.728
REMARK INTER:                  -9.238
REMARK INTRA:                  -0.490
REMARK UNBOUND:                -0.562
REMARK  Name = 
REMARK  4 active torsions:
REMARK  status: ('A' for Active; 'I' for Inactive)
REMARK    1  A    between atoms: C_2  and  C_4
REMARK    2  A    between atoms: C_8  and  C_9
REMARK    3  A    between atoms: C_9  and  N_10
REMARK    4  A    between atoms: C_15  and  C_16
REMARK                            x       y       z     vdW  Elec       q    Type
REMARK                         _______ _______ _______ _____ _____    ______ ____
ROOT
ATOM      1  N   UNL     1      46.266   4.568  14.867  0.00  0.00    +0.000 N 
ATOM      2  C   UNL     1      47.137   4.018  15.805  0.00  0.00    +0.000 A 
ATOM      3  N   UNL     1      47.861   2.937  15.482  0.00  0.00    +0.000 NA
ATOM      4  C   UNL     1      48.691   2.459  16.419  0.00  0.00    +0.000 A 
ATOM      5  C   UNL     1      48.847   3.029  17.656  0.00  0.00    +0.000 A 
ATOM      6  C   UNL     1      48.075   4.144  17.915  0.00  0.00    +0.000 A 
ATOM      7  N   UNL     1      47.193   4.617  17.000  0.00  0.00    +0.000 NA
ATOM      8  H   UNL     1      45.346   4.217  15.121  0.00  0.00    +0.000 HD
ENDROOT
BRANCH   6   9
ATOM      9  C   UNL     1      48.163   4.898  19.187  0.00  0.00    +0.000 A 
ATOM     10  C   UNL     1      47.510   6.135  19.374  0.00  0.00    +0.000 A 
ATOM     11  C   UNL     1      47.598   6.836  20.582  0.00  0.00    +0.000 A 
ATOM     12  C   UNL     1      48.338   6.314  21.638  0.00  0.00    +0.000 A 
ATOM     13  C   UNL     1      48.989   5.094  21.485  0.00  0.00    +0.000 A 
ATOM     14  C   UNL     1      48.899   4.396  20.276  0.00  0.00    +0.000 A 
ENDBRANCH   6   9
BRANCH   1  15
ATOM     15  C   UNL     1      46.597   4.199  13.495  0.00  0.00    +0.000 C 
BRANCH  15  20
ATOM     16  C   UNL     1      44.315   3.449  10.702  0.00  0.00    +0.000 A 
ATOM     17  N   UNL     1      43.110   3.959  11.055  0.00  0.00    +0.000 NA
ATOM     18  C   UNL     1      43.061   4.531  12.270  0.00  0.00    +0.000 A 
ATOM     19  C   UNL     1      44.146   4.619  13.112  0.00  0.00    +0.000 A 
ATOM     20  C   UNL     1      45.337   4.071  12.659  0.00  0.00    +0.000 A 
ATOM     21  N   UNL     1      45.437   3.478  11.450  0.00  0.00    +0.000 NA
BRANCH  16  23
ATOM     22  N   UNL     1      44.276   3.709   8.272  0.00  0.00    +0.000 N 
ATOM     23  C   UNL     1      44.402   2.834   9.326  0.00  0.00    +0.000 C 
ATOM     24  O   UNL     1      44.583   1.635   9.119  0.00  0.00    +0.000 OA
ATOM     25  H   UNL     1      44.355   3.358   7.328  0.00  0.00    +0.000 HD
ATOM     26  H   UNL     1      44.155   4.700   8.449  0.00  0.00    +0.000 HD
ENDBRANCH  16  23
ENDBRANCH  15  20
ENDBRANCH   1  15
TORSDOF 4
ENDMDL
MODEL 5
REMARK VINA RESULT:    -7.157      3.342      9.645
REMARK INTER + INTRA:          -9.393
REMARK INTER:                  -8.926
REMARK INTRA:                  -0.467
REMARK UNBOUND:                -0.562
REMARK  Name = 
REMARK  4 active torsions:
REMARK  status: ('A' for Active; 'I' for Inactive)
REMARK    1  A    between atoms: C_2  and  C_4
REMARK    2  A    between atoms: C_8  and  C_9
REMARK    3  A    between atoms: C_9  and  N_10
REMARK    4  A    between atoms: C_15  and  C_16
REMARK                            x       y       z     vdW  Elec       q    Type
REMARK                         _______ _______ _______ _____ _____    ______ ____
ROOT
ATOM      1  N   UNL     1      46.550   4.373  15.424  0.00  0.00    +0.000 N 
ATOM      2  C   UNL     1      47.442   3.948  16.406  0.00  0.00    +0.000 A 
ATOM      3  N   UNL     1      48.297   2.952  16.139  0.00  0.00    +0.000 NA
ATOM      4  C   UNL     1      49.140   2.594  17.116  0.00  0.00    +0.000 A 
ATOM      5  C   UNL     1      49.182   3.206  18.343  0.00  0.00    +0.000 A 
ATOM      6  C   UNL     1      48.278   4.230  18.545  0.00  0.00    +0.000 A 
ATOM      7  N   UNL     1      47.383   4.576  17.586  0.00  0.00    +0.000 NA
ATOM      8  H   UNL     1      45.668   3.923  15.654  0.00  0.00    +0.000 HD
ENDROOT
BRANCH   6   9
ATOM      9  C   UNL     1      48.230   5.018  19.798  0.00  0.00    +0.000 A 
ATOM     10  C   UNL     1      47.513   6.228  19.897  0.00  0.00    +0.000 A 
ATOM     11  C   UNL     1      47.472   6.962  21.088  0.00  0.00    +0.000 A 
ATOM     12  C   UNL     1      48.145   6.499  22.215  0.00  0.00    +0.000 A 
ATOM     13  C   UNL     1      48.857   5.305  22.149  0.00  0.00    +0.000 A 
ATOM     14  C   UNL     1      48.895   4.574  20.956  0.00  0.00    +0.000 A 
ENDBRANCH   6   9
BRANCH   1  15
ATOM     15  C   UNL     1      46.973   4.013  14.074  0.00  0.00    +0.000 C 
BRANCH  15  20
ATOM     16  C   UNL     1      44.813   4.652  11.160  0.00  0.00    +0.000 A 
ATOM     17  N   UNL     1      44.699   5.998  11.065  0.00  0.00    +0.000 NA
ATOM     18  C   UNL     1      45.333   6.698  12.022  0.00  0.00    +0.000 A 
ATOM     19  C   UNL     1      46.062   6.114  13.032  0.00  0.00    +0.000 A 
ATOM     20  C   UNL     1      46.123   4.729  13.042  0.00  0.00    +0.000 A 
ATOM     21  N   UNL     1      45.497   3.979  12.108  0.00  0.00    +0.000 NA
BRANCH  16  23
ATOM     22  N   UNL     1      44.049   4.460   8.846  0.00  0.00    +0.000 N 
ATOM     23  C   UNL     1      44.139   3.847  10.075  0.00  0.00    +0.000 C 
ATOM     24  O   UNL     1      43.697   2.711  10.234  0.00  0.00    +0.000 OA
ATOM     25  H   UNL     1      43.634   3.958   8.074  0.00  0.00    +0.000 HD
ATOM     26  H   UNL     1      44.440   5.386   8.713  0.00  0.00    +0.000 HD
ENDBRANCH  16  23
ENDBRANCH  15  20
ENDBRANCH   1  15
TORSDOF 4
ENDMDL
MODEL 6
REMARK VINA RESULT:    -7.101      4.393      5.707
REMARK INTER + INTRA:          -9.323
REMARK INTER:                  -8.853
REMARK INTRA:                  -0.470
REMARK UNBOUND:                -0.562
REMARK  Name = 
REMARK  4 active torsions:
REMARK  status: ('A' for Active; 'I' for Inactive)
REMARK    1  A    between atoms: C_2  and  C_4
REMARK    2  A    between atoms: C_8  and  C_9
REMARK    3  A    between atoms: C_9  and  N_10
REMARK    4  A    between atoms: C_15  and  C_16
REMARK                            x       y       z     vdW  Elec       q    Type
REMARK                         _______ _______ _______ _____ _____    ______ ____
ROOT
ATOM      1  N   UNL     1      45.392   6.312  10.642  0.00  0.00    +0.000 N 
ATOM      2  C   UNL     1      45.084   4.987  10.343  0.00  0.00    +0.000 A 
ATOM      3  N   UNL     1      44.160   4.342  11.067  0.00  0.00    +0.000 NA
ATOM      4  C   UNL     1      43.895   3.074  10.726  0.00  0.00    +0.000 A 
ATOM      5  C   UNL     1      44.497   2.430   9.676  0.00  0.00    +0.000 A 
ATOM      6  C   UNL     1      45.432   3.159   8.969  0.00  0.00    +0.000 A 
ATOM      7  N   UNL     1      45.751   4.427   9.327  0.00  0.00    +0.000 NA
ATOM      8  H   UNL     1      46.249   6.268  11.188  0.00  0.00    +0.000 HD
ENDROOT
BRANCH   6   9
ATOM      9  C   UNL     1      46.134   2.619   7.781  0.00  0.00    +0.000 A 
ATOM     10  C   UNL     1      46.655   1.308   7.749  0.00  0.00    +0.000 A 
ATOM     11  C   UNL     1      47.313   0.808   6.619  0.00  0.00    +0.000 A 
ATOM     12  C   UNL     1      47.462   1.606   5.489  0.00  0.00    +0.000 A 
ATOM     13  C   UNL     1      46.953   2.901   5.490  0.00  0.00    +0.000 A 
ATOM     14  C   UNL     1      46.296   3.398   6.621  0.00  0.00    +0.000 A 
ENDBRANCH   6   9
BRANCH   1  15
ATOM     15  C   UNL     1      44.339   6.988  11.392  0.00  0.00    +0.000 C 
BRANCH  15  20
ATOM     16  C   UNL     1      44.013  10.627  10.923  0.00  0.00    +0.000 A 
ATOM     17  N   UNL     1      45.140  11.175  11.439  0.00  0.00    +0.000 NA
ATOM     18  C   UNL     1      46.005  10.302  11.985  0.00  0.00    +0.000 A 
ATOM     19  C   UNL     1      45.792   8.944  12.021  0.00  0.00    +0.000 A 
ATOM     20  C   UNL     1      44.610   8.479  11.464  0.00  0.00    +0.000 A 
ATOM     21  N   UNL     1      43.704   9.314  10.909  0.00  0.00    +0.000 NA
BRANCH  16  23
ATOM     22  N   UNL     1      42.190  11.031   9.345  0.00  0.00    +0.000 N 
ATOM     23  C   UNL     1      43.045  11.584  10.271  0.00  0.00    +0.000 C 
ATOM     24  O   UNL     1      42.984  12.785  10.531  0.00  0.00    +0.000 OA
ATOM     25  H   UNL     1      41.501  11.619   8.897  0.00  0.00    +0.000 HD
ATOM     26  H   UNL     1      42.226  10.036   9.155  0.00  0.00    +0.000 HD
ENDBRANCH  16  23
ENDBRANCH  15  20
ENDBRANCH   1  15
TORSDOF 4
ENDMDL
MODEL 7
REMARK VINA RESULT:    -7.017      3.733      9.378
REMARK INTER + INTRA:          -9.220
REMARK INTER:                  -8.741
REMARK INTRA:                  -0.480
REMARK UNBOUND:                -0.562
REMARK  Name = 
REMARK  4 active torsions:
REMARK  status: ('A' for Active; 'I' for Inactive)
REMARK    1  A    between atoms: C_2  and  C_4
REMARK    2  A    between atoms: C_8  and  C_9
REMARK    3  A    between atoms: C_9  and  N_10
REMARK    4  A    between atoms: C_15  and  C_16
REMARK                            x       y       z     vdW  Elec       q    Type
REMARK                         _______ _______ _______ _____ _____    ______ ____
ROOT
ATOM      1  N   UNL     1      46.476   4.386  14.969  0.00  0.00    +0.000 N 
ATOM      2  C   UNL     1      47.322   3.878  15.953  0.00  0.00    +0.000 A 
ATOM      3  N   UNL     1      48.099   2.822  15.677  0.00  0.00    +0.000 NA
ATOM      4  C   UNL     1      48.902   2.384  16.656  0.00  0.00    +0.000 A 
ATOM      5  C   UNL     1      48.979   2.972  17.892  0.00  0.00    +0.000 A 
ATOM      6  C   UNL     1      48.157   4.061  18.102  0.00  0.00    +0.000 A 
ATOM      7  N   UNL     1      47.301   4.491  17.142  0.00  0.00    +0.000 NA
ATOM      8  H   UNL     1      45.559   4.003  15.185  0.00  0.00    +0.000 HD
ENDROOT
BRANCH   6   9
ATOM      9  C   UNL     1      48.159   4.831  19.368  0.00  0.00    +0.000 A 
ATOM     10  C   UNL     1      47.428   6.028  19.519  0.00  0.00    +0.000 A 
ATOM     11  C   UNL     1      47.435   6.745  20.721  0.00  0.00    +0.000 A 
ATOM     12  C   UNL     1      48.170   6.278  21.806  0.00  0.00    +0.000 A 
ATOM     13  C   UNL     1      48.896   5.097  21.689  0.00  0.00    +0.000 A 
ATOM     14  C   UNL     1      48.886   4.383  20.485  0.00  0.00    +0.000 A 
ENDBRANCH   6   9
BRANCH   1  15
ATOM     15  C   UNL     1      46.883   4.015  13.618  0.00  0.00    +0.000 C 
BRANCH  15  20
ATOM     16  C   UNL     1      44.488   5.933  11.579  0.00  0.00    +0.000 A 
ATOM     17  N   UNL     1      43.723   5.017  10.938  0.00  0.00    +0.000 NA
ATOM     18  C   UNL     1      44.047   3.733  11.172  0.00  0.00    +0.000 A 
ATOM     19  C   UNL     1      45.070   3.347  12.006  0.00  0.00    +0.000 A 
ATOM     20  C   UNL     1      45.793   4.359  12.621  0.00  0.00    +0.000 A 
ATOM     21  N   UNL     1      45.513   5.665  12.414  0.00  0.00    +0.000 NA
BRANCH  16  23
ATOM     22  N   UNL     1      42.808   7.617  11.017  0.00  0.00    +0.000 N 
ATOM     23  C   UNL     1      44.119   7.380  11.361  0.00  0.00    +0.000 C 
ATOM     24  O   UNL     1      44.907   8.317  11.483  0.00  0.00    +0.000 OA
ATOM     25  H   UNL     1      42.497   8.569  10.886  0.00  0.00    +0.000 HD
ATOM     26  H   UNL     1      42.157   6.843  10.945  0.00  0.00    +0.000 HD
ENDBRANCH  16  23
ENDBRANCH  15  20
ENDBRANCH   1  15
TORSDOF 4
ENDMDL
MODEL 8
REMARK VINA RESULT:    -7.008      3.801      7.803
REMARK INTER + INTRA:          -9.208
REMARK INTER:                  -8.853
REMARK INTRA:                  -0.355
REMARK UNBOUND:                -0.562
REMARK  Name = 
REMARK  4 active torsions:
REMARK  status: ('A' for Active; 'I' for Inactive)
REMARK    1  A    between atoms: C_2  and  C_4
REMARK    2  A    between atoms: C_8  and  C_9
REMARK    3  A    between atoms: C_9  and  N_10
REMARK    4  A    between atoms: C_15  and  C_16
REMARK                            x       y       z     vdW  Elec       q    Type
REMARK                         _______ _______ _______ _____ _____    ______ ____
ROOT
ATOM      1  N   UNL     1      43.773   4.854  10.330  0.00  0.00    +0.000 N 
ATOM      2  C   UNL     1      44.562   5.476  11.296  0.00  0.00    +0.000 A 
ATOM      3  N   UNL     1      45.195   4.733  12.213  0.00  0.00    +0.000 NA
ATOM      4  C   UNL     1      45.950   5.384  13.109  0.00  0.00    +0.000 A 
ATOM      5  C   UNL     1      46.118   6.744  13.112  0.00  0.00    +0.000 A 
ATOM      6  C   UNL     1      45.443   7.445  12.132  0.00  0.00    +0.000 A 
ATOM      7  N   UNL     1      44.635   6.812  11.246  0.00  0.00    +0.000 NA
ATOM      8  H   UNL     1      42.818   4.950  10.666  0.00  0.00    +0.000 HD
ENDROOT
BRANCH   6   9
ATOM      9  C   UNL     1      45.560   8.913  11.975  0.00  0.00    +0.000 A 
ATOM     10  C   UNL     1      46.776   9.596  12.188  0.00  0.00    +0.000 A 
ATOM     11  C   UNL     1      46.875  10.983  12.033  0.00  0.00    +0.000 A 
ATOM     12  C   UNL     1      45.759  11.724  11.656  0.00  0.00    +0.000 A 
ATOM     13  C   UNL     1      44.547  11.077  11.433  0.00  0.00    +0.000 A 
ATOM     14  C   UNL     1      44.453   9.689  11.589  0.00  0.00    +0.000 A 
ENDBRANCH   6   9
BRANCH   1  15
ATOM     15  C   UNL     1      44.111   3.448  10.136  0.00  0.00    +0.000 C 
BRANCH  15  20
ATOM     16  C   UNL     1      46.408   1.940   7.683  0.00  0.00    +0.000 A 
ATOM     17  N   UNL     1      47.028   2.973   7.064  0.00  0.00    +0.000 NA
ATOM     18  C   UNL     1      46.636   4.197   7.458  0.00  0.00    +0.000 A 
ATOM     19  C   UNL     1      45.683   4.415   8.426  0.00  0.00    +0.000 A 
ATOM     20  C   UNL     1      45.109   3.293   9.004  0.00  0.00    +0.000 A 
ATOM     21  N   UNL     1      45.462   2.040   8.639  0.00  0.00    +0.000 NA
BRANCH  16  23
ATOM     22  N   UNL     1      47.303   0.423   5.987  0.00  0.00    +0.000 N 
ATOM     23  C   UNL     1      46.859   0.556   7.283  0.00  0.00    +0.000 C 
ATOM     24  O   UNL     1      46.856  -0.414   8.039  0.00  0.00    +0.000 OA
ATOM     25  H   UNL     1      47.644  -0.474   5.673  0.00  0.00    +0.000 HD
ATOM     26  H   UNL     1      47.330   1.232   5.377  0.00  0.00    +0.000 HD
ENDBRANCH  16  23
ENDBRANCH  15  20
ENDBRANCH   1  15
TORSDOF 4
ENDMDL
MODEL 9
REMARK VINA RESULT:    -6.752      2.970      7.730
REMARK INTER + INTRA:          -8.893
REMARK INTER:                  -8.272
REMARK INTRA:                  -0.621
REMARK UNBOUND:                -0.562
REMARK  Name = 
REMARK  4 active torsions:
REMARK  status: ('A' for Active; 'I' for Inactive)
REMARK    1  A    between atoms: C_2  and  C_4
REMARK    2  A    between atoms: C_8  and  C_9
REMARK    3  A    between atoms: C_9  and  N_10
REMARK    4  A    between atoms: C_15  and  C_16
REMARK                            x       y       z     vdW  Elec       q    Type
REMARK                         _______ _______ _______ _____ _____    ______ ____
ROOT
ATOM      1  N   UNL     1      44.278   4.435  11.471  0.00  0.00    +0.000 N 
ATOM      2  C   UNL     1      45.353   4.496  12.355  0.00  0.00    +0.000 A 
ATOM      3  N   UNL     1      45.864   3.363  12.855  0.00  0.00    +0.000 NA
ATOM      4  C   UNL     1      46.905   3.481  13.690  0.00  0.00    +0.000 A 
ATOM      5  C   UNL     1      47.474   4.682  14.027  0.00  0.00    +0.000 A 
ATOM      6  C   UNL     1      46.902   5.807  13.466  0.00  0.00    +0.000 A 
ATOM      7  N   UNL     1      45.817   5.714  12.658  0.00  0.00    +0.000 NA
ATOM      8  H   UNL     1      43.458   4.641  12.037  0.00  0.00    +0.000 HD
ENDROOT
BRANCH   6   9
ATOM      9  C   UNL     1      47.430   7.171  13.697  0.00  0.00    +0.000 A 
ATOM     10  C   UNL     1      48.236   7.486  14.811  0.00  0.00    +0.000 A 
ATOM     11  C   UNL     1      48.733   8.778  15.016  0.00  0.00    +0.000 A 
ATOM     12  C   UNL     1      48.441   9.789  14.106  0.00  0.00    +0.000 A 
ATOM     13  C   UNL     1      47.653   9.507  12.994  0.00  0.00    +0.000 A 
ATOM     14  C   UNL     1      47.158   8.214  12.793  0.00  0.00    +0.000 A 
ENDBRANCH   6   9
BRANCH   1  15
ATOM     15  C   UNL     1      44.143   3.135  10.824  0.00  0.00    +0.000 C 
BRANCH  15  20
ATOM     16  C   UNL     1      46.175   2.017   7.962  0.00  0.00    +0.000 A 
ATOM     17  N   UNL     1      46.346   3.106   7.174  0.00  0.00    +0.000 NA
ATOM     18  C   UNL     1      45.734   4.224   7.599  0.00  0.00    +0.000 A 
ATOM     19  C   UNL     1      44.990   4.291   8.755  0.00  0.00    +0.000 A 
ATOM     20  C   UNL     1      44.878   3.124   9.496  0.00  0.00    +0.000 A 
ATOM     21  N   UNL     1      45.467   1.971   9.109  0.00  0.00    +0.000 NA
BRANCH  16  23
ATOM     22  N   UNL     1      47.822   0.917   6.528  0.00  0.00    +0.000 N 
ATOM     23  C   UNL     1      46.884   0.758   7.523  0.00  0.00    +0.000 C 
ATOM     24  O   UNL     1      46.674  -0.354   8.004  0.00  0.00    +0.000 OA
ATOM     25  H   UNL     1      48.348   0.115   6.214  0.00  0.00    +0.000 HD
ATOM     26  H   UNL     1      48.011   1.841   6.154  0.00  0.00    +0.000 HD
ENDBRANCH  16  23
ENDBRANCH  15  20
ENDBRANCH   1  15
TORSDOF 4
ENDMDL
