MODEL 1
REMARK VINA RESULT:    -8.180      0.000      0.000
REMARK INTER + INTRA:         -12.421
REMARK INTER:                 -11.528
REMARK INTRA:                  -0.893
REMARK UNBOUND:                -0.893
REMARK  Name = 
REMARK  8 active torsions:
REMARK  status: ('A' for Active; 'I' for Inactive)
REMARK    1  A    between atoms: C_1  and  C_2
REMARK    2  A    between atoms: C_2  and  N_3
REMARK    3  A    between atoms: C_2  and  C_18
REMARK    4  A    between atoms: N_3  and  C_4
REMARK    5  A    between atoms: C_7  and  C_8
REMARK    6  A    between atoms: C_8  and  N_9
REMARK    7  A    between atoms: N_9  and  C_10
REMARK    8  A    between atoms: C_18  and  C_20
REMARK                            x       y       z     vdW  Elec       q    Type
REMARK                         _______ _______ _______ _____ _____    ______ ____
ROOT
ATOM      1  N   UNL     1      46.229   7.903  13.336  0.00  0.00    +0.000 N 
ATOM      2  H   UNL     1      45.607   8.201  14.090  0.00  0.00    +0.000 HD
ENDROOT
BRANCH   1   3
ATOM      3  C   UNL     1      45.786   6.874  12.529  0.00  0.00    +0.000 A 
ATOM      4  C   UNL     1      44.922   5.918  13.063  0.00  0.00    +0.000 A 
ATOM      5  C   UNL     1      44.405   4.896  12.268  0.00  0.00    +0.000 A 
ATOM      6  C   UNL     1      44.746   4.855  10.920  0.00  0.00    +0.000 A 
ATOM      7  N   UNL     1      45.588   5.760  10.360  0.00  0.00    +0.000 NA
ATOM      8  C   UNL     1      46.069   6.738  11.171  0.00  0.00    +0.000 A 
BRANCH   6   9
ATOM      9  C   UNL     1      44.193   3.772  10.015  0.00  0.00    +0.000 C 
BRANCH   9  10
ATOM     10  N   UNL     1      44.309   4.072   8.577  0.00  0.00    +0.000 NA
ATOM     11  H   UNL     1      44.868   4.929   8.519  0.00  0.00    +0.000 HD
BRANCH  10  12
ATOM     12  C   UNL     1      45.001   3.022   7.806  0.00  0.00    +0.000 C 
ATOM     13  C   UNL     1      46.157   3.587   6.967  0.00  0.00    +0.000 C 
ATOM     14  C   UNL     1      46.944   2.468   6.297  0.00  0.00    +0.000 C 
ATOM     15  C   UNL     1      47.416   1.440   7.317  0.00  0.00    +0.000 C 
ATOM     16  N   UNL     1      46.289   0.878   8.062  0.00  0.00    +0.000 NA
ATOM     17  C   UNL     1      45.545   1.932   8.768  0.00  0.00    +0.000 C 
ATOM     18  H   UNL     1      46.640   0.208   8.745  0.00  0.00    +0.000 HD
ENDBRANCH  10  12
ENDBRANCH   9  10
ENDBRANCH   6   9
ENDBRANCH   1   3
BRANCH   1  20
ATOM     19  C   UNL     1      48.307   8.821  12.392  0.00  0.00    +0.000 C 
ATOM     20  C   UNL     1      47.645   8.187  13.614  0.00  0.00    +0.000 C 
BRANCH  20  21
ATOM     21  C   UNL     1      48.362   6.859  13.947  0.00  0.00    +0.000 C 
ATOM     22  O   UNL     1      48.898   6.216  13.034  0.00  0.00    +0.000 OA
BRANCH  21  23
ATOM     23  C   UNL     1      48.563   6.433  15.345  0.00  0.00    +0.000 A 
ATOM     24  C   UNL     1      49.334   7.218  16.191  0.00  0.00    +0.000 A 
ATOM     25  S   UNL     1      49.368   6.656  17.801  0.00  0.00    +0.000 S 
ATOM     26  C   UNL     1      48.391   5.321  17.410  0.00  0.00    +0.000 A 
ATOM     27  N   UNL     1      48.002   4.436  18.366  0.00  0.00    +0.000 NA
ATOM     28  C   UNL     1      47.253   3.477  17.937  0.00  0.00    +0.000 A 
ATOM     29  N   UNL     1      46.882   3.305  16.629  0.00  0.00    +0.000 N 
ATOM     30  C   UNL     1      47.383   4.085  15.613  0.00  0.00    +0.000 A 
ATOM     31  O   UNL     1      47.259   3.748  14.443  0.00  0.00    +0.000 OA
ATOM     32  C   UNL     1      48.093   5.270  16.060  0.00  0.00    +0.000 A 
ATOM     33  H   UNL     1      46.369   2.484  16.343  0.00  0.00    +0.000 HD
ENDBRANCH  21  23
ENDBRANCH  20  21
ENDBRANCH   1  20
TORSDOF 7
ENDMDL
MODEL 2
REMARK VINA RESULT:    -7.794      1.989      2.426
REMARK INTER + INTRA:         -11.877
REMARK INTER:                 -11.145
REMARK INTRA:                  -0.731
REMARK UNBOUND:                -0.893
REMARK  Name = 
REMARK  8 active torsions:
REMARK  status: ('A' for Active; 'I' for Inactive)
REMARK    1  A    between atoms: C_1  and  C_2
REMARK    2  A    between atoms: C_2  and  N_3
REMARK    3  A    between atoms: C_2  and  C_18
REMARK    4  A    between atoms: N_3  and  C_4
REMARK    5  A    between atoms: C_7  and  C_8
REMARK    6  A    between atoms: C_8  and  N_9
REMARK    7  A    between atoms: N_9  and  C_10
REMARK    8  A    between atoms: C_18  and  C_20
REMARK                            x       y       z     vdW  Elec       q    Type
REMARK                         _______ _______ _______ _____ _____    ______ ____
ROOT
ATOM      1  N   UNL     1      47.342   5.586  14.672  0.00  0.00    +0.000 N 
ATOM      2  H   UNL     1      47.780   4.961  15.352  0.00  0.00    +0.000 HD
ENDROOT
BRANCH   1   3
ATOM      3  C   UNL     1      46.420   5.026  13.811  0.00  0.00    +0.000 A 
ATOM      4  C   UNL     1      45.492   5.854  13.178  0.00  0.00    +0.000 A 
ATOM      5  C   UNL     1      44.582   5.337  12.257  0.00  0.00    +0.000 A 
ATOM      6  C   UNL     1      44.625   3.979  11.958  0.00  0.00    +0.000 A 
ATOM      7  N   UNL     1      45.505   3.136  12.554  0.00  0.00    +0.000 NA
ATOM      8  C   UNL     1      46.374   3.681  13.446  0.00  0.00    +0.000 A 
BRANCH   6   9
ATOM      9  C   UNL     1      43.665   3.379  10.951  0.00  0.00    +0.000 C 
BRANCH   9  10
ATOM     10  N   UNL     1      44.233   2.267  10.167  0.00  0.00    +0.000 NA
ATOM     11  H   UNL     1      43.470   1.935   9.569  0.00  0.00    +0.000 HD
BRANCH  10  12
ATOM     12  C   UNL     1      45.355   2.668   9.297  0.00  0.00    +0.000 C 
ATOM     13  C   UNL     1      45.848   1.509   8.418  0.00  0.00    +0.000 C 
ATOM     14  C   UNL     1      46.904   1.985   7.428  0.00  0.00    +0.000 C 
ATOM     15  C   UNL     1      46.397   3.163   6.606  0.00  0.00    +0.000 C 
ATOM     16  N   UNL     1      45.988   4.272   7.467  0.00  0.00    +0.000 NA
ATOM     17  C   UNL     1      44.925   3.856   8.395  0.00  0.00    +0.000 C 
ATOM     18  H   UNL     1      45.640   5.035   6.888  0.00  0.00    +0.000 HD
ENDBRANCH  10  12
ENDBRANCH   9  10
ENDBRANCH   6   9
ENDBRANCH   1   3
BRANCH   1  20
ATOM     19  C   UNL     1      48.792   6.600  12.963  0.00  0.00    +0.000 C 
ATOM     20  C   UNL     1      48.172   6.757  14.350  0.00  0.00    +0.000 C 
BRANCH  20  21
ATOM     21  C   UNL     1      49.302   6.867  15.400  0.00  0.00    +0.000 C 
ATOM     22  O   UNL     1      50.467   7.032  15.017  0.00  0.00    +0.000 OA
BRANCH  21  23
ATOM     23  C   UNL     1      48.996   6.948  16.841  0.00  0.00    +0.000 A 
ATOM     24  C   UNL     1      48.548   8.148  17.376  0.00  0.00    +0.000 A 
ATOM     25  S   UNL     1      48.122   8.045  19.023  0.00  0.00    +0.000 S 
ATOM     26  C   UNL     1      48.563   6.404  19.088  0.00  0.00    +0.000 A 
ATOM     27  N   UNL     1      48.408   5.683  20.230  0.00  0.00    +0.000 NA
ATOM     28  C   UNL     1      48.771   4.449  20.138  0.00  0.00    +0.000 A 
ATOM     29  N   UNL     1      49.304   3.875  19.014  0.00  0.00    +0.000 N 
ATOM     30  C   UNL     1      49.622   4.607  17.894  0.00  0.00    +0.000 A 
ATOM     31  O   UNL     1      50.339   4.140  17.019  0.00  0.00    +0.000 OA
ATOM     32  C   UNL     1      49.085   5.957  17.887  0.00  0.00    +0.000 A 
ATOM     33  H   UNL     1      49.651   2.927  19.034  0.00  0.00    +0.000 HD
ENDBRANCH  21  23
ENDBRANCH  20  21
ENDBRANCH   1  20
TORSDOF 7
ENDMDL
MODEL 3
REMARK VINA RESULT:    -7.732      2.369      3.004
REMARK INTER + INTRA:         -11.789
REMARK INTER:                 -11.500
REMARK INTRA:                  -0.289
REMARK UNBOUND:                -0.893
REMARK  Name = 
REMARK  8 active torsions:
REMARK  status: ('A' for Active; 'I' for Inactive)
REMARK    1  A    between atoms: C_1  and  C_2
REMARK    2  A    between atoms: C_2  and  N_3
REMARK    3  A    between atoms: C_2  and  C_18
REMARK    4  A    between atoms: N_3  and  C_4
REMARK    5  A    between atoms: C_7  and  C_8
REMARK    6  A    between atoms: C_8  and  N_9
REMARK    7  A    between atoms: N_9  and  C_10
REMARK    8  A    between atoms: C_18  and  C_20
REMARK                            x       y       z     vdW  Elec       q    Type
REMARK                         _______ _______ _______ _____ _____    ______ ____
ROOT
ATOM      1  N   UNL     1      47.502   4.345  14.642  0.00  0.00    +0.000 N 
ATOM      2  H   UNL     1      48.407   3.880  14.534  0.00  0.00    +0.000 HD
ENDROOT
BRANCH   1   3
ATOM      3  C   UNL     1      46.665   4.346  13.544  0.00  0.00    +0.000 A 
ATOM      4  C   UNL     1      46.574   5.498  12.763  0.00  0.00    +0.000 A 
ATOM      5  C   UNL     1      45.785   5.524  11.613  0.00  0.00    +0.000 A 
ATOM      6  C   UNL     1      45.104   4.369  11.240  0.00  0.00    +0.000 A 
ATOM      7  N   UNL     1      45.159   3.229  11.973  0.00  0.00    +0.000 NA
ATOM      8  C   UNL     1      45.938   3.249  13.086  0.00  0.00    +0.000 A 
BRANCH   6   9
ATOM      9  C   UNL     1      44.249   4.348   9.989  0.00  0.00    +0.000 C 
BRANCH   9  10
ATOM     10  N   UNL     1      44.984   4.668   8.753  0.00  0.00    +0.000 NA
ATOM     11  H   UNL     1      45.855   5.114   9.058  0.00  0.00    +0.000 HD
BRANCH  10  12
ATOM     12  C   UNL     1      45.337   3.482   7.949  0.00  0.00    +0.000 C 
ATOM     13  C   UNL     1      46.573   3.726   7.069  0.00  0.00    +0.000 C 
ATOM     14  C   UNL     1      47.001   2.446   6.362  0.00  0.00    +0.000 C 
ATOM     15  C   UNL     1      47.209   1.311   7.357  0.00  0.00    +0.000 C 
ATOM     16  N   UNL     1      45.999   1.065   8.140  0.00  0.00    +0.000 NA
ATOM     17  C   UNL     1      45.595   2.269   8.881  0.00  0.00    +0.000 C 
ATOM     18  H   UNL     1      46.177   0.312   8.804  0.00  0.00    +0.000 HD
ENDBRANCH  10  12
ENDBRANCH   9  10
ENDBRANCH   6   9
ENDBRANCH   1   3
BRANCH   1  20
ATOM     19  C   UNL     1      48.588   6.429  15.367  0.00  0.00    +0.000 C 
ATOM     20  C   UNL     1      47.514   5.389  15.677  0.00  0.00    +0.000 C 
BRANCH  20  21
ATOM     21  C   UNL     1      47.825   4.731  17.042  0.00  0.00    +0.000 C 
ATOM     22  O   UNL     1      46.902   4.227  17.694  0.00  0.00    +0.000 OA
BRANCH  21  23
ATOM     23  C   UNL     1      49.217   4.547  17.497  0.00  0.00    +0.000 A 
ATOM     24  C   UNL     1      49.863   5.590  18.148  0.00  0.00    +0.000 A 
ATOM     25  S   UNL     1      51.416   5.179  18.718  0.00  0.00    +0.000 S 
ATOM     26  C   UNL     1      51.294   3.610  18.076  0.00  0.00    +0.000 A 
ATOM     27  N   UNL     1      52.294   2.704  18.248  0.00  0.00    +0.000 NA
ATOM     28  C   UNL     1      52.067   1.549  17.721  0.00  0.00    +0.000 A 
ATOM     29  N   UNL     1      50.943   1.225  17.008  0.00  0.00    +0.000 N 
ATOM     30  C   UNL     1      49.986   2.156  16.679  0.00  0.00    +0.000 A 
ATOM     31  O   UNL     1      49.144   1.917  15.825  0.00  0.00    +0.000 OA
ATOM     32  C   UNL     1      50.112   3.420  17.383  0.00  0.00    +0.000 A 
ATOM     33  H   UNL     1      50.866   0.331  16.545  0.00  0.00    +0.000 HD
ENDBRANCH  21  23
ENDBRANCH  20  21
ENDBRANCH   1  20
TORSDOF 7
ENDMDL
MODEL 4
REMARK VINA RESULT:    -7.674      2.853      4.952
REMARK INTER + INTRA:         -11.708
REMARK INTER:                 -10.725
REMARK INTRA:                  -0.983
REMARK UNBOUND:                -0.893
REMARK  Name = 
REMARK  8 active torsions:
REMARK  status: ('A' for Active; 'I' for Inactive)
REMARK    1  A    between atoms: C_1  and  C_2
REMARK    2  A    between atoms: C_2  and  N_3
REMARK    3  A    between atoms: C_2  and  C_18
REMARK    4  A    between atoms: N_3  and  C_4
REMARK    5  A    between atoms: C_7  and  C_8
REMARK    6  A    between atoms: C_8  and  N_9
REMARK    7  A    between atoms: N_9  and  C_10
REMARK    8  A    between atoms: C_18  and  C_20
REMARK                            x       y       z     vdW  Elec       q    Type
REMARK                         _______ _______ _______ _____ _____    ______ ____
ROOT
ATOM      1  N   UNL     1      44.363   3.831  10.236  0.00  0.00    +0.000 N 
ATOM      2  H   UNL     1      43.358   3.883  10.054  0.00  0.00    +0.000 HD
ENDROOT
BRANCH   1   3
ATOM      3  C   UNL     1      45.175   3.493   9.172  0.00  0.00    +0.000 A 
ATOM      4  C   UNL     1      45.425   2.145   8.911  0.00  0.00    +0.000 A 
ATOM      5  C   UNL     1      46.191   1.758   7.813  0.00  0.00    +0.000 A 
ATOM      6  C   UNL     1      46.688   2.739   6.961  0.00  0.00    +0.000 A 
ATOM      7  N   UNL     1      46.475   4.061   7.179  0.00  0.00    +0.000 NA
ATOM      8  C   UNL     1      45.724   4.394   8.261  0.00  0.00    +0.000 A 
BRANCH   6   9
ATOM      9  C   UNL     1      47.512   2.362   5.746  0.00  0.00    +0.000 C 
BRANCH   9  10
ATOM     10  N   UNL     1      47.649   0.909   5.540  0.00  0.00    +0.000 NA
ATOM     11  H   UNL     1      46.971   0.476   6.176  0.00  0.00    +0.000 HD
BRANCH  10  12
ATOM     12  C   UNL     1      47.329   0.472   4.167  0.00  0.00    +0.000 C 
ATOM     13  C   UNL     1      46.957  -1.017   4.105  0.00  0.00    +0.000 C 
ATOM     14  C   UNL     1      46.493  -1.407   2.708  0.00  0.00    +0.000 C 
ATOM     15  C   UNL     1      45.361  -0.505   2.232  0.00  0.00    +0.000 C 
ATOM     16  N   UNL     1      45.763   0.901   2.249  0.00  0.00    +0.000 NA
ATOM     17  C   UNL     1      46.161   1.321   3.600  0.00  0.00    +0.000 C 
ATOM     18  H   UNL     1      44.979   1.477   1.941  0.00  0.00    +0.000 HD
ENDBRANCH  10  12
ENDBRANCH   9  10
ENDBRANCH   6   9
ENDBRANCH   1   3
BRANCH   1  20
ATOM     19  C   UNL     1      43.587   2.666  12.258  0.00  0.00    +0.000 C 
ATOM     20  C   UNL     1      44.677   3.542  11.643  0.00  0.00    +0.000 C 
BRANCH  20  21
ATOM     21  C   UNL     1      44.753   4.876  12.420  0.00  0.00    +0.000 C 
ATOM     22  O   UNL     1      43.766   5.258  13.063  0.00  0.00    +0.000 OA
BRANCH  21  23
ATOM     23  C   UNL     1      46.025   5.613  12.544  0.00  0.00    +0.000 A 
ATOM     24  C   UNL     1      46.461   6.400  11.487  0.00  0.00    +0.000 A 
ATOM     25  S   UNL     1      47.880   7.280  11.832  0.00  0.00    +0.000 S 
ATOM     26  C   UNL     1      47.983   6.604  13.389  0.00  0.00    +0.000 A 
ATOM     27  N   UNL     1      48.973   6.970  14.246  0.00  0.00    +0.000 NA
ATOM     28  C   UNL     1      48.928   6.390  15.397  0.00  0.00    +0.000 A 
ATOM     29  N   UNL     1      47.998   5.451  15.760  0.00  0.00    +0.000 N 
ATOM     30  C   UNL     1      47.082   4.941  14.870  0.00  0.00    +0.000 A 
ATOM     31  O   UNL     1      46.452   3.924  15.130  0.00  0.00    +0.000 OA
ATOM     32  C   UNL     1      46.985   5.674  13.621  0.00  0.00    +0.000 A 
ATOM     33  H   UNL     1      48.071   4.969  16.643  0.00  0.00    +0.000 HD
ENDBRANCH  21  23
ENDBRANCH  20  21
ENDBRANCH   1  20
TORSDOF 7
ENDMDL
MODEL 5
REMARK VINA RESULT:    -7.455      1.778      2.106
REMARK INTER + INTRA:         -11.399
REMARK INTER:                 -10.480
REMARK INTRA:                  -0.919
REMARK UNBOUND:                -0.893
REMARK  Name = 
REMARK  8 active torsions:
REMARK  status: ('A' for Active; 'I' for Inactive)
REMARK    1  A    between atoms: C_1  and  C_2
REMARK    2  A    between atoms: C_2  and  N_3
REMARK    3  A    between atoms: C_2  and  C_18
REMARK    4  A    between atoms: N_3  and  C_4
REMARK    5  A    between atoms: C_7  and  C_8
REMARK    6  A    between atoms: C_8  and  N_9
REMARK    7  A    between atoms: N_9  and  C_10
REMARK    8  A    between atoms: C_18  and  C_20
REMARK                            x       y       z     vdW  Elec       q    Type
REMARK                         _______ _______ _______ _____ _____    ______ ____
ROOT
ATOM      1  N   UNL     1      47.110   6.449  14.113  0.00  0.00    +0.000 N 
ATOM      2  H   UNL     1      47.310   5.918  14.964  0.00  0.00    +0.000 HD
ENDROOT
BRANCH   1   3
ATOM      3  C   UNL     1      46.352   5.820  13.146  0.00  0.00    +0.000 A 
ATOM      4  C   UNL     1      46.008   6.522  11.991  0.00  0.00    +0.000 A 
ATOM      5  C   UNL     1      45.293   5.906  10.965  0.00  0.00    +0.000 A 
ATOM      6  C   UNL     1      44.944   4.566  11.099  0.00  0.00    +0.000 A 
ATOM      7  N   UNL     1      45.252   3.846  12.207  0.00  0.00    +0.000 NA
ATOM      8  C   UNL     1      45.949   4.486  13.183  0.00  0.00    +0.000 A 
BRANCH   6   9
ATOM      9  C   UNL     1      44.182   3.853  10.000  0.00  0.00    +0.000 C 
BRANCH   9  10
ATOM     10  N   UNL     1      44.579   4.250   8.637  0.00  0.00    +0.000 NA
ATOM     11  H   UNL     1      45.303   4.964   8.759  0.00  0.00    +0.000 HD
BRANCH  10  12
ATOM     12  C   UNL     1      45.154   3.147   7.843  0.00  0.00    +0.000 C 
ATOM     13  C   UNL     1      46.326   3.616   6.967  0.00  0.00    +0.000 C 
ATOM     14  C   UNL     1      46.993   2.436   6.270  0.00  0.00    +0.000 C 
ATOM     15  C   UNL     1      47.407   1.367   7.274  0.00  0.00    +0.000 C 
ATOM     16  N   UNL     1      46.260   0.901   8.053  0.00  0.00    +0.000 NA
ATOM     17  C   UNL     1      45.632   2.010   8.784  0.00  0.00    +0.000 C 
ATOM     18  H   UNL     1      46.574   0.199   8.723  0.00  0.00    +0.000 HD
ENDBRANCH  10  12
ENDBRANCH   9  10
ENDBRANCH   6   9
ENDBRANCH   1   3
BRANCH   1  20
ATOM     19  C   UNL     1      49.209   6.928  12.922  0.00  0.00    +0.000 C 
ATOM     20  C   UNL     1      48.117   7.484  13.834  0.00  0.00    +0.000 C 
BRANCH  20  21
ATOM     21  C   UNL     1      48.753   7.932  15.170  0.00  0.00    +0.000 C 
ATOM     22  O   UNL     1      48.198   8.814  15.838  0.00  0.00    +0.000 OA
BRANCH  21  23
ATOM     23  C   UNL     1      49.910   7.214  15.739  0.00  0.00    +0.000 A 
ATOM     24  C   UNL     1      51.192   7.689  15.496  0.00  0.00    +0.000 A 
ATOM     25  S   UNL     1      52.407   6.825  16.322  0.00  0.00    +0.000 S 
ATOM     26  C   UNL     1      51.265   5.761  16.996  0.00  0.00    +0.000 A 
ATOM     27  N   UNL     1      51.647   4.778  17.854  0.00  0.00    +0.000 NA
ATOM     28  C   UNL     1      50.680   4.050  18.301  0.00  0.00    +0.000 A 
ATOM     29  N   UNL     1      49.365   4.197  17.943  0.00  0.00    +0.000 N 
ATOM     30  C   UNL     1      48.963   5.073  16.962  0.00  0.00    +0.000 A 
ATOM     31  O   UNL     1      47.845   4.995  16.470  0.00  0.00    +0.000 OA
ATOM     32  C   UNL     1      49.982   6.022  16.550  0.00  0.00    +0.000 A 
ATOM     33  H   UNL     1      48.669   3.538  18.259  0.00  0.00    +0.000 HD
ENDBRANCH  21  23
ENDBRANCH  20  21
ENDBRANCH   1  20
TORSDOF 7
ENDMDL
MODEL 6
REMARK VINA RESULT:    -7.336      3.129      7.793
REMARK INTER + INTRA:         -11.231
REMARK INTER:                 -10.746
REMARK INTRA:                  -0.485
REMARK UNBOUND:                -0.893
REMARK  Name = 
REMARK  8 active torsions:
REMARK  status: ('A' for Active; 'I' for Inactive)
REMARK    1  A    between atoms: C_1  and  C_2
REMARK    2  A    between atoms: C_2  and  N_3
REMARK    3  A    between atoms: C_2  and  C_18
REMARK    4  A    between atoms: N_3  and  C_4
REMARK    5  A    between atoms: C_7  and  C_8
REMARK    6  A    between atoms: C_8  and  N_9
REMARK    7  A    between atoms: N_9  and  C_10
REMARK    8  A    between atoms: C_18  and  C_20
REMARK                            x       y       z     vdW  Elec       q    Type
REMARK                         _______ _______ _______ _____ _____    ______ ____
ROOT
ATOM      1  N   UNL     1      47.197   6.333  12.437  0.00  0.00    +0.000 N 
ATOM      2  H   UNL     1      47.098   5.583  11.749  0.00  0.00    +0.000 HD
ENDROOT
BRANCH   1   3
ATOM      3  C   UNL     1      47.512   5.960  13.728  0.00  0.00    +0.000 A 
ATOM      4  C   UNL     1      46.907   4.827  14.273  0.00  0.00    +0.000 A 
ATOM      5  C   UNL     1      47.240   4.382  15.552  0.00  0.00    +0.000 A 
ATOM      6  C   UNL     1      48.207   5.075  16.274  0.00  0.00    +0.000 A 
ATOM      7  N   UNL     1      48.815   6.185  15.786  0.00  0.00    +0.000 NA
ATOM      8  C   UNL     1      48.460   6.584  14.537  0.00  0.00    +0.000 A 
BRANCH   6   9
ATOM      9  C   UNL     1      48.611   4.616  17.660  0.00  0.00    +0.000 C 
BRANCH   9  10
ATOM     10  N   UNL     1      50.040   4.809  17.965  0.00  0.00    +0.000 NA
ATOM     11  H   UNL     1      50.107   4.802  18.988  0.00  0.00    +0.000 HD
BRANCH  10  12
ATOM     12  C   UNL     1      50.907   3.735  17.444  0.00  0.00    +0.000 C 
ATOM     13  C   UNL     1      52.168   3.543  18.300  0.00  0.00    +0.000 C 
ATOM     14  C   UNL     1      52.971   2.337  17.828  0.00  0.00    +0.000 C 
ATOM     15  C   UNL     1      52.105   1.084  17.779  0.00  0.00    +0.000 C 
ATOM     16  N   UNL     1      50.943   1.278  16.913  0.00  0.00    +0.000 NA
ATOM     17  C   UNL     1      50.117   2.401  17.380  0.00  0.00    +0.000 C 
ATOM     18  H   UNL     1      50.378   0.429  16.915  0.00  0.00    +0.000 HD
ENDBRANCH  10  12
ENDBRANCH   9  10
ENDBRANCH   6   9
ENDBRANCH   1   3
BRANCH   1  20
ATOM     19  C   UNL     1      46.277   8.442  13.307  0.00  0.00    +0.000 C 
ATOM     20  C   UNL     1      46.432   7.539  12.085  0.00  0.00    +0.000 C 
BRANCH  20  21
ATOM     21  C   UNL     1      45.030   7.111  11.592  0.00  0.00    +0.000 C 
ATOM     22  O   UNL     1      44.282   7.959  11.089  0.00  0.00    +0.000 OA
BRANCH  21  23
ATOM     23  C   UNL     1      44.637   5.689  11.557  0.00  0.00    +0.000 A 
ATOM     24  C   UNL     1      44.030   5.124  12.671  0.00  0.00    +0.000 A 
ATOM     25  S   UNL     1      43.527   3.513  12.429  0.00  0.00    +0.000 S 
ATOM     26  C   UNL     1      44.144   3.503  10.845  0.00  0.00    +0.000 A 
ATOM     27  N   UNL     1      44.007   2.409  10.048  0.00  0.00    +0.000 NA
ATOM     28  C   UNL     1      44.509   2.540   8.867  0.00  0.00    +0.000 A 
ATOM     29  N   UNL     1      45.165   3.657   8.419  0.00  0.00    +0.000 N 
ATOM     30  C   UNL     1      45.461   4.717   9.243  0.00  0.00    +0.000 A 
ATOM     31  O   UNL     1      46.272   5.569   8.906  0.00  0.00    +0.000 OA
ATOM     32  C   UNL     1      44.779   4.690  10.524  0.00  0.00    +0.000 A 
ATOM     33  H   UNL     1      45.613   3.663   7.514  0.00  0.00    +0.000 HD
ENDBRANCH  21  23
ENDBRANCH  20  21
ENDBRANCH   1  20
TORSDOF 7
ENDMDL
MODEL 7
REMARK VINA RESULT:    -7.144      1.922      3.607
REMARK INTER + INTRA:         -10.961
REMARK INTER:                  -9.742
REMARK INTRA:                  -1.218
REMARK UNBOUND:                -0.893
REMARK  Name = 
REMARK  8 active torsions:
REMARK  status: ('A' for Active; 'I' for Inactive)
REMARK    1  A    between atoms: C_1  and  C_2
REMARK    2  A    between atoms: C_2  and  N_3
REMARK    3  A    between atoms: C_2  and  C_18
REMARK    4  A    between atoms: N_3  and  C_4
REMARK    5  A    between atoms: C_7  and  C_8
REMARK    6  A    between atoms: C_8  and  N_9
REMARK    7  A    between atoms: N_9  and  C_10
REMARK    8  A    between atoms: C_18  and  C_20
REMARK                            x       y       z     vdW  Elec       q    Type
REMARK                         _______ _______ _______ _____ _____    ______ ____
ROOT
ATOM      1  N   UNL     1      46.884   5.339  14.958  0.00  0.00    +0.000 N 
ATOM      2  H   UNL     1      46.464   6.105  15.490  0.00  0.00    +0.000 HD
ENDROOT
BRANCH   1   3
ATOM      3  C   UNL     1      46.202   4.907  13.839  0.00  0.00    +0.000 A 
ATOM      4  C   UNL     1      45.623   5.852  12.991  0.00  0.00    +0.000 A 
ATOM      5  C   UNL     1      44.975   5.462  11.820  0.00  0.00    +0.000 A 
ATOM      6  C   UNL     1      44.932   4.111  11.493  0.00  0.00    +0.000 A 
ATOM      7  N   UNL     1      45.476   3.157  12.291  0.00  0.00    +0.000 NA
ATOM      8  C   UNL     1      46.097   3.581  13.423  0.00  0.00    +0.000 A 
BRANCH   6   9
ATOM      9  C   UNL     1      44.253   3.645  10.221  0.00  0.00    +0.000 C 
BRANCH   9  10
ATOM     10  N   UNL     1      44.699   2.321   9.752  0.00  0.00    +0.000 NA
ATOM     11  H   UNL     1      43.858   1.735   9.741  0.00  0.00    +0.000 HD
BRANCH  10  12
ATOM     12  C   UNL     1      45.263   2.334   8.388  0.00  0.00    +0.000 C 
ATOM     13  C   UNL     1      45.886   3.693   8.034  0.00  0.00    +0.000 C 
ATOM     14  C   UNL     1      46.587   3.637   6.682  0.00  0.00    +0.000 C 
ATOM     15  C   UNL     1      47.602   2.502   6.635  0.00  0.00    +0.000 C 
ATOM     16  N   UNL     1      46.970   1.215   6.922  0.00  0.00    +0.000 NA
ATOM     17  C   UNL     1      46.335   1.221   8.247  0.00  0.00    +0.000 C 
ATOM     18  H   UNL     1      47.678   0.481   6.898  0.00  0.00    +0.000 HD
ENDBRANCH  10  12
ENDBRANCH   9  10
ENDBRANCH   6   9
ENDBRANCH   1   3
BRANCH   1  20
ATOM     19  C   UNL     1      46.986   3.911  16.958  0.00  0.00    +0.000 C 
ATOM     20  C   UNL     1      47.761   4.487  15.775  0.00  0.00    +0.000 C 
BRANCH  20  21
ATOM     21  C   UNL     1      48.932   5.345  16.307  0.00  0.00    +0.000 C 
ATOM     22  O   UNL     1      49.981   4.786  16.653  0.00  0.00    +0.000 OA
BRANCH  21  23
ATOM     23  C   UNL     1      48.882   6.819  16.250  0.00  0.00    +0.000 A 
ATOM     24  C   UNL     1      48.540   7.531  17.392  0.00  0.00    +0.000 A 
ATOM     25  S   UNL     1      48.647   9.222  17.198  0.00  0.00    +0.000 S 
ATOM     26  C   UNL     1      49.111   9.058  15.570  0.00  0.00    +0.000 A 
ATOM     27  N   UNL     1      49.402  10.149  14.813  0.00  0.00    +0.000 NA
ATOM     28  C   UNL     1      49.751   9.882  13.600  0.00  0.00    +0.000 A 
ATOM     29  N   UNL     1      49.807   8.622  13.065  0.00  0.00    +0.000 N 
ATOM     30  C   UNL     1      49.370   7.512  13.748  0.00  0.00    +0.000 A 
ATOM     31  O   UNL     1      49.171   6.453  13.168  0.00  0.00    +0.000 OA
ATOM     32  C   UNL     1      49.125   7.736  15.162  0.00  0.00    +0.000 A 
ATOM     33  H   UNL     1      50.001   8.487  12.083  0.00  0.00    +0.000 HD
ENDBRANCH  21  23
ENDBRANCH  20  21
ENDBRANCH   1  20
TORSDOF 7
ENDMDL
MODEL 8
REMARK VINA RESULT:    -7.067      2.569      3.468
REMARK INTER + INTRA:         -10.851
REMARK INTER:                  -9.680
REMARK INTRA:                  -1.171
REMARK UNBOUND:                -0.893
REMARK  Name = 
REMARK  8 active torsions:
REMARK  status: ('A' for Active; 'I' for Inactive)
REMARK    1  A    between atoms: C_1  and  C_2
REMARK    2  A    between atoms: C_2  and  N_3
REMARK    3  A    between atoms: C_2  and  C_18
REMARK    4  A    between atoms: N_3  and  C_4
REMARK    5  A    between atoms: C_7  and  C_8
REMARK    6  A    between atoms: C_8  and  N_9
REMARK    7  A    between atoms: N_9  and  C_10
REMARK    8  A    between atoms: C_18  and  C_20
REMARK                            x       y       z     vdW  Elec       q    Type
REMARK                         _______ _______ _______ _____ _____    ______ ____
ROOT
ATOM      1  N   UNL     1      48.994   6.561  15.166  0.00  0.00    +0.000 N 
ATOM      2  H   UNL     1      49.957   6.288  14.957  0.00  0.00    +0.000 HD
ENDROOT
BRANCH   1   3
ATOM      3  C   UNL     1      48.088   6.504  14.126  0.00  0.00    +0.000 A 
ATOM      4  C   UNL     1      48.156   7.461  13.113  0.00  0.00    +0.000 A 
ATOM      5  C   UNL     1      47.298   7.406  12.016  0.00  0.00    +0.000 A 
ATOM      6  C   UNL     1      46.380   6.364  11.932  0.00  0.00    +0.000 A 
ATOM      7  N   UNL     1      46.274   5.415  12.897  0.00  0.00    +0.000 NA
ATOM      8  C   UNL     1      47.129   5.507  13.949  0.00  0.00    +0.000 A 
BRANCH   6   9
ATOM      9  C   UNL     1      45.440   6.256  10.748  0.00  0.00    +0.000 C 
BRANCH   9  10
ATOM     10  N   UNL     1      44.408   5.213  10.893  0.00  0.00    +0.000 NA
ATOM     11  H   UNL     1      43.512   5.709  10.872  0.00  0.00    +0.000 HD
BRANCH  10  12
ATOM     12  C   UNL     1      44.408   4.224   9.798  0.00  0.00    +0.000 C 
ATOM     13  C   UNL     1      45.494   4.520   8.752  0.00  0.00    +0.000 C 
ATOM     14  C   UNL     1      45.569   3.407   7.713  0.00  0.00    +0.000 C 
ATOM     15  C   UNL     1      45.754   2.048   8.375  0.00  0.00    +0.000 C 
ATOM     16  N   UNL     1      44.676   1.770   9.324  0.00  0.00    +0.000 NA
ATOM     17  C   UNL     1      44.618   2.798  10.373  0.00  0.00    +0.000 C 
ATOM     18  H   UNL     1      44.838   0.863   9.759  0.00  0.00    +0.000 HD
ENDBRANCH  10  12
ENDBRANCH   9  10
ENDBRANCH   6   9
ENDBRANCH   1   3
BRANCH   1  20
ATOM     19  C   UNL     1      50.207   8.252  16.477  0.00  0.00    +0.000 C 
ATOM     20  C   UNL     1      48.895   7.489  16.302  0.00  0.00    +0.000 C 
BRANCH  20  21
ATOM     21  C   UNL     1      48.608   6.676  17.585  0.00  0.00    +0.000 C 
ATOM     22  O   UNL     1      48.273   7.272  18.616  0.00  0.00    +0.000 OA
BRANCH  21  23
ATOM     23  C   UNL     1      48.565   5.201  17.556  0.00  0.00    +0.000 A 
ATOM     24  C   UNL     1      47.335   4.558  17.512  0.00  0.00    +0.000 A 
ATOM     25  S   UNL     1      47.457   2.864  17.359  0.00  0.00    +0.000 S 
ATOM     26  C   UNL     1      49.156   2.931  17.391  0.00  0.00    +0.000 A 
ATOM     27  N   UNL     1      49.902   1.802  17.262  0.00  0.00    +0.000 NA
ATOM     28  C   UNL     1      51.177   1.996  17.291  0.00  0.00    +0.000 A 
ATOM     29  N   UNL     1      51.775   3.216  17.471  0.00  0.00    +0.000 N 
ATOM     30  C   UNL     1      51.058   4.352  17.763  0.00  0.00    +0.000 A 
ATOM     31  O   UNL     1      51.614   5.356  18.185  0.00  0.00    +0.000 OA
ATOM     32  C   UNL     1      49.624   4.220  17.578  0.00  0.00    +0.000 A 
ATOM     33  H   UNL     1      52.777   3.288  17.575  0.00  0.00    +0.000 HD
ENDBRANCH  21  23
ENDBRANCH  20  21
ENDBRANCH   1  20
TORSDOF 7
ENDMDL
MODEL 9
REMARK VINA RESULT:    -7.066      1.822      2.189
REMARK INTER + INTRA:         -10.851
REMARK INTER:                 -10.159
REMARK INTRA:                  -0.692
REMARK UNBOUND:                -0.893
REMARK  Name = 
REMARK  8 active torsions:
REMARK  status: ('A' for Active; 'I' for Inactive)
REMARK    1  A    between atoms: C_1  and  C_2
REMARK    2  A    between atoms: C_2  and  N_3
REMARK    3  A    between atoms: C_2  and  C_18
REMARK    4  A    between atoms: N_3  and  C_4
REMARK    5  A    between atoms: C_7  and  C_8
REMARK    6  A    between atoms: C_8  and  N_9
REMARK    7  A    between atoms: N_9  and  C_10
REMARK    8  A    between atoms: C_18  and  C_20
REMARK                            x       y       z     vdW  Elec       q    Type
REMARK                         _______ _______ _______ _____ _____    ______ ____
ROOT
ATOM      1  N   UNL     1      48.071   6.464  13.571  0.00  0.00    +0.000 N 
ATOM      2  H   UNL     1      48.804   5.838  13.912  0.00  0.00    +0.000 HD
ENDROOT
BRANCH   1   3
ATOM      3  C   UNL     1      47.049   5.891  12.842  0.00  0.00    +0.000 A 
ATOM      4  C   UNL     1      46.615   6.518  11.673  0.00  0.00    +0.000 A 
ATOM      5  C   UNL     1      45.625   5.943  10.877  0.00  0.00    +0.000 A 
ATOM      6  C   UNL     1      45.087   4.717  11.254  0.00  0.00    +0.000 A 
ATOM      7  N   UNL     1      45.474   4.075  12.385  0.00  0.00    +0.000 NA
ATOM      8  C   UNL     1      46.441   4.671  13.132  0.00  0.00    +0.000 A 
BRANCH   6   9
ATOM      9  C   UNL     1      44.021   4.049  10.409  0.00  0.00    +0.000 C 
BRANCH   9  10
ATOM     10  N   UNL     1      44.105   4.369   8.973  0.00  0.00    +0.000 NA
ATOM     11  H   UNL     1      44.692   5.206   8.911  0.00  0.00    +0.000 HD
BRANCH  10  12
ATOM     12  C   UNL     1      44.736   3.308   8.165  0.00  0.00    +0.000 C 
ATOM     13  C   UNL     1      45.993   3.806   7.436  0.00  0.00    +0.000 C 
ATOM     14  C   UNL     1      46.706   2.660   6.729  0.00  0.00    +0.000 C 
ATOM     15  C   UNL     1      47.007   1.520   7.695  0.00  0.00    +0.000 C 
ATOM     16  N   UNL     1      45.784   1.029   8.330  0.00  0.00    +0.000 NA
ATOM     17  C   UNL     1      45.106   2.103   9.070  0.00  0.00    +0.000 C 
ATOM     18  H   UNL     1      46.023   0.280   8.979  0.00  0.00    +0.000 HD
ENDBRANCH  10  12
ENDBRANCH   9  10
ENDBRANCH   6   9
ENDBRANCH   1   3
BRANCH   1  20
ATOM     19  C   UNL     1      49.248   8.011  12.063  0.00  0.00    +0.000 C 
ATOM     20  C   UNL     1      48.534   7.850  13.403  0.00  0.00    +0.000 C 
BRANCH  20  21
ATOM     21  C   UNL     1      49.519   8.186  14.546  0.00  0.00    +0.000 C 
ATOM     22  O   UNL     1      50.717   8.354  14.281  0.00  0.00    +0.000 OA
BRANCH  21  23
ATOM     23  C   UNL     1      49.034   8.473  15.910  0.00  0.00    +0.000 A 
ATOM     24  C   UNL     1      48.989   9.788  16.353  0.00  0.00    +0.000 A 
ATOM     25  S   UNL     1      48.291   9.964  17.898  0.00  0.00    +0.000 S 
ATOM     26  C   UNL     1      48.067   8.284  18.045  0.00  0.00    +0.000 A 
ATOM     27  N   UNL     1      47.468   7.753  19.143  0.00  0.00    +0.000 NA
ATOM     28  C   UNL     1      47.350   6.468  19.120  0.00  0.00    +0.000 A 
ATOM     29  N   UNL     1      47.806   5.662  18.111  0.00  0.00    +0.000 N 
ATOM     30  C   UNL     1      48.554   6.146  17.063  0.00  0.00    +0.000 A 
ATOM     31  O   UNL     1      49.176   5.388  16.331  0.00  0.00    +0.000 OA
ATOM     32  C   UNL     1      48.572   7.594  16.957  0.00  0.00    +0.000 A 
ATOM     33  H   UNL     1      47.763   4.657  18.195  0.00  0.00    +0.000 HD
ENDBRANCH  21  23
ENDBRANCH  20  21
ENDBRANCH   1  20
TORSDOF 7
ENDMDL
