MODEL 1
REMARK VINA RESULT:    -8.550      0.000      0.000
REMARK INTER + INTRA:         -13.342
REMARK INTER:                 -12.049
REMARK INTRA:                  -1.292
REMARK UNBOUND:                -1.292
REMARK  Name = 
REMARK  8 active torsions:
REMARK  status: ('A' for Active; 'I' for Inactive)
REMARK    1  A    between atoms: C_1  and  C_2
REMARK    2  A    between atoms: C_2  and  C_3
REMARK    3  A    between atoms: C_2  and  C_15
REMARK    4  A    between atoms: C_3  and  O_4
REMARK    5  A    between atoms: O_4  and  C_5
REMARK    6  A    between atoms: C_8  and  C_9
REMARK    7  A    between atoms: C_20  and  O_21
REMARK    8  A    between atoms: O_21  and  C_22
REMARK                            x       y       z     vdW  Elec       q    Type
REMARK                         _______ _______ _______ _____ _____    ______ ____
ROOT
ATOM      1  C   UNL     1      42.865   5.428  11.968  0.00  0.00    +0.000 C 
ATOM      2  C   UNL     1      43.814   4.360  12.522  0.00  0.00    +0.000 C 
ENDROOT
BRANCH   2   3
ATOM      3  C   UNL     1      45.206   4.940  12.758  0.00  0.00    +0.000 A 
ATOM      4  C   UNL     1      45.772   5.870  11.873  0.00  0.00    +0.000 A 
ATOM      5  C   UNL     1      47.043   6.389  12.115  0.00  0.00    +0.000 A 
ATOM      6  F   UNL     1      47.566   7.271  11.254  0.00  0.00    +0.000 F 
ATOM      7  C   UNL     1      47.768   6.014  13.237  0.00  0.00    +0.000 A 
ATOM      8  C   UNL     1      47.216   5.107  14.139  0.00  0.00    +0.000 A 
ATOM      9  C   UNL     1      45.954   4.553  13.889  0.00  0.00    +0.000 A 
BRANCH   8  10
ATOM     10  O   UNL     1      47.996   4.802  15.232  0.00  0.00    +0.000 OA
BRANCH  10  11
ATOM     11  C   UNL     1      47.490   3.856  16.203  0.00  0.00    +0.000 C 
ATOM     12  C   UNL     1      47.315   4.367  17.653  0.00  0.00    +0.000 C 
ATOM     13  C   UNL     1      48.011   3.100  18.165  0.00  0.00    +0.000 C 
ATOM     14  C   UNL     1      48.534   2.848  16.744  0.00  0.00    +0.000 C 
ENDBRANCH  10  11
ENDBRANCH   8  10
ENDBRANCH   2   3
BRANCH   2  15
ATOM     15  C   UNL     1      43.867   3.117  11.608  0.00  0.00    +0.000 C 
BRANCH  15  16
ATOM     16  O   UNL     1      43.595   3.465  10.241  0.00  0.00    +0.000 OA
BRANCH  16  17
ATOM     17  C   UNL     1      44.588   3.167   9.339  0.00  0.00    +0.000 A 
ATOM     18  C   UNL     1      44.815   1.801   9.126  0.00  0.00    +0.000 A 
ATOM     19  C   UNL     1      45.820   1.363   8.247  0.00  0.00    +0.000 A 
ATOM     20  C   UNL     1      46.616   2.294   7.566  0.00  0.00    +0.000 A 
ATOM     21  C   UNL     1      46.378   3.656   7.766  0.00  0.00    +0.000 A 
ATOM     22  C   UNL     1      45.380   4.080   8.635  0.00  0.00    +0.000 A 
ATOM     23  F   UNL     1      45.217   5.404   8.768  0.00  0.00    +0.000 F 
BRANCH  20  24
ATOM     24  C   UNL     1      47.718   1.934   6.630  0.00  0.00    +0.000 C 
ATOM     25  N   UNL     1      48.746   2.816   6.446  0.00  0.00    +0.000 N 
ATOM     26  O   UNL     1      47.713   0.870   6.017  0.00  0.00    +0.000 OA
ATOM     27  H   UNL     1      48.826   3.720   6.877  0.00  0.00    +0.000 HD
ATOM     28  H   UNL     1      49.460   2.537   5.784  0.00  0.00    +0.000 HD
ENDBRANCH  20  24
ENDBRANCH  16  17
ENDBRANCH  15  16
ENDBRANCH   2  15
TORSDOF 7
ENDMDL
MODEL 2
REMARK VINA RESULT:    -7.413      2.413      3.316
REMARK INTER + INTRA:         -11.739
REMARK INTER:                 -10.481
REMARK INTRA:                  -1.258
REMARK UNBOUND:                -1.292
REMARK  Name = 
REMARK  8 active torsions:
REMARK  status: ('A' for Active; 'I' for Inactive)
REMARK    1  A    between atoms: C_1  and  C_2
REMARK    2  A    between atoms: C_2  and  C_3
REMARK    3  A    between atoms: C_2  and  C_15
REMARK    4  A    between atoms: C_3  and  O_4
REMARK    5  A    between atoms: O_4  and  C_5
REMARK    6  A    between atoms: C_8  and  C_9
REMARK    7  A    between atoms: C_20  and  O_21
REMARK    8  A    between atoms: O_21  and  C_22
REMARK                            x       y       z     vdW  Elec       q    Type
REMARK                         _______ _______ _______ _____ _____    ______ ____
ROOT
ATOM      1  C   UNL     1      42.832   5.146  12.505  0.00  0.00    +0.000 C 
ATOM      2  C   UNL     1      44.294   4.739  12.716  0.00  0.00    +0.000 C 
ENDROOT
BRANCH   2   3
ATOM      3  C   UNL     1      45.227   5.925  12.485  0.00  0.00    +0.000 A 
ATOM      4  C   UNL     1      44.728   7.198  12.170  0.00  0.00    +0.000 A 
ATOM      5  C   UNL     1      45.601   8.266  11.970  0.00  0.00    +0.000 A 
ATOM      6  F   UNL     1      45.104   9.472  11.664  0.00  0.00    +0.000 F 
ATOM      7  C   UNL     1      46.974   8.102  12.092  0.00  0.00    +0.000 A 
ATOM      8  C   UNL     1      47.489   6.851  12.425  0.00  0.00    +0.000 A 
ATOM      9  C   UNL     1      46.623   5.763  12.595  0.00  0.00    +0.000 A 
BRANCH   8  10
ATOM     10  O   UNL     1      48.858   6.781  12.540  0.00  0.00    +0.000 OA
BRANCH  10  11
ATOM     11  C   UNL     1      49.650   7.910  12.100  0.00  0.00    +0.000 C 
ATOM     12  C   UNL     1      50.778   7.620  11.082  0.00  0.00    +0.000 C 
ATOM     13  C   UNL     1      51.737   8.467  11.927  0.00  0.00    +0.000 C 
ATOM     14  C   UNL     1      50.744   8.372  13.095  0.00  0.00    +0.000 C 
ENDBRANCH  10  11
ENDBRANCH   8  10
ENDBRANCH   2   3
BRANCH   2  15
ATOM     15  C   UNL     1      44.683   3.534  11.832  0.00  0.00    +0.000 C 
BRANCH  15  16
ATOM     16  O   UNL     1      44.127   3.657  10.513  0.00  0.00    +0.000 OA
BRANCH  16  17
ATOM     17  C   UNL     1      44.953   3.288   9.479  0.00  0.00    +0.000 A 
ATOM     18  C   UNL     1      45.042   1.910   9.246  0.00  0.00    +0.000 A 
ATOM     19  C   UNL     1      45.873   1.400   8.232  0.00  0.00    +0.000 A 
ATOM     20  C   UNL     1      46.630   2.270   7.437  0.00  0.00    +0.000 A 
ATOM     21  C   UNL     1      46.527   3.646   7.660  0.00  0.00    +0.000 A 
ATOM     22  C   UNL     1      45.701   4.141   8.662  0.00  0.00    +0.000 A 
ATOM     23  F   UNL     1      45.659   5.473   8.807  0.00  0.00    +0.000 F 
BRANCH  20  24
ATOM     24  C   UNL     1      47.554   1.832   6.354  0.00  0.00    +0.000 C 
ATOM     25  N   UNL     1      48.720   2.517   6.160  0.00  0.00    +0.000 N 
ATOM     26  O   UNL     1      47.281   0.877   5.630  0.00  0.00    +0.000 OA
ATOM     27  H   UNL     1      49.018   3.325   6.678  0.00  0.00    +0.000 HD
ATOM     28  H   UNL     1      49.305   2.196   5.398  0.00  0.00    +0.000 HD
ENDBRANCH  20  24
ENDBRANCH  16  17
ENDBRANCH  15  16
ENDBRANCH   2  15
TORSDOF 7
ENDMDL
MODEL 3
REMARK VINA RESULT:    -7.287      3.182      7.995
REMARK INTER + INTRA:         -11.561
REMARK INTER:                 -10.592
REMARK INTRA:                  -0.970
REMARK UNBOUND:                -1.292
REMARK  Name = 
REMARK  8 active torsions:
REMARK  status: ('A' for Active; 'I' for Inactive)
REMARK    1  A    between atoms: C_1  and  C_2
REMARK    2  A    between atoms: C_2  and  C_3
REMARK    3  A    between atoms: C_2  and  C_15
REMARK    4  A    between atoms: C_3  and  O_4
REMARK    5  A    between atoms: O_4  and  C_5
REMARK    6  A    between atoms: C_8  and  C_9
REMARK    7  A    between atoms: C_20  and  O_21
REMARK    8  A    between atoms: O_21  and  C_22
REMARK                            x       y       z     vdW  Elec       q    Type
REMARK                         _______ _______ _______ _____ _____    ______ ____
ROOT
ATOM      1  C   UNL     1      45.110   7.469  12.141  0.00  0.00    +0.000 C 
ATOM      2  C   UNL     1      46.172   6.647  11.402  0.00  0.00    +0.000 C 
ENDROOT
BRANCH   2   3
ATOM      3  C   UNL     1      45.540   5.447  10.702  0.00  0.00    +0.000 A 
ATOM      4  C   UNL     1      44.646   4.597  11.371  0.00  0.00    +0.000 A 
ATOM      5  C   UNL     1      44.078   3.511  10.708  0.00  0.00    +0.000 A 
ATOM      6  F   UNL     1      43.232   2.708  11.367  0.00  0.00    +0.000 F 
ATOM      7  C   UNL     1      44.367   3.255   9.375  0.00  0.00    +0.000 A 
ATOM      8  C   UNL     1      45.236   4.098   8.686  0.00  0.00    +0.000 A 
ATOM      9  C   UNL     1      45.839   5.173   9.352  0.00  0.00    +0.000 A 
BRANCH   8  10
ATOM     10  O   UNL     1      45.455   3.780   7.365  0.00  0.00    +0.000 OA
BRANCH  10  11
ATOM     11  C   UNL     1      46.754   3.273   6.980  0.00  0.00    +0.000 C 
ATOM     12  C   UNL     1      46.927   2.835   5.507  0.00  0.00    +0.000 C 
ATOM     13  C   UNL     1      47.598   1.542   5.987  0.00  0.00    +0.000 C 
ATOM     14  C   UNL     1      47.034   1.806   7.391  0.00  0.00    +0.000 C 
ENDBRANCH  10  11
ENDBRANCH   8  10
ENDBRANCH   2   3
BRANCH   2  15
ATOM     15  C   UNL     1      47.315   6.215  12.345  0.00  0.00    +0.000 C 
BRANCH  15  16
ATOM     16  O   UNL     1      47.078   6.664  13.688  0.00  0.00    +0.000 OA
BRANCH  16  17
ATOM     17  C   UNL     1      47.467   5.802  14.686  0.00  0.00    +0.000 A 
ATOM     18  C   UNL     1      48.426   6.307  15.573  0.00  0.00    +0.000 A 
ATOM     19  C   UNL     1      48.927   5.517  16.623  0.00  0.00    +0.000 A 
ATOM     20  C   UNL     1      48.471   4.203  16.796  0.00  0.00    +0.000 A 
ATOM     21  C   UNL     1      47.502   3.707  15.920  0.00  0.00    +0.000 A 
ATOM     22  C   UNL     1      47.011   4.496  14.887  0.00  0.00    +0.000 A 
ATOM     23  F   UNL     1      46.082   3.944  14.093  0.00  0.00    +0.000 F 
BRANCH  20  24
ATOM     24  C   UNL     1      48.952   3.279  17.861  0.00  0.00    +0.000 C 
ATOM     25  N   UNL     1      48.420   3.378  19.115  0.00  0.00    +0.000 N 
ATOM     26  O   UNL     1      49.822   2.442  17.634  0.00  0.00    +0.000 OA
ATOM     27  H   UNL     1      47.727   4.046  19.406  0.00  0.00    +0.000 HD
ATOM     28  H   UNL     1      48.794   2.744  19.811  0.00  0.00    +0.000 HD
ENDBRANCH  20  24
ENDBRANCH  16  17
ENDBRANCH  15  16
ENDBRANCH   2  15
TORSDOF 7
ENDMDL
MODEL 4
REMARK VINA RESULT:    -7.022      2.595      4.483
REMARK INTER + INTRA:         -11.187
REMARK INTER:                 -10.114
REMARK INTRA:                  -1.073
REMARK UNBOUND:                -1.292
REMARK  Name = 
REMARK  8 active torsions:
REMARK  status: ('A' for Active; 'I' for Inactive)
REMARK    1  A    between atoms: C_1  and  C_2
REMARK    2  A    between atoms: C_2  and  C_3
REMARK    3  A    between atoms: C_2  and  C_15
REMARK    4  A    between atoms: C_3  and  O_4
REMARK    5  A    between atoms: O_4  and  C_5
REMARK    6  A    between atoms: C_8  and  C_9
REMARK    7  A    between atoms: C_20  and  O_21
REMARK    8  A    between atoms: O_21  and  C_22
REMARK                            x       y       z     vdW  Elec       q    Type
REMARK                         _______ _______ _______ _____ _____    ______ ____
ROOT
ATOM      1  C   UNL     1      45.930   3.197  12.908  0.00  0.00    +0.000 C 
ATOM      2  C   UNL     1      45.494   4.343  11.989  0.00  0.00    +0.000 C 
ENDROOT
BRANCH   2   3
ATOM      3  C   UNL     1      46.011   5.683  12.510  0.00  0.00    +0.000 A 
ATOM      4  C   UNL     1      47.276   5.797  13.105  0.00  0.00    +0.000 A 
ATOM      5  C   UNL     1      47.728   7.032  13.567  0.00  0.00    +0.000 A 
ATOM      6  F   UNL     1      48.936   7.118  14.137  0.00  0.00    +0.000 F 
ATOM      7  C   UNL     1      46.949   8.174  13.436  0.00  0.00    +0.000 A 
ATOM      8  C   UNL     1      45.698   8.086  12.829  0.00  0.00    +0.000 A 
ATOM      9  C   UNL     1      45.220   6.843  12.392  0.00  0.00    +0.000 A 
BRANCH   8  10
ATOM     10  O   UNL     1      44.999   9.267  12.726  0.00  0.00    +0.000 OA
BRANCH  10  11
ATOM     11  C   UNL     1      44.964   9.942  11.446  0.00  0.00    +0.000 C 
ATOM     12  C   UNL     1      44.774  11.478  11.470  0.00  0.00    +0.000 C 
ATOM     13  C   UNL     1      43.703  11.346  10.380  0.00  0.00    +0.000 C 
ATOM     14  C   UNL     1      43.616   9.844  10.690  0.00  0.00    +0.000 C 
ENDBRANCH  10  11
ENDBRANCH   8  10
ENDBRANCH   2   3
BRANCH   2  15
ATOM     15  C   UNL     1      43.963   4.366  11.793  0.00  0.00    +0.000 C 
BRANCH  15  16
ATOM     16  O   UNL     1      43.618   4.380  10.399  0.00  0.00    +0.000 OA
BRANCH  16  17
ATOM     17  C   UNL     1      44.530   3.800   9.551  0.00  0.00    +0.000 A 
ATOM     18  C   UNL     1      44.460   2.405   9.457  0.00  0.00    +0.000 A 
ATOM     19  C   UNL     1      45.354   1.688   8.643  0.00  0.00    +0.000 A 
ATOM     20  C   UNL     1      46.337   2.365   7.909  0.00  0.00    +0.000 A 
ATOM     21  C   UNL     1      46.396   3.759   7.990  0.00  0.00    +0.000 A 
ATOM     22  C   UNL     1      45.506   4.459   8.796  0.00  0.00    +0.000 A 
ATOM     23  F   UNL     1      45.630   5.794   8.816  0.00  0.00    +0.000 F 
BRANCH  20  24
ATOM     24  C   UNL     1      47.343   1.699   7.035  0.00  0.00    +0.000 C 
ATOM     25  N   UNL     1      48.387   2.434   6.547  0.00  0.00    +0.000 N 
ATOM     26  O   UNL     1      47.244   0.511   6.739  0.00  0.00    +0.000 OA
ATOM     27  H   UNL     1      48.539   3.414   6.708  0.00  0.00    +0.000 HD
ATOM     28  H   UNL     1      49.033   1.943   5.940  0.00  0.00    +0.000 HD
ENDBRANCH  20  24
ENDBRANCH  16  17
ENDBRANCH  15  16
ENDBRANCH   2  15
TORSDOF 7
ENDMDL
MODEL 5
REMARK VINA RESULT:    -6.840      2.054      2.385
REMARK INTER + INTRA:         -10.931
REMARK INTER:                  -9.940
REMARK INTRA:                  -0.990
REMARK UNBOUND:                -1.292
REMARK  Name = 
REMARK  8 active torsions:
REMARK  status: ('A' for Active; 'I' for Inactive)
REMARK    1  A    between atoms: C_1  and  C_2
REMARK    2  A    between atoms: C_2  and  C_3
REMARK    3  A    between atoms: C_2  and  C_15
REMARK    4  A    between atoms: C_3  and  O_4
REMARK    5  A    between atoms: O_4  and  C_5
REMARK    6  A    between atoms: C_8  and  C_9
REMARK    7  A    between atoms: C_20  and  O_21
REMARK    8  A    between atoms: O_21  and  C_22
REMARK                            x       y       z     vdW  Elec       q    Type
REMARK                         _______ _______ _______ _____ _____    ______ ____
ROOT
ATOM      1  C   UNL     1      45.907   3.513  12.879  0.00  0.00    +0.000 C 
ATOM      2  C   UNL     1      45.492   4.664  11.955  0.00  0.00    +0.000 C 
ENDROOT
BRANCH   2   3
ATOM      3  C   UNL     1      45.977   6.003  12.505  0.00  0.00    +0.000 A 
ATOM      4  C   UNL     1      45.200   7.166  12.390  0.00  0.00    +0.000 A 
ATOM      5  C   UNL     1      45.664   8.375  12.906  0.00  0.00    +0.000 A 
ATOM      6  F   UNL     1      44.909   9.474  12.781  0.00  0.00    +0.000 F 
ATOM      7  C   UNL     1      46.889   8.455  13.553  0.00  0.00    +0.000 A 
ATOM      8  C   UNL     1      47.667   7.308  13.695  0.00  0.00    +0.000 A 
ATOM      9  C   UNL     1      47.226   6.094  13.152  0.00  0.00    +0.000 A 
BRANCH   8  10
ATOM     10  O   UNL     1      48.859   7.474  14.363  0.00  0.00    +0.000 OA
BRANCH  10  11
ATOM     11  C   UNL     1      48.998   6.903  15.686  0.00  0.00    +0.000 C 
ATOM     12  C   UNL     1      48.826   7.866  16.885  0.00  0.00    +0.000 C 
ATOM     13  C   UNL     1      50.096   7.280  17.515  0.00  0.00    +0.000 C 
ATOM     14  C   UNL     1      50.457   6.673  16.152  0.00  0.00    +0.000 C 
ENDBRANCH  10  11
ENDBRANCH   8  10
ENDBRANCH   2   3
BRANCH   2  15
ATOM     15  C   UNL     1      43.968   4.673  11.708  0.00  0.00    +0.000 C 
BRANCH  15  16
ATOM     16  O   UNL     1      43.670   4.617  10.304  0.00  0.00    +0.000 OA
BRANCH  16  17
ATOM     17  C   UNL     1      44.523   3.857   9.540  0.00  0.00    +0.000 A 
ATOM     18  C   UNL     1      44.281   2.477   9.565  0.00  0.00    +0.000 A 
ATOM     19  C   UNL     1      45.098   1.586   8.847  0.00  0.00    +0.000 A 
ATOM     20  C   UNL     1      46.175   2.070   8.092  0.00  0.00    +0.000 A 
ATOM     21  C   UNL     1      46.405   3.447   8.055  0.00  0.00    +0.000 A 
ATOM     22  C   UNL     1      45.591   4.321   8.766  0.00  0.00    +0.000 A 
ATOM     23  F   UNL     1      45.880   5.627   8.675  0.00  0.00    +0.000 F 
BRANCH  20  24
ATOM     24  C   UNL     1      47.111   1.210   7.315  0.00  0.00    +0.000 C 
ATOM     25  N   UNL     1      48.207   1.781   6.731  0.00  0.00    +0.000 N 
ATOM     26  O   UNL     1      46.908   0.006   7.180  0.00  0.00    +0.000 OA
ATOM     27  H   UNL     1      48.443   2.758   6.759  0.00  0.00    +0.000 HD
ATOM     28  H   UNL     1      48.801   1.161   6.195  0.00  0.00    +0.000 HD
ENDBRANCH  20  24
ENDBRANCH  16  17
ENDBRANCH  15  16
ENDBRANCH   2  15
TORSDOF 7
ENDMDL
MODEL 6
REMARK VINA RESULT:    -6.620      3.581      8.618
REMARK INTER + INTRA:         -10.621
REMARK INTER:                  -9.819
REMARK INTRA:                  -0.803
REMARK UNBOUND:                -1.292
REMARK  Name = 
REMARK  8 active torsions:
REMARK  status: ('A' for Active; 'I' for Inactive)
REMARK    1  A    between atoms: C_1  and  C_2
REMARK    2  A    between atoms: C_2  and  C_3
REMARK    3  A    between atoms: C_2  and  C_15
REMARK    4  A    between atoms: C_3  and  O_4
REMARK    5  A    between atoms: O_4  and  C_5
REMARK    6  A    between atoms: C_8  and  C_9
REMARK    7  A    between atoms: C_20  and  O_21
REMARK    8  A    between atoms: O_21  and  C_22
REMARK                            x       y       z     vdW  Elec       q    Type
REMARK                         _______ _______ _______ _____ _____    ______ ____
ROOT
ATOM      1  C   UNL     1      47.169   6.670  13.268  0.00  0.00    +0.000 C 
ATOM      2  C   UNL     1      46.769   5.193  13.195  0.00  0.00    +0.000 C 
ENDROOT
BRANCH   2   3
ATOM      3  C   UNL     1      45.535   5.007  12.315  0.00  0.00    +0.000 A 
ATOM      4  C   UNL     1      44.579   6.024  12.170  0.00  0.00    +0.000 A 
ATOM      5  C   UNL     1      43.465   5.831  11.356  0.00  0.00    +0.000 A 
ATOM      6  F   UNL     1      42.561   6.812  11.237  0.00  0.00    +0.000 F 
ATOM      7  C   UNL     1      43.282   4.644  10.661  0.00  0.00    +0.000 A 
ATOM      8  C   UNL     1      44.230   3.629  10.775  0.00  0.00    +0.000 A 
ATOM      9  C   UNL     1      45.337   3.799  11.616  0.00  0.00    +0.000 A 
BRANCH   8  10
ATOM     10  O   UNL     1      43.979   2.492  10.040  0.00  0.00    +0.000 OA
BRANCH  10  11
ATOM     11  C   UNL     1      44.498   2.410   8.692  0.00  0.00    +0.000 C 
ATOM     12  C   UNL     1      45.858   1.695   8.508  0.00  0.00    +0.000 C 
ATOM     13  C   UNL     1      46.329   2.854   7.622  0.00  0.00    +0.000 C 
ATOM     14  C   UNL     1      45.171   3.702   8.167  0.00  0.00    +0.000 C 
ENDBRANCH  10  11
ENDBRANCH   8  10
ENDBRANCH   2   3
BRANCH   2  15
ATOM     15  C   UNL     1      46.557   4.590  14.600  0.00  0.00    +0.000 C 
BRANCH  15  16
ATOM     16  O   UNL     1      47.738   3.915  15.060  0.00  0.00    +0.000 OA
BRANCH  16  17
ATOM     17  C   UNL     1      48.117   4.185  16.353  0.00  0.00    +0.000 A 
ATOM     18  C   UNL     1      47.876   3.159  17.275  0.00  0.00    +0.000 A 
ATOM     19  C   UNL     1      48.194   3.318  18.635  0.00  0.00    +0.000 A 
ATOM     20  C   UNL     1      48.761   4.516  19.091  0.00  0.00    +0.000 A 
ATOM     21  C   UNL     1      49.016   5.532  18.167  0.00  0.00    +0.000 A 
ATOM     22  C   UNL     1      48.701   5.365  16.824  0.00  0.00    +0.000 A 
ATOM     23  F   UNL     1      48.980   6.389  16.005  0.00  0.00    +0.000 F 
BRANCH  20  24
ATOM     24  C   UNL     1      49.114   4.792  20.511  0.00  0.00    +0.000 C 
ATOM     25  N   UNL     1      50.127   5.669  20.784  0.00  0.00    +0.000 N 
ATOM     26  O   UNL     1      48.523   4.240  21.435  0.00  0.00    +0.000 OA
ATOM     27  H   UNL     1      50.687   6.147  20.100  0.00  0.00    +0.000 HD
ATOM     28  H   UNL     1      50.345   5.808  21.763  0.00  0.00    +0.000 HD
ENDBRANCH  20  24
ENDBRANCH  16  17
ENDBRANCH  15  16
ENDBRANCH   2  15
TORSDOF 7
ENDMDL
MODEL 7
REMARK VINA RESULT:    -6.559      3.588      7.690
REMARK INTER + INTRA:         -10.535
REMARK INTER:                  -9.522
REMARK INTRA:                  -1.012
REMARK UNBOUND:                -1.292
REMARK  Name = 
REMARK  8 active torsions:
REMARK  status: ('A' for Active; 'I' for Inactive)
REMARK    1  A    between atoms: C_1  and  C_2
REMARK    2  A    between atoms: C_2  and  C_3
REMARK    3  A    between atoms: C_2  and  C_15
REMARK    4  A    between atoms: C_3  and  O_4
REMARK    5  A    between atoms: O_4  and  C_5
REMARK    6  A    between atoms: C_8  and  C_9
REMARK    7  A    between atoms: C_20  and  O_21
REMARK    8  A    between atoms: O_21  and  C_22
REMARK                            x       y       z     vdW  Elec       q    Type
REMARK                         _______ _______ _______ _____ _____    ______ ____
ROOT
ATOM      1  C   UNL     1      44.670   7.529  11.334  0.00  0.00    +0.000 C 
ATOM      2  C   UNL     1      45.672   6.382  11.505  0.00  0.00    +0.000 C 
ENDROOT
BRANCH   2   3
ATOM      3  C   UNL     1      45.189   5.127  10.781  0.00  0.00    +0.000 A 
ATOM      4  C   UNL     1      44.392   4.170  11.429  0.00  0.00    +0.000 A 
ATOM      5  C   UNL     1      43.959   3.036  10.744  0.00  0.00    +0.000 A 
ATOM      6  F   UNL     1      43.205   2.132  11.382  0.00  0.00    +0.000 F 
ATOM      7  C   UNL     1      44.290   2.834   9.412  0.00  0.00    +0.000 A 
ATOM      8  C   UNL     1      45.063   3.782   8.745  0.00  0.00    +0.000 A 
ATOM      9  C   UNL     1      45.532   4.909   9.432  0.00  0.00    +0.000 A 
BRANCH   8  10
ATOM     10  O   UNL     1      45.331   3.510   7.422  0.00  0.00    +0.000 OA
BRANCH  10  11
ATOM     11  C   UNL     1      46.681   3.144   7.049  0.00  0.00    +0.000 C 
ATOM     12  C   UNL     1      46.936   2.837   5.555  0.00  0.00    +0.000 C 
ATOM     13  C   UNL     1      47.701   1.572   5.962  0.00  0.00    +0.000 C 
ATOM     14  C   UNL     1      47.073   1.678   7.359  0.00  0.00    +0.000 C 
ENDBRANCH  10  11
ENDBRANCH   8  10
ENDBRANCH   2   3
BRANCH   2  15
ATOM     15  C   UNL     1      45.965   6.099  12.993  0.00  0.00    +0.000 C 
BRANCH  15  16
ATOM     16  O   UNL     1      47.375   6.151  13.264  0.00  0.00    +0.000 OA
BRANCH  16  17
ATOM     17  C   UNL     1      48.020   7.298  12.867  0.00  0.00    +0.000 A 
ATOM     18  C   UNL     1      49.070   7.111  11.959  0.00  0.00    +0.000 A 
ATOM     19  C   UNL     1      49.826   8.201  11.494  0.00  0.00    +0.000 A 
ATOM     20  C   UNL     1      49.539   9.499  11.937  0.00  0.00    +0.000 A 
ATOM     21  C   UNL     1      48.480   9.685  12.830  0.00  0.00    +0.000 A 
ATOM     22  C   UNL     1      47.736   8.602  13.282  0.00  0.00    +0.000 A 
ATOM     23  F   UNL     1      46.738   8.869  14.136  0.00  0.00    +0.000 F 
BRANCH  20  24
ATOM     24  C   UNL     1      50.292  10.716  11.522  0.00  0.00    +0.000 C 
ATOM     25  N   UNL     1      50.241  11.828  12.314  0.00  0.00    +0.000 N 
ATOM     26  O   UNL     1      50.943  10.739  10.481  0.00  0.00    +0.000 OA
ATOM     27  H   UNL     1      49.716  11.918  13.166  0.00  0.00    +0.000 HD
ATOM     28  H   UNL     1      50.751  12.637  11.980  0.00  0.00    +0.000 HD
ENDBRANCH  20  24
ENDBRANCH  16  17
ENDBRANCH  15  16
ENDBRANCH   2  15
TORSDOF 7
ENDMDL
MODEL 8
REMARK VINA RESULT:    -6.366      1.887      2.496
REMARK INTER + INTRA:         -10.263
REMARK INTER:                  -9.247
REMARK INTRA:                  -1.017
REMARK UNBOUND:                -1.292
REMARK  Name = 
REMARK  8 active torsions:
REMARK  status: ('A' for Active; 'I' for Inactive)
REMARK    1  A    between atoms: C_1  and  C_2
REMARK    2  A    between atoms: C_2  and  C_3
REMARK    3  A    between atoms: C_2  and  C_15
REMARK    4  A    between atoms: C_3  and  O_4
REMARK    5  A    between atoms: O_4  and  C_5
REMARK    6  A    between atoms: C_8  and  C_9
REMARK    7  A    between atoms: C_20  and  O_21
REMARK    8  A    between atoms: O_21  and  C_22
REMARK                            x       y       z     vdW  Elec       q    Type
REMARK                         _______ _______ _______ _____ _____    ______ ____
ROOT
ATOM      1  C   UNL     1      45.610   4.414  13.546  0.00  0.00    +0.000 C 
ATOM      2  C   UNL     1      46.107   5.199  12.327  0.00  0.00    +0.000 C 
ENDROOT
BRANCH   2   3
ATOM      3  C   UNL     1      47.200   6.188  12.727  0.00  0.00    +0.000 A 
ATOM      4  C   UNL     1      47.831   7.004  11.777  0.00  0.00    +0.000 A 
ATOM      5  C   UNL     1      48.822   7.903  12.168  0.00  0.00    +0.000 A 
ATOM      6  F   UNL     1      49.416   8.669  11.245  0.00  0.00    +0.000 F 
ATOM      7  C   UNL     1      49.195   8.022  13.500  0.00  0.00    +0.000 A 
ATOM      8  C   UNL     1      48.566   7.235  14.462  0.00  0.00    +0.000 A 
ATOM      9  C   UNL     1      47.593   6.304  14.076  0.00  0.00    +0.000 A 
BRANCH   8  10
ATOM     10  O   UNL     1      48.986   7.428  15.759  0.00  0.00    +0.000 OA
BRANCH  10  11
ATOM     11  C   UNL     1      48.641   6.435  16.754  0.00  0.00    +0.000 C 
ATOM     12  C   UNL     1      48.856   6.825  18.236  0.00  0.00    +0.000 C 
ATOM     13  C   UNL     1      49.541   5.474  18.475  0.00  0.00    +0.000 C 
ATOM     14  C   UNL     1      49.692   5.315  16.956  0.00  0.00    +0.000 C 
ENDBRANCH  10  11
ENDBRANCH   8  10
ENDBRANCH   2   3
BRANCH   2  15
ATOM     15  C   UNL     1      44.947   5.905  11.594  0.00  0.00    +0.000 C 
BRANCH  15  16
ATOM     16  O   UNL     1      44.164   4.969  10.837  0.00  0.00    +0.000 OA
BRANCH  16  17
ATOM     17  C   UNL     1      44.834   4.290   9.847  0.00  0.00    +0.000 A 
ATOM     18  C   UNL     1      45.650   5.079   9.027  0.00  0.00    +0.000 A 
ATOM     19  C   UNL     1      46.370   4.511   7.961  0.00  0.00    +0.000 A 
ATOM     20  C   UNL     1      46.278   3.136   7.703  0.00  0.00    +0.000 A 
ATOM     21  C   UNL     1      45.476   2.348   8.532  0.00  0.00    +0.000 A 
ATOM     22  C   UNL     1      44.771   2.918   9.584  0.00  0.00    +0.000 A 
ATOM     23  F   UNL     1      44.027   2.090  10.332  0.00  0.00    +0.000 F 
BRANCH  20  24
ATOM     24  C   UNL     1      46.982   2.441   6.588  0.00  0.00    +0.000 C 
ATOM     25  N   UNL     1      48.050   1.639   6.876  0.00  0.00    +0.000 N 
ATOM     26  O   UNL     1      46.627   2.586   5.421  0.00  0.00    +0.000 OA
ATOM     27  H   UNL     1      48.432   1.480   7.792  0.00  0.00    +0.000 HD
ATOM     28  H   UNL     1      48.509   1.206   6.085  0.00  0.00    +0.000 HD
ENDBRANCH  20  24
ENDBRANCH  16  17
ENDBRANCH  15  16
ENDBRANCH   2  15
TORSDOF 7
ENDMDL
MODEL 9
REMARK VINA RESULT:    -6.283      3.243      5.060
REMARK INTER + INTRA:         -10.146
REMARK INTER:                  -8.741
REMARK INTRA:                  -1.405
REMARK UNBOUND:                -1.292
REMARK  Name = 
REMARK  8 active torsions:
REMARK  status: ('A' for Active; 'I' for Inactive)
REMARK    1  A    between atoms: C_1  and  C_2
REMARK    2  A    between atoms: C_2  and  C_3
REMARK    3  A    between atoms: C_2  and  C_15
REMARK    4  A    between atoms: C_3  and  O_4
REMARK    5  A    between atoms: O_4  and  C_5
REMARK    6  A    between atoms: C_8  and  C_9
REMARK    7  A    between atoms: C_20  and  O_21
REMARK    8  A    between atoms: O_21  and  C_22
REMARK                            x       y       z     vdW  Elec       q    Type
REMARK                         _______ _______ _______ _____ _____    ______ ____
ROOT
ATOM      1  C   UNL     1      49.197   6.963  12.487  0.00  0.00    +0.000 C 
ATOM      2  C   UNL     1      48.538   8.231  13.041  0.00  0.00    +0.000 C 
ENDROOT
BRANCH   2   3
ATOM      3  C   UNL     1      48.534   8.217  14.568  0.00  0.00    +0.000 A 
ATOM      4  C   UNL     1      48.186   9.356  15.310  0.00  0.00    +0.000 A 
ATOM      5  C   UNL     1      48.184   9.315  16.703  0.00  0.00    +0.000 A 
ATOM      6  F   UNL     1      47.854  10.415  17.391  0.00  0.00    +0.000 F 
ATOM      7  C   UNL     1      48.509   8.152  17.386  0.00  0.00    +0.000 A 
ATOM      8  C   UNL     1      48.839   7.004  16.668  0.00  0.00    +0.000 A 
ATOM      9  C   UNL     1      48.876   7.042  15.269  0.00  0.00    +0.000 A 
BRANCH   8  10
ATOM     10  O   UNL     1      49.133   5.891  17.424  0.00  0.00    +0.000 OA
BRANCH  10  11
ATOM     11  C   UNL     1      48.645   4.603  16.979  0.00  0.00    +0.000 C 
ATOM     12  C   UNL     1      47.208   4.215  17.400  0.00  0.00    +0.000 C 
ATOM     13  C   UNL     1      47.721   2.833  17.821  0.00  0.00    +0.000 C 
ATOM     14  C   UNL     1      49.152   3.391  17.800  0.00  0.00    +0.000 C 
ENDBRANCH  10  11
ENDBRANCH   8  10
ENDBRANCH   2   3
BRANCH   2  15
ATOM     15  C   UNL     1      47.116   8.428  12.474  0.00  0.00    +0.000 C 
BRANCH  15  16
ATOM     16  O   UNL     1      46.135   7.766  13.290  0.00  0.00    +0.000 OA
BRANCH  16  17
ATOM     17  C   UNL     1      45.662   6.571  12.805  0.00  0.00    +0.000 A 
ATOM     18  C   UNL     1      44.850   6.665  11.667  0.00  0.00    +0.000 A 
ATOM     19  C   UNL     1      44.281   5.517  11.087  0.00  0.00    +0.000 A 
ATOM     20  C   UNL     1      44.519   4.254  11.644  0.00  0.00    +0.000 A 
ATOM     21  C   UNL     1      45.343   4.160  12.769  0.00  0.00    +0.000 A 
ATOM     22  C   UNL     1      45.903   5.299  13.334  0.00  0.00    +0.000 A 
ATOM     23  F   UNL     1      46.681   5.120  14.411  0.00  0.00    +0.000 F 
BRANCH  20  24
ATOM     24  C   UNL     1      43.948   2.982  11.120  0.00  0.00    +0.000 C 
ATOM     25  N   UNL     1      44.582   2.345  10.090  0.00  0.00    +0.000 N 
ATOM     26  O   UNL     1      42.917   2.505  11.587  0.00  0.00    +0.000 OA
ATOM     27  H   UNL     1      45.412   2.668   9.624  0.00  0.00    +0.000 HD
ATOM     28  H   UNL     1      44.145   1.496   9.753  0.00  0.00    +0.000 HD
ENDBRANCH  20  24
ENDBRANCH  16  17
ENDBRANCH  15  16
ENDBRANCH   2  15
TORSDOF 7
ENDMDL
