MODEL 1
REMARK VINA RESULT:    -8.167      0.000      0.000
REMARK INTER + INTRA:         -12.201
REMARK INTER:                 -11.032
REMARK INTRA:                  -1.170
REMARK UNBOUND:                -1.170
REMARK  Name = 
REMARK  6 active torsions:
REMARK  status: ('A' for Active; 'I' for Inactive)
REMARK    1  A    between atoms: C_2  and  C_4
REMARK    2  A    between atoms: C_8  and  C_9
REMARK    3  A    between atoms: C_9  and  C_10
REMARK    4  A    between atoms: C_13  and  C_14
REMARK    5  A    between atoms: C_14  and  N_15
REMARK    6  A    between atoms: C_16  and  C_18
REMARK                            x       y       z     vdW  Elec       q    Type
REMARK                         _______ _______ _______ _____ _____    ______ ____
ROOT
ATOM      1  C   UNL     1      44.739   3.719  11.825  0.00  0.00    +0.000 A 
ATOM      2  C   UNL     1      44.639   5.042  12.228  0.00  0.00    +0.000 A 
ATOM      3  C   UNL     1      45.418   5.475  13.294  0.00  0.00    +0.000 A 
ATOM      4  C   UNL     1      46.260   4.565  13.917  0.00  0.00    +0.000 A 
ATOM      5  N   UNL     1      46.304   3.271  13.529  0.00  0.00    +0.000 NA
ATOM      6  N   UNL     1      45.537   2.843  12.482  0.00  0.00    +0.000 NA
ENDROOT
BRANCH   1   7
ATOM      7  C   UNL     1      44.098   3.241  10.545  0.00  0.00    +0.000 C 
BRANCH   7  12
ATOM      8  C   UNL     1      46.429   2.047   7.753  0.00  0.00    +0.000 A 
ATOM      9  C   UNL     1      46.732   3.256   7.115  0.00  0.00    +0.000 A 
ATOM     10  C   UNL     1      46.246   4.456   7.632  0.00  0.00    +0.000 A 
ATOM     11  C   UNL     1      45.440   4.450   8.769  0.00  0.00    +0.000 A 
ATOM     12  C   UNL     1      45.087   3.242   9.395  0.00  0.00    +0.000 A 
ATOM     13  C   UNL     1      45.602   2.041   8.886  0.00  0.00    +0.000 A 
BRANCH   8  15
ATOM     14  N   UNL     1      47.642   0.765   6.071  0.00  0.00    +0.000 N 
ATOM     15  C   UNL     1      46.922   0.744   7.233  0.00  0.00    +0.000 C 
ATOM     16  O   UNL     1      46.724  -0.305   7.833  0.00  0.00    +0.000 OA
ATOM     17  H   UNL     1      48.054  -0.114   5.783  0.00  0.00    +0.000 HD
ATOM     18  H   UNL     1      48.032   1.614   5.688  0.00  0.00    +0.000 HD
ENDBRANCH   8  15
ENDBRANCH   7  12
ENDBRANCH   1   7
BRANCH   4  19
ATOM     19  C   UNL     1      47.210   4.995  14.998  0.00  0.00    +0.000 C 
BRANCH  19  20
ATOM     20  N   UNL     1      47.703   6.340  14.790  0.00  0.00    +0.000 N 
ATOM     21  C   UNL     1      48.901   6.778  15.291  0.00  0.00    +0.000 C 
ATOM     22  O   UNL     1      49.636   6.042  15.946  0.00  0.00    +0.000 OA
ATOM     23  H   UNL     1      47.021   7.016  14.454  0.00  0.00    +0.000 HD
BRANCH  21  24
ATOM     24  C   UNL     1      49.296   8.151  14.948  0.00  0.00    +0.000 A 
ATOM     25  C   UNL     1      49.722   9.013  15.951  0.00  0.00    +0.000 A 
ATOM     26  S   UNL     1      50.195  10.549  15.380  0.00  0.00    +0.000 S 
ATOM     27  C   UNL     1      49.803  10.136  13.778  0.00  0.00    +0.000 A 
ATOM     28  N   UNL     1      49.952  11.035  12.769  0.00  0.00    +0.000 NA
ATOM     29  C   UNL     1      49.583  10.603  11.609  0.00  0.00    +0.000 A 
ATOM     30  N   UNL     1      49.083   9.350  11.367  0.00  0.00    +0.000 N 
ATOM     31  C   UNL     1      48.969   8.389  12.346  0.00  0.00    +0.000 A 
ATOM     32  O   UNL     1      48.611   7.251  12.078  0.00  0.00    +0.000 OA
ATOM     33  C   UNL     1      49.339   8.836  13.674  0.00  0.00    +0.000 A 
ATOM     34  H   UNL     1      48.831   9.065  10.433  0.00  0.00    +0.000 HD
ENDBRANCH  21  24
ENDBRANCH  19  20
ENDBRANCH   4  19
TORSDOF 6
ENDMDL
MODEL 2
REMARK VINA RESULT:    -7.711      3.875      8.628
REMARK INTER + INTRA:         -11.586
REMARK INTER:                 -10.704
REMARK INTRA:                  -0.882
REMARK UNBOUND:                -1.170
REMARK  Name = 
REMARK  6 active torsions:
REMARK  status: ('A' for Active; 'I' for Inactive)
REMARK    1  A    between atoms: C_2  and  C_4
REMARK    2  A    between atoms: C_8  and  C_9
REMARK    3  A    between atoms: C_9  and  C_10
REMARK    4  A    between atoms: C_13  and  C_14
REMARK    5  A    between atoms: C_14  and  N_15
REMARK    6  A    between atoms: C_16  and  C_18
REMARK                            x       y       z     vdW  Elec       q    Type
REMARK                         _______ _______ _______ _____ _____    ______ ____
ROOT
ATOM      1  C   UNL     1      49.823   6.724  16.238  0.00  0.00    +0.000 A 
ATOM      2  C   UNL     1      50.568   7.680  15.563  0.00  0.00    +0.000 A 
ATOM      3  C   UNL     1      50.215   8.003  14.259  0.00  0.00    +0.000 A 
ATOM      4  C   UNL     1      49.134   7.351  13.681  0.00  0.00    +0.000 A 
ATOM      5  N   UNL     1      48.454   6.393  14.349  0.00  0.00    +0.000 NA
ATOM      6  N   UNL     1      48.802   6.074  15.631  0.00  0.00    +0.000 NA
ENDROOT
BRANCH   1   7
ATOM      7  C   UNL     1      50.008   6.491  17.718  0.00  0.00    +0.000 C 
BRANCH   7  12
ATOM      8  C   UNL     1      51.465   2.951  17.753  0.00  0.00    +0.000 A 
ATOM      9  C   UNL     1      52.742   3.188  18.277  0.00  0.00    +0.000 A 
ATOM     10  C   UNL     1      53.099   4.471  18.687  0.00  0.00    +0.000 A 
ATOM     11  C   UNL     1      52.194   5.523  18.552  0.00  0.00    +0.000 A 
ATOM     12  C   UNL     1      50.925   5.314  17.985  0.00  0.00    +0.000 A 
ATOM     13  C   UNL     1      50.563   4.015  17.600  0.00  0.00    +0.000 A 
BRANCH   8  15
ATOM     14  N   UNL     1      51.572   0.524  17.959  0.00  0.00    +0.000 N 
ATOM     15  C   UNL     1      51.044   1.600  17.299  0.00  0.00    +0.000 C 
ATOM     16  O   UNL     1      50.233   1.448  16.394  0.00  0.00    +0.000 OA
ATOM     17  H   UNL     1      51.201  -0.383  17.705  0.00  0.00    +0.000 HD
ATOM     18  H   UNL     1      52.037   0.608  18.851  0.00  0.00    +0.000 HD
ENDBRANCH   8  15
ENDBRANCH   7  12
ENDBRANCH   1   7
BRANCH   4  19
ATOM     19  C   UNL     1      48.632   7.733  12.319  0.00  0.00    +0.000 C 
BRANCH  19  20
ATOM     20  N   UNL     1      47.806   6.700  11.730  0.00  0.00    +0.000 N 
ATOM     21  C   UNL     1      46.461   6.854  11.518  0.00  0.00    +0.000 C 
ATOM     22  O   UNL     1      45.875   7.894  11.812  0.00  0.00    +0.000 OA
ATOM     23  H   UNL     1      48.218   5.771  11.692  0.00  0.00    +0.000 HD
BRANCH  21  24
ATOM     24  C   UNL     1      45.765   5.741  10.858  0.00  0.00    +0.000 A 
ATOM     25  C   UNL     1      45.824   5.620   9.475  0.00  0.00    +0.000 A 
ATOM     26  S   UNL     1      45.011   4.247   8.872  0.00  0.00    +0.000 S 
ATOM     27  C   UNL     1      44.510   3.790  10.432  0.00  0.00    +0.000 A 
ATOM     28  N   UNL     1      43.738   2.686  10.621  0.00  0.00    +0.000 NA
ATOM     29  C   UNL     1      43.398   2.476  11.849  0.00  0.00    +0.000 A 
ATOM     30  N   UNL     1      43.766   3.268  12.907  0.00  0.00    +0.000 N 
ATOM     31  C   UNL     1      44.593   4.360  12.769  0.00  0.00    +0.000 A 
ATOM     32  O   UNL     1      44.981   4.988  13.745  0.00  0.00    +0.000 OA
ATOM     33  C   UNL     1      44.974   4.659  11.403  0.00  0.00    +0.000 A 
ATOM     34  H   UNL     1      43.485   3.038  13.847  0.00  0.00    +0.000 HD
ENDBRANCH  21  24
ENDBRANCH  19  20
ENDBRANCH   4  19
TORSDOF 6
ENDMDL
MODEL 3
REMARK VINA RESULT:    -7.561      4.461      6.109
REMARK INTER + INTRA:         -11.383
REMARK INTER:                 -10.581
REMARK INTRA:                  -0.802
REMARK UNBOUND:                -1.170
REMARK  Name = 
REMARK  6 active torsions:
REMARK  status: ('A' for Active; 'I' for Inactive)
REMARK    1  A    between atoms: C_2  and  C_4
REMARK    2  A    between atoms: C_8  and  C_9
REMARK    3  A    between atoms: C_9  and  C_10
REMARK    4  A    between atoms: C_13  and  C_14
REMARK    5  A    between atoms: C_14  and  N_15
REMARK    6  A    between atoms: C_16  and  C_18
REMARK                            x       y       z     vdW  Elec       q    Type
REMARK                         _______ _______ _______ _____ _____    ______ ____
ROOT
ATOM      1  C   UNL     1      47.354   5.634  13.764  0.00  0.00    +0.000 A 
ATOM      2  C   UNL     1      46.790   4.368  13.818  0.00  0.00    +0.000 A 
ATOM      3  C   UNL     1      46.971   3.606  14.965  0.00  0.00    +0.000 A 
ATOM      4  C   UNL     1      47.714   4.140  16.009  0.00  0.00    +0.000 A 
ATOM      5  N   UNL     1      48.287   5.360  15.910  0.00  0.00    +0.000 NA
ATOM      6  N   UNL     1      48.111   6.110  14.782  0.00  0.00    +0.000 NA
ENDROOT
BRANCH   1   7
ATOM      7  C   UNL     1      47.011   6.596  12.652  0.00  0.00    +0.000 C 
BRANCH   7  12
ATOM      8  C   UNL     1      44.832   4.942   9.974  0.00  0.00    +0.000 A 
ATOM      9  C   UNL     1      43.559   5.063  10.546  0.00  0.00    +0.000 A 
ATOM     10  C   UNL     1      43.400   5.743  11.753  0.00  0.00    +0.000 A 
ATOM     11  C   UNL     1      44.510   6.280  12.401  0.00  0.00    +0.000 A 
ATOM     12  C   UNL     1      45.801   6.128  11.867  0.00  0.00    +0.000 A 
ATOM     13  C   UNL     1      45.950   5.467  10.639  0.00  0.00    +0.000 A 
BRANCH   8  15
ATOM     14  N   UNL     1      44.271   3.120   8.454  0.00  0.00    +0.000 N 
ATOM     15  C   UNL     1      45.047   4.221   8.693  0.00  0.00    +0.000 C 
ATOM     16  O   UNL     1      45.860   4.609   7.864  0.00  0.00    +0.000 OA
ATOM     17  H   UNL     1      44.359   2.700   7.537  0.00  0.00    +0.000 HD
ATOM     18  H   UNL     1      43.436   2.918   8.985  0.00  0.00    +0.000 HD
ENDBRANCH   8  15
ENDBRANCH   7  12
ENDBRANCH   1   7
BRANCH   4  19
ATOM     19  C   UNL     1      47.851   3.416  17.318  0.00  0.00    +0.000 C 
BRANCH  19  20
ATOM     20  N   UNL     1      49.235   3.173  17.666  0.00  0.00    +0.000 N 
ATOM     21  C   UNL     1      50.018   2.258  17.010  0.00  0.00    +0.000 C 
ATOM     22  O   UNL     1      49.585   1.591  16.073  0.00  0.00    +0.000 OA
ATOM     23  H   UNL     1      49.538   3.542  18.564  0.00  0.00    +0.000 HD
BRANCH  21  24
ATOM     24  C   UNL     1      51.421   2.165  17.436  0.00  0.00    +0.000 A 
ATOM     25  C   UNL     1      51.994   0.916  17.639  0.00  0.00    +0.000 A 
ATOM     26  S   UNL     1      53.640   0.980  18.079  0.00  0.00    +0.000 S 
ATOM     27  C   UNL     1      53.636   2.680  18.062  0.00  0.00    +0.000 A 
ATOM     28  N   UNL     1      54.756   3.384  18.380  0.00  0.00    +0.000 NA
ATOM     29  C   UNL     1      54.603   4.666  18.364  0.00  0.00    +0.000 A 
ATOM     30  N   UNL     1      53.432   5.309  18.052  0.00  0.00    +0.000 N 
ATOM     31  C   UNL     1      52.293   4.639  17.668  0.00  0.00    +0.000 A 
ATOM     32  O   UNL     1      51.295   5.244  17.303  0.00  0.00    +0.000 OA
ATOM     33  C   UNL     1      52.402   3.194  17.704  0.00  0.00    +0.000 A 
ATOM     34  H   UNL     1      53.383   6.315  18.036  0.00  0.00    +0.000 HD
ENDBRANCH  21  24
ENDBRANCH  19  20
ENDBRANCH   4  19
TORSDOF 6
ENDMDL
MODEL 4
REMARK VINA RESULT:    -7.543      2.688      3.415
REMARK INTER + INTRA:         -11.359
REMARK INTER:                 -10.760
REMARK INTRA:                  -0.599
REMARK UNBOUND:                -1.170
REMARK  Name = 
REMARK  6 active torsions:
REMARK  status: ('A' for Active; 'I' for Inactive)
REMARK    1  A    between atoms: C_2  and  C_4
REMARK    2  A    between atoms: C_8  and  C_9
REMARK    3  A    between atoms: C_9  and  C_10
REMARK    4  A    between atoms: C_13  and  C_14
REMARK    5  A    between atoms: C_14  and  N_15
REMARK    6  A    between atoms: C_16  and  C_18
REMARK                            x       y       z     vdW  Elec       q    Type
REMARK                         _______ _______ _______ _____ _____    ______ ____
ROOT
ATOM      1  C   UNL     1      45.562   5.434  11.685  0.00  0.00    +0.000 A 
ATOM      2  C   UNL     1      46.695   6.118  12.099  0.00  0.00    +0.000 A 
ATOM      3  C   UNL     1      47.276   5.772  13.313  0.00  0.00    +0.000 A 
ATOM      4  C   UNL     1      46.697   4.760  14.065  0.00  0.00    +0.000 A 
ATOM      5  N   UNL     1      45.567   4.141  13.655  0.00  0.00    +0.000 NA
ATOM      6  N   UNL     1      44.994   4.481  12.462  0.00  0.00    +0.000 NA
ENDROOT
BRANCH   1   7
ATOM      7  C   UNL     1      45.015   5.600  10.288  0.00  0.00    +0.000 C 
BRANCH   7  12
ATOM      8  C   UNL     1      46.258   2.983   7.786  0.00  0.00    +0.000 A 
ATOM      9  C   UNL     1      45.514   1.861   8.175  0.00  0.00    +0.000 A 
ATOM     10  C   UNL     1      44.563   1.973   9.188  0.00  0.00    +0.000 A 
ATOM     11  C   UNL     1      44.370   3.195   9.830  0.00  0.00    +0.000 A 
ATOM     12  C   UNL     1      45.140   4.319   9.487  0.00  0.00    +0.000 A 
ATOM     13  C   UNL     1      46.075   4.206   8.448  0.00  0.00    +0.000 A 
BRANCH   8  15
ATOM     14  N   UNL     1      47.066   3.644   5.583  0.00  0.00    +0.000 N 
ATOM     15  C   UNL     1      47.285   2.907   6.715  0.00  0.00    +0.000 C 
ATOM     16  O   UNL     1      48.304   2.242   6.846  0.00  0.00    +0.000 OA
ATOM     17  H   UNL     1      47.819   3.660   4.907  0.00  0.00    +0.000 HD
ATOM     18  H   UNL     1      46.380   4.383   5.539  0.00  0.00    +0.000 HD
ENDBRANCH   8  15
ENDBRANCH   7  12
ENDBRANCH   1   7
BRANCH   4  19
ATOM     19  C   UNL     1      47.339   4.262  15.327  0.00  0.00    +0.000 C 
BRANCH  19  20
ATOM     20  N   UNL     1      47.370   5.274  16.361  0.00  0.00    +0.000 N 
ATOM     21  C   UNL     1      48.537   5.755  16.896  0.00  0.00    +0.000 C 
ATOM     22  O   UNL     1      49.636   5.355  16.516  0.00  0.00    +0.000 OA
ATOM     23  H   UNL     1      46.489   5.449  16.838  0.00  0.00    +0.000 HD
BRANCH  21  24
ATOM     24  C   UNL     1      48.413   6.825  17.896  0.00  0.00    +0.000 A 
ATOM     25  C   UNL     1      48.441   6.506  19.248  0.00  0.00    +0.000 A 
ATOM     26  S   UNL     1      48.339   7.864  20.275  0.00  0.00    +0.000 S 
ATOM     27  C   UNL     1      48.206   8.924  18.952  0.00  0.00    +0.000 A 
ATOM     28  N   UNL     1      48.060  10.263  19.142  0.00  0.00    +0.000 NA
ATOM     29  C   UNL     1      47.933  10.947  18.054  0.00  0.00    +0.000 A 
ATOM     30  N   UNL     1      47.944  10.412  16.791  0.00  0.00    +0.000 N 
ATOM     31  C   UNL     1      48.147   9.073  16.550  0.00  0.00    +0.000 A 
ATOM     32  O   UNL     1      48.249   8.643  15.409  0.00  0.00    +0.000 OA
ATOM     33  C   UNL     1      48.261   8.256  17.742  0.00  0.00    +0.000 A 
ATOM     34  H   UNL     1      47.861  11.003  15.979  0.00  0.00    +0.000 HD
ENDBRANCH  21  24
ENDBRANCH  19  20
ENDBRANCH   4  19
TORSDOF 6
ENDMDL
MODEL 5
REMARK VINA RESULT:    -7.518      3.286      8.189
REMARK INTER + INTRA:         -11.324
REMARK INTER:                 -10.120
REMARK INTRA:                  -1.204
REMARK UNBOUND:                -1.170
REMARK  Name = 
REMARK  6 active torsions:
REMARK  status: ('A' for Active; 'I' for Inactive)
REMARK    1  A    between atoms: C_2  and  C_4
REMARK    2  A    between atoms: C_8  and  C_9
REMARK    3  A    between atoms: C_9  and  C_10
REMARK    4  A    between atoms: C_13  and  C_14
REMARK    5  A    between atoms: C_14  and  N_15
REMARK    6  A    between atoms: C_16  and  C_18
REMARK                            x       y       z     vdW  Elec       q    Type
REMARK                         _______ _______ _______ _____ _____    ______ ____
ROOT
ATOM      1  C   UNL     1      49.679   7.839  15.533  0.00  0.00    +0.000 A 
ATOM      2  C   UNL     1      48.492   8.554  15.481  0.00  0.00    +0.000 A 
ATOM      3  C   UNL     1      47.814   8.635  14.271  0.00  0.00    +0.000 A 
ATOM      4  C   UNL     1      48.355   8.002  13.161  0.00  0.00    +0.000 A 
ATOM      5  N   UNL     1      49.536   7.348  13.233  0.00  0.00    +0.000 NA
ATOM      6  N   UNL     1      50.204   7.269  14.422  0.00  0.00    +0.000 NA
ENDROOT
BRANCH   1   7
ATOM      7  C   UNL     1      50.344   7.523  16.850  0.00  0.00    +0.000 C 
BRANCH   7  12
ATOM      8  C   UNL     1      48.981   3.956  17.124  0.00  0.00    +0.000 A 
ATOM      9  C   UNL     1      50.095   3.278  17.636  0.00  0.00    +0.000 A 
ATOM     10  C   UNL     1      51.251   3.985  17.961  0.00  0.00    +0.000 A 
ATOM     11  C   UNL     1      51.307   5.362  17.755  0.00  0.00    +0.000 A 
ATOM     12  C   UNL     1      50.217   6.052  17.198  0.00  0.00    +0.000 A 
ATOM     13  C   UNL     1      49.047   5.339  16.899  0.00  0.00    +0.000 A 
BRANCH   8  15
ATOM     14  N   UNL     1      46.970   2.746  17.782  0.00  0.00    +0.000 N 
ATOM     15  C   UNL     1      47.731   3.241  16.759  0.00  0.00    +0.000 C 
ATOM     16  O   UNL     1      47.372   3.125  15.594  0.00  0.00    +0.000 OA
ATOM     17  H   UNL     1      46.074   2.350  17.524  0.00  0.00    +0.000 HD
ATOM     18  H   UNL     1      47.097   3.031  18.742  0.00  0.00    +0.000 HD
ENDBRANCH   8  15
ENDBRANCH   7  12
ENDBRANCH   1   7
BRANCH   4  19
ATOM     19  C   UNL     1      47.618   7.955  11.854  0.00  0.00    +0.000 C 
BRANCH  19  20
ATOM     20  N   UNL     1      46.907   6.708  11.671  0.00  0.00    +0.000 N 
ATOM     21  C   UNL     1      45.598   6.537  12.039  0.00  0.00    +0.000 C 
ATOM     22  O   UNL     1      44.944   7.448  12.544  0.00  0.00    +0.000 OA
ATOM     23  H   UNL     1      47.483   5.894  11.470  0.00  0.00    +0.000 HD
BRANCH  21  24
ATOM     24  C   UNL     1      44.992   5.233  11.737  0.00  0.00    +0.000 A 
ATOM     25  C   UNL     1      44.294   4.555  12.728  0.00  0.00    +0.000 A 
ATOM     26  S   UNL     1      43.609   3.085  12.201  0.00  0.00    +0.000 S 
ATOM     27  C   UNL     1      44.260   3.276  10.642  0.00  0.00    +0.000 A 
ATOM     28  N   UNL     1      44.064   2.332   9.682  0.00  0.00    +0.000 NA
ATOM     29  C   UNL     1      44.645   2.585   8.557  0.00  0.00    +0.000 A 
ATOM     30  N   UNL     1      45.399   3.701   8.302  0.00  0.00    +0.000 N 
ATOM     31  C   UNL     1      45.576   4.709   9.223  0.00  0.00    +0.000 A 
ATOM     32  O   UNL     1      46.173   5.736   8.932  0.00  0.00    +0.000 OA
ATOM     33  C   UNL     1      44.972   4.456  10.516  0.00  0.00    +0.000 A 
ATOM     34  H   UNL     1      45.810   3.852   7.394  0.00  0.00    +0.000 HD
ENDBRANCH  21  24
ENDBRANCH  19  20
ENDBRANCH   4  19
TORSDOF 6
ENDMDL
MODEL 6
REMARK VINA RESULT:    -7.382      2.686      4.519
REMARK INTER + INTRA:         -11.140
REMARK INTER:                 -10.109
REMARK INTRA:                  -1.031
REMARK UNBOUND:                -1.170
REMARK  Name = 
REMARK  6 active torsions:
REMARK  status: ('A' for Active; 'I' for Inactive)
REMARK    1  A    between atoms: C_2  and  C_4
REMARK    2  A    between atoms: C_8  and  C_9
REMARK    3  A    between atoms: C_9  and  C_10
REMARK    4  A    between atoms: C_13  and  C_14
REMARK    5  A    between atoms: C_14  and  N_15
REMARK    6  A    between atoms: C_16  and  C_18
REMARK                            x       y       z     vdW  Elec       q    Type
REMARK                         _______ _______ _______ _____ _____    ______ ____
ROOT
ATOM      1  C   UNL     1      44.974   6.411  11.344  0.00  0.00    +0.000 A 
ATOM      2  C   UNL     1      46.090   5.709  11.777  0.00  0.00    +0.000 A 
ATOM      3  C   UNL     1      47.040   6.373  12.543  0.00  0.00    +0.000 A 
ATOM      4  C   UNL     1      46.837   7.714  12.840  0.00  0.00    +0.000 A 
ATOM      5  N   UNL     1      45.760   8.382  12.368  0.00  0.00    +0.000 NA
ATOM      6  N   UNL     1      44.827   7.730  11.613  0.00  0.00    +0.000 NA
ENDROOT
BRANCH   1   7
ATOM      7  C   UNL     1      43.804   5.702  10.707  0.00  0.00    +0.000 C 
BRANCH   7  12
ATOM      8  C   UNL     1      45.592   3.220   8.406  0.00  0.00    +0.000 A 
ATOM      9  C   UNL     1      45.198   1.997   8.966  0.00  0.00    +0.000 A 
ATOM     10  C   UNL     1      44.300   1.978  10.031  0.00  0.00    +0.000 A 
ATOM     11  C   UNL     1      43.813   3.174  10.555  0.00  0.00    +0.000 A 
ATOM     12  C   UNL     1      44.233   4.411  10.037  0.00  0.00    +0.000 A 
ATOM     13  C   UNL     1      45.116   4.423   8.947  0.00  0.00    +0.000 A 
BRANCH   8  15
ATOM     14  N   UNL     1      47.452   2.265   7.152  0.00  0.00    +0.000 N 
ATOM     15  C   UNL     1      46.552   3.287   7.273  0.00  0.00    +0.000 C 
ATOM     16  O   UNL     1      46.522   4.200   6.458  0.00  0.00    +0.000 OA
ATOM     17  H   UNL     1      48.031   2.274   6.321  0.00  0.00    +0.000 HD
ATOM     18  H   UNL     1      47.349   1.388   7.643  0.00  0.00    +0.000 HD
ENDBRANCH   8  15
ENDBRANCH   7  12
ENDBRANCH   1   7
BRANCH   4  19
ATOM     19  C   UNL     1      47.765   8.458  13.756  0.00  0.00    +0.000 C 
BRANCH  19  20
ATOM     20  N   UNL     1      48.093   7.694  14.941  0.00  0.00    +0.000 N 
ATOM     21  C   UNL     1      49.353   7.219  15.195  0.00  0.00    +0.000 C 
ATOM     22  O   UNL     1      50.289   7.425  14.425  0.00  0.00    +0.000 OA
ATOM     23  H   UNL     1      47.302   7.327  15.465  0.00  0.00    +0.000 HD
BRANCH  21  24
ATOM     24  C   UNL     1      49.548   6.512  16.468  0.00  0.00    +0.000 A 
ATOM     25  C   UNL     1      50.425   7.029  17.413  0.00  0.00    +0.000 A 
ATOM     26  S   UNL     1      50.496   6.119  18.854  0.00  0.00    +0.000 S 
ATOM     27  C   UNL     1      49.393   4.974  18.250  0.00  0.00    +0.000 A 
ATOM     28  N   UNL     1      49.032   3.893  18.993  0.00  0.00    +0.000 NA
ATOM     29  C   UNL     1      48.218   3.085  18.400  0.00  0.00    +0.000 A 
ATOM     30  N   UNL     1      47.727   3.263  17.132  0.00  0.00    +0.000 N 
ATOM     31  C   UNL     1      48.019   4.370  16.368  0.00  0.00    +0.000 A 
ATOM     32  O   UNL     1      47.489   4.546  15.279  0.00  0.00    +0.000 OA
ATOM     33  C   UNL     1      48.958   5.292  16.976  0.00  0.00    +0.000 A 
ATOM     34  H   UNL     1      47.076   2.605  16.732  0.00  0.00    +0.000 HD
ENDBRANCH  21  24
ENDBRANCH  19  20
ENDBRANCH   4  19
TORSDOF 6
ENDMDL
MODEL 7
REMARK VINA RESULT:    -7.377      3.089      4.770
REMARK INTER + INTRA:         -11.134
REMARK INTER:                 -10.275
REMARK INTRA:                  -0.859
REMARK UNBOUND:                -1.170
REMARK  Name = 
REMARK  6 active torsions:
REMARK  status: ('A' for Active; 'I' for Inactive)
REMARK    1  A    between atoms: C_2  and  C_4
REMARK    2  A    between atoms: C_8  and  C_9
REMARK    3  A    between atoms: C_9  and  C_10
REMARK    4  A    between atoms: C_13  and  C_14
REMARK    5  A    between atoms: C_14  and  N_15
REMARK    6  A    between atoms: C_16  and  C_18
REMARK                            x       y       z     vdW  Elec       q    Type
REMARK                         _______ _______ _______ _____ _____    ______ ____
ROOT
ATOM      1  C   UNL     1      45.053   5.711  11.552  0.00  0.00    +0.000 A 
ATOM      2  C   UNL     1      45.741   6.888  11.296  0.00  0.00    +0.000 A 
ATOM      3  C   UNL     1      46.853   7.193  12.071  0.00  0.00    +0.000 A 
ATOM      4  C   UNL     1      47.227   6.310  13.074  0.00  0.00    +0.000 A 
ATOM      5  N   UNL     1      46.511   5.192  13.328  0.00  0.00    +0.000 NA
ATOM      6  N   UNL     1      45.417   4.892  12.568  0.00  0.00    +0.000 NA
ENDROOT
BRANCH   1   7
ATOM      7  C   UNL     1      43.983   5.211  10.612  0.00  0.00    +0.000 C 
BRANCH   7  12
ATOM      8  C   UNL     1      45.910   3.187   7.996  0.00  0.00    +0.000 A 
ATOM      9  C   UNL     1      45.577   1.878   8.365  0.00  0.00    +0.000 A 
ATOM     10  C   UNL     1      44.676   1.656   9.405  0.00  0.00    +0.000 A 
ATOM     11  C   UNL     1      44.125   2.736  10.092  0.00  0.00    +0.000 A 
ATOM     12  C   UNL     1      44.483   4.056   9.766  0.00  0.00    +0.000 A 
ATOM     13  C   UNL     1      45.369   4.272   8.701  0.00  0.00    +0.000 A 
BRANCH   8  15
ATOM     14  N   UNL     1      48.041   2.761   6.890  0.00  0.00    +0.000 N 
ATOM     15  C   UNL     1      46.870   3.469   6.897  0.00  0.00    +0.000 C 
ATOM     16  O   UNL     1      46.617   4.276   6.011  0.00  0.00    +0.000 OA
ATOM     17  H   UNL     1      48.638   2.892   6.083  0.00  0.00    +0.000 HD
ATOM     18  H   UNL     1      48.176   1.928   7.444  0.00  0.00    +0.000 HD
ENDBRANCH   8  15
ENDBRANCH   7  12
ENDBRANCH   1   7
BRANCH   4  19
ATOM     19  C   UNL     1      48.482   6.524  13.871  0.00  0.00    +0.000 C 
BRANCH  19  20
ATOM     20  N   UNL     1      48.215   6.660  15.287  0.00  0.00    +0.000 N 
ATOM     21  C   UNL     1      49.196   6.575  16.240  0.00  0.00    +0.000 C 
ATOM     22  O   UNL     1      50.373   6.386  15.942  0.00  0.00    +0.000 OA
ATOM     23  H   UNL     1      47.238   6.590  15.563  0.00  0.00    +0.000 HD
BRANCH  21  24
ATOM     24  C   UNL     1      48.782   6.793  17.634  0.00  0.00    +0.000 A 
ATOM     25  C   UNL     1      48.342   8.050  18.030  0.00  0.00    +0.000 A 
ATOM     26  S   UNL     1      47.849   8.121  19.661  0.00  0.00    +0.000 S 
ATOM     27  C   UNL     1      48.251   6.488  19.912  0.00  0.00    +0.000 A 
ATOM     28  N   UNL     1      48.092   5.910  21.133  0.00  0.00    +0.000 NA
ATOM     29  C   UNL     1      48.471   4.677  21.193  0.00  0.00    +0.000 A 
ATOM     30  N   UNL     1      48.989   3.967  20.140  0.00  0.00    +0.000 N 
ATOM     31  C   UNL     1      49.113   4.494  18.874  0.00  0.00    +0.000 A 
ATOM     32  O   UNL     1      49.488   3.805  17.935  0.00  0.00    +0.000 OA
ATOM     33  C   UNL     1      48.733   5.888  18.762  0.00  0.00    +0.000 A 
ATOM     34  H   UNL     1      49.247   2.998  20.245  0.00  0.00    +0.000 HD
ENDBRANCH  21  24
ENDBRANCH  19  20
ENDBRANCH   4  19
TORSDOF 6
ENDMDL
MODEL 8
REMARK VINA RESULT:    -7.345      4.480      9.570
REMARK INTER + INTRA:         -11.091
REMARK INTER:                 -10.407
REMARK INTRA:                  -0.684
REMARK UNBOUND:                -1.170
REMARK  Name = 
REMARK  6 active torsions:
REMARK  status: ('A' for Active; 'I' for Inactive)
REMARK    1  A    between atoms: C_2  and  C_4
REMARK    2  A    between atoms: C_8  and  C_9
REMARK    3  A    between atoms: C_9  and  C_10
REMARK    4  A    between atoms: C_13  and  C_14
REMARK    5  A    between atoms: C_14  and  N_15
REMARK    6  A    between atoms: C_16  and  C_18
REMARK                            x       y       z     vdW  Elec       q    Type
REMARK                         _______ _______ _______ _____ _____    ______ ____
ROOT
ATOM      1  C   UNL     1      48.144   5.672  20.112  0.00  0.00    +0.000 A 
ATOM      2  C   UNL     1      49.155   4.848  19.641  0.00  0.00    +0.000 A 
ATOM      3  C   UNL     1      48.941   4.131  18.471  0.00  0.00    +0.000 A 
ATOM      4  C   UNL     1      47.721   4.264  17.822  0.00  0.00    +0.000 A 
ATOM      5  N   UNL     1      46.739   5.042  18.329  0.00  0.00    +0.000 NA
ATOM      6  N   UNL     1      46.948   5.746  19.481  0.00  0.00    +0.000 NA
ENDROOT
BRANCH   1   7
ATOM      7  C   UNL     1      48.389   6.643  21.241  0.00  0.00    +0.000 C 
BRANCH   7  12
ATOM      8  C   UNL     1      47.431   9.825  19.342  0.00  0.00    +0.000 A 
ATOM      9  C   UNL     1      46.602  10.460  20.275  0.00  0.00    +0.000 A 
ATOM     10  C   UNL     1      46.417   9.898  21.537  0.00  0.00    +0.000 A 
ATOM     11  C   UNL     1      47.038   8.693  21.862  0.00  0.00    +0.000 A 
ATOM     12  C   UNL     1      47.836   8.018  20.922  0.00  0.00    +0.000 A 
ATOM     13  C   UNL     1      48.039   8.603  19.664  0.00  0.00    +0.000 A 
BRANCH   8  15
ATOM     14  N   UNL     1      47.641   9.510  16.933  0.00  0.00    +0.000 N 
ATOM     15  C   UNL     1      47.652  10.386  17.983  0.00  0.00    +0.000 C 
ATOM     16  O   UNL     1      47.804  11.587  17.799  0.00  0.00    +0.000 OA
ATOM     17  H   UNL     1      47.693   9.918  16.008  0.00  0.00    +0.000 HD
ATOM     18  H   UNL     1      47.278   8.571  17.012  0.00  0.00    +0.000 HD
ENDBRANCH   8  15
ENDBRANCH   7  12
ENDBRANCH   1   7
BRANCH   4  19
ATOM     19  C   UNL     1      47.468   3.607  16.496  0.00  0.00    +0.000 C 
BRANCH  19  20
ATOM     20  N   UNL     1      46.894   4.521  15.533  0.00  0.00    +0.000 N 
ATOM     21  C   UNL     1      46.786   4.225  14.199  0.00  0.00    +0.000 C 
ATOM     22  O   UNL     1      47.168   3.150  13.742  0.00  0.00    +0.000 OA
ATOM     23  H   UNL     1      46.784   5.483  15.845  0.00  0.00    +0.000 HD
BRANCH  21  24
ATOM     24  C   UNL     1      46.127   5.229  13.352  0.00  0.00    +0.000 A 
ATOM     25  C   UNL     1      46.785   6.416  13.057  0.00  0.00    +0.000 A 
ATOM     26  S   UNL     1      45.908   7.448  12.021  0.00  0.00    +0.000 S 
ATOM     27  C   UNL     1      44.595   6.368  11.966  0.00  0.00    +0.000 A 
ATOM     28  N   UNL     1      43.474   6.667  11.255  0.00  0.00    +0.000 NA
ATOM     29  C   UNL     1      42.541   5.777  11.330  0.00  0.00    +0.000 A 
ATOM     30  N   UNL     1      42.630   4.612  12.048  0.00  0.00    +0.000 N 
ATOM     31  C   UNL     1      43.765   4.243  12.734  0.00  0.00    +0.000 A 
ATOM     32  O   UNL     1      43.846   3.153  13.284  0.00  0.00    +0.000 OA
ATOM     33  C   UNL     1      44.831   5.225  12.709  0.00  0.00    +0.000 A 
ATOM     34  H   UNL     1      41.873   3.946  12.050  0.00  0.00    +0.000 HD
ENDBRANCH  21  24
ENDBRANCH  19  20
ENDBRANCH   4  19
TORSDOF 6
ENDMDL
MODEL 9
REMARK VINA RESULT:    -7.334      3.924      8.073
REMARK INTER + INTRA:         -11.076
REMARK INTER:                  -9.303
REMARK INTRA:                  -1.773
REMARK UNBOUND:                -1.170
REMARK  Name = 
REMARK  6 active torsions:
REMARK  status: ('A' for Active; 'I' for Inactive)
REMARK    1  A    between atoms: C_2  and  C_4
REMARK    2  A    between atoms: C_8  and  C_9
REMARK    3  A    between atoms: C_9  and  C_10
REMARK    4  A    between atoms: C_13  and  C_14
REMARK    5  A    between atoms: C_14  and  N_15
REMARK    6  A    between atoms: C_16  and  C_18
REMARK                            x       y       z     vdW  Elec       q    Type
REMARK                         _______ _______ _______ _____ _____    ______ ____
ROOT
ATOM      1  C   UNL     1      49.848   7.179  18.913  0.00  0.00    +0.000 A 
ATOM      2  C   UNL     1      48.562   7.668  19.091  0.00  0.00    +0.000 A 
ATOM      3  C   UNL     1      48.029   8.512  18.125  0.00  0.00    +0.000 A 
ATOM      4  C   UNL     1      48.807   8.837  17.023  0.00  0.00    +0.000 A 
ATOM      5  N   UNL     1      50.073   8.379  16.898  0.00  0.00    +0.000 NA
ATOM      6  N   UNL     1      50.598   7.550  17.848  0.00  0.00    +0.000 NA
ENDROOT
BRANCH   1   7
ATOM      7  C   UNL     1      50.399   6.089  19.799  0.00  0.00    +0.000 C 
BRANCH   7  12
ATOM      8  C   UNL     1      49.825   3.083  17.500  0.00  0.00    +0.000 A 
ATOM      9  C   UNL     1      51.120   2.556  17.413  0.00  0.00    +0.000 A 
ATOM     10  C   UNL     1      52.154   3.125  18.153  0.00  0.00    +0.000 A 
ATOM     11  C   UNL     1      51.905   4.232  18.962  0.00  0.00    +0.000 A 
ATOM     12  C   UNL     1      50.622   4.804  19.026  0.00  0.00    +0.000 A 
ATOM     13  C   UNL     1      49.581   4.209  18.300  0.00  0.00    +0.000 A 
BRANCH   8  15
ATOM     14  N   UNL     1      47.437   2.957  17.025  0.00  0.00    +0.000 N 
ATOM     15  C   UNL     1      48.694   2.510  16.724  0.00  0.00    +0.000 C 
ATOM     16  O   UNL     1      48.875   1.697  15.827  0.00  0.00    +0.000 OA
ATOM     17  H   UNL     1      46.690   2.633  16.423  0.00  0.00    +0.000 HD
ATOM     18  H   UNL     1      47.272   3.790  17.571  0.00  0.00    +0.000 HD
ENDBRANCH   8  15
ENDBRANCH   7  12
ENDBRANCH   1   7
BRANCH   4  19
ATOM     19  C   UNL     1      48.252   9.651  15.890  0.00  0.00    +0.000 C 
BRANCH  19  20
ATOM     20  N   UNL     1      47.366   8.879  15.045  0.00  0.00    +0.000 N 
ATOM     21  C   UNL     1      47.768   8.321  13.859  0.00  0.00    +0.000 C 
ATOM     22  O   UNL     1      48.920   8.438  13.447  0.00  0.00    +0.000 OA
ATOM     23  H   UNL     1      46.373   8.961  15.251  0.00  0.00    +0.000 HD
BRANCH  21  24
ATOM     24  C   UNL     1      46.773   7.514  13.139  0.00  0.00    +0.000 A 
ATOM     25  C   UNL     1      45.898   8.133  12.256  0.00  0.00    +0.000 A 
ATOM     26  S   UNL     1      44.844   7.052  11.463  0.00  0.00    +0.000 S 
ATOM     27  C   UNL     1      45.486   5.721  12.306  0.00  0.00    +0.000 A 
ATOM     28  N   UNL     1      44.997   4.468  12.108  0.00  0.00    +0.000 NA
ATOM     29  C   UNL     1      45.549   3.557  12.839  0.00  0.00    +0.000 A 
ATOM     30  N   UNL     1      46.550   3.787  13.747  0.00  0.00    +0.000 N 
ATOM     31  C   UNL     1      47.115   5.028  13.937  0.00  0.00    +0.000 A 
ATOM     32  O   UNL     1      48.072   5.181  14.684  0.00  0.00    +0.000 OA
ATOM     33  C   UNL     1      46.506   6.092  13.164  0.00  0.00    +0.000 A 
ATOM     34  H   UNL     1      46.955   3.029  14.273  0.00  0.00    +0.000 HD
ENDBRANCH  21  24
ENDBRANCH  19  20
ENDBRANCH   4  19
TORSDOF 6
ENDMDL
