MODEL 1
REMARK VINA RESULT:    -7.497      0.000      0.000
REMARK INTER + INTRA:         -12.690
REMARK INTER:                 -11.441
REMARK INTRA:                  -1.249
REMARK UNBOUND:                -1.249
REMARK  Name = 
REMARK  10 active torsions:
REMARK  status: ('A' for Active; 'I' for Inactive)
REMARK    1  A    between atoms: C_1  and  C_2
REMARK    2  A    between atoms: C_2  and  C_3
REMARK    3  A    between atoms: C_3  and  C_4
REMARK    4  A    between atoms: C_4  and  C_5
REMARK    5  A    between atoms: C_7  and  C_8
REMARK    6  A    between atoms: C_8  and  C_9
REMARK    7  A    between atoms: C_9  and  C_10
REMARK    8  A    between atoms: C_13  and  C_14
REMARK    9  A    between atoms: C_20  and  S_21
REMARK   10  A    between atoms: S_21  and  C_22
REMARK                            x       y       z     vdW  Elec       q    Type
REMARK                         _______ _______ _______ _____ _____    ______ ____
ROOT
ATOM      1  C   UNL     1      46.688   4.591  13.507  0.00  0.00    +0.000 A 
ATOM      2  C   UNL     1      45.576   4.350  12.694  0.00  0.00    +0.000 A 
ATOM      3  C   UNL     1      45.275   5.186  11.614  0.00  0.00    +0.000 A 
ATOM      4  C   UNL     1      46.144   6.246  11.328  0.00  0.00    +0.000 A 
ATOM      5  C   UNL     1      47.181   6.586  12.194  0.00  0.00    +0.000 A 
ATOM      6  C   UNL     1      47.475   5.726  13.258  0.00  0.00    +0.000 A 
ENDROOT
BRANCH   1   7
ATOM      7  C   UNL     1      47.029   3.619  14.611  0.00  0.00    +0.000 C 
BRANCH   7   8
ATOM      8  C   UNL     1      47.393   4.316  15.919  0.00  0.00    +0.000 C 
BRANCH   8  10
ATOM      9  C   UNL     1      48.253   3.797  18.215  0.00  0.00    +0.000 C 
ATOM     10  C   UNL     1      47.310   3.359  17.107  0.00  0.00    +0.000 C 
ENDBRANCH   8  10
ENDBRANCH   7   8
ENDBRANCH   1   7
BRANCH   3  11
ATOM     11  C   UNL     1      44.050   4.988  10.752  0.00  0.00    +0.000 C 
BRANCH  11  12
ATOM     12  C   UNL     1      43.852   3.526  10.336  0.00  0.00    +0.000 C 
BRANCH  12  13
ATOM     13  C   UNL     1      44.803   3.094   9.255  0.00  0.00    +0.000 A 
ATOM     14  C   UNL     1      45.293   4.013   8.323  0.00  0.00    +0.000 A 
ATOM     15  C   UNL     1      46.214   3.598   7.368  0.00  0.00    +0.000 A 
ATOM     16  C   UNL     1      46.608   2.268   7.377  0.00  0.00    +0.000 A 
ATOM     17  N   UNL     1      46.143   1.339   8.254  0.00  0.00    +0.000 NA
ATOM     18  C   UNL     1      45.250   1.778   9.172  0.00  0.00    +0.000 A 
BRANCH  16  19
ATOM     19  C   UNL     1      47.622   1.796   6.380  0.00  0.00    +0.000 C 
ATOM     20  N   UNL     1      48.738   2.582   6.265  0.00  0.00    +0.000 N 
ATOM     21  O   UNL     1      47.476   0.784   5.715  0.00  0.00    +0.000 OA
ATOM     22  H   UNL     1      48.813   3.421   6.840  0.00  0.00    +0.000 HD
ATOM     23  H   UNL     1      49.460   2.338   5.611  0.00  0.00    +0.000 HD
ENDBRANCH  16  19
ENDBRANCH  12  13
ENDBRANCH  11  12
ENDBRANCH   3  11
BRANCH   5  24
ATOM     24  S   UNL     1      48.187   8.034  11.940  0.00  0.00    +0.000 S 
BRANCH  24  25
ATOM     25  C   UNL     1      47.228   9.433  12.687  0.00  0.00    +0.000 C 
ATOM     26  C   UNL     1      45.750   9.191  12.949  0.00  0.00    +0.000 C 
ATOM     27  C   UNL     1      45.031   9.949  11.850  0.00  0.00    +0.000 C 
ATOM     28  N   UNL     1      45.902  11.058  11.451  0.00  0.00    +0.000 NA
ATOM     29  C   UNL     1      47.262  10.764  11.941  0.00  0.00    +0.000 C 
ATOM     30  H   UNL     1      45.574  11.922  11.884  0.00  0.00    +0.000 HD
ENDBRANCH  24  25
ENDBRANCH   5  24
TORSDOF 9
ENDMDL
MODEL 2
REMARK VINA RESULT:    -7.229      2.507      4.734
REMARK INTER + INTRA:         -12.281
REMARK INTER:                 -11.104
REMARK INTRA:                  -1.177
REMARK UNBOUND:                -1.249
REMARK  Name = 
REMARK  10 active torsions:
REMARK  status: ('A' for Active; 'I' for Inactive)
REMARK    1  A    between atoms: C_1  and  C_2
REMARK    2  A    between atoms: C_2  and  C_3
REMARK    3  A    between atoms: C_3  and  C_4
REMARK    4  A    between atoms: C_4  and  C_5
REMARK    5  A    between atoms: C_7  and  C_8
REMARK    6  A    between atoms: C_8  and  C_9
REMARK    7  A    between atoms: C_9  and  C_10
REMARK    8  A    between atoms: C_13  and  C_14
REMARK    9  A    between atoms: C_20  and  S_21
REMARK   10  A    between atoms: S_21  and  C_22
REMARK                            x       y       z     vdW  Elec       q    Type
REMARK                         _______ _______ _______ _____ _____    ______ ____
ROOT
ATOM      1  C   UNL     1      46.899   7.161  12.734  0.00  0.00    +0.000 A 
ATOM      2  C   UNL     1      45.880   6.917  11.807  0.00  0.00    +0.000 A 
ATOM      3  C   UNL     1      45.251   5.669  11.735  0.00  0.00    +0.000 A 
ATOM      4  C   UNL     1      45.628   4.678  12.649  0.00  0.00    +0.000 A 
ATOM      5  C   UNL     1      46.724   4.849  13.493  0.00  0.00    +0.000 A 
ATOM      6  C   UNL     1      47.327   6.110  13.561  0.00  0.00    +0.000 A 
ENDROOT
BRANCH   1   7
ATOM      7  C   UNL     1      47.495   8.544  12.840  0.00  0.00    +0.000 C 
BRANCH   7   8
ATOM      8  C   UNL     1      48.531   8.824  11.755  0.00  0.00    +0.000 C 
BRANCH   8  10
ATOM      9  C   UNL     1      50.679   7.679  11.156  0.00  0.00    +0.000 C 
ATOM     10  C   UNL     1      49.942   8.471  12.223  0.00  0.00    +0.000 C 
ENDBRANCH   8  10
ENDBRANCH   7   8
ENDBRANCH   1   7
BRANCH   3  11
ATOM     11  C   UNL     1      44.188   5.355  10.709  0.00  0.00    +0.000 C 
BRANCH  11  12
ATOM     12  C   UNL     1      44.040   3.850  10.456  0.00  0.00    +0.000 C 
BRANCH  12  13
ATOM     13  C   UNL     1      44.927   3.354   9.349  0.00  0.00    +0.000 A 
ATOM     14  C   UNL     1      45.510   4.248   8.444  0.00  0.00    +0.000 A 
ATOM     15  C   UNL     1      46.369   3.768   7.463  0.00  0.00    +0.000 A 
ATOM     16  C   UNL     1      46.612   2.403   7.419  0.00  0.00    +0.000 A 
ATOM     17  N   UNL     1      46.053   1.500   8.268  0.00  0.00    +0.000 NA
ATOM     18  C   UNL     1      45.223   2.001   9.213  0.00  0.00    +0.000 A 
BRANCH  16  19
ATOM     19  C   UNL     1      47.558   1.857   6.393  0.00  0.00    +0.000 C 
ATOM     20  N   UNL     1      48.756   2.515   6.297  0.00  0.00    +0.000 N 
ATOM     21  O   UNL     1      47.292   0.896   5.691  0.00  0.00    +0.000 OA
ATOM     22  H   UNL     1      48.931   3.316   6.903  0.00  0.00    +0.000 HD
ATOM     23  H   UNL     1      49.441   2.216   5.625  0.00  0.00    +0.000 HD
ENDBRANCH  16  19
ENDBRANCH  12  13
ENDBRANCH  11  12
ENDBRANCH   3  11
BRANCH   5  24
ATOM     24  S   UNL     1      47.327   3.538  14.536  0.00  0.00    +0.000 S 
BRANCH  24  25
ATOM     25  C   UNL     1      47.310   4.233  16.254  0.00  0.00    +0.000 C 
ATOM     26  C   UNL     1      48.454   5.160  16.633  0.00  0.00    +0.000 C 
ATOM     27  C   UNL     1      49.356   4.324  17.521  0.00  0.00    +0.000 C 
ATOM     28  N   UNL     1      48.510   3.314  18.164  0.00  0.00    +0.000 NA
ATOM     29  C   UNL     1      47.250   3.227  17.401  0.00  0.00    +0.000 C 
ATOM     30  H   UNL     1      48.299   3.605  19.119  0.00  0.00    +0.000 HD
ENDBRANCH  24  25
ENDBRANCH   5  24
TORSDOF 9
ENDMDL
MODEL 3
REMARK VINA RESULT:    -7.066      1.468      1.939
REMARK INTER + INTRA:         -12.033
REMARK INTER:                 -10.782
REMARK INTRA:                  -1.251
REMARK UNBOUND:                -1.249
REMARK  Name = 
REMARK  10 active torsions:
REMARK  status: ('A' for Active; 'I' for Inactive)
REMARK    1  A    between atoms: C_1  and  C_2
REMARK    2  A    between atoms: C_2  and  C_3
REMARK    3  A    between atoms: C_3  and  C_4
REMARK    4  A    between atoms: C_4  and  C_5
REMARK    5  A    between atoms: C_7  and  C_8
REMARK    6  A    between atoms: C_8  and  C_9
REMARK    7  A    between atoms: C_9  and  C_10
REMARK    8  A    between atoms: C_13  and  C_14
REMARK    9  A    between atoms: C_20  and  S_21
REMARK   10  A    between atoms: S_21  and  C_22
REMARK                            x       y       z     vdW  Elec       q    Type
REMARK                         _______ _______ _______ _____ _____    ______ ____
ROOT
ATOM      1  C   UNL     1      46.895   4.822  13.844  0.00  0.00    +0.000 A 
ATOM      2  C   UNL     1      45.712   4.681  13.111  0.00  0.00    +0.000 A 
ATOM      3  C   UNL     1      45.492   5.421  11.945  0.00  0.00    +0.000 A 
ATOM      4  C   UNL     1      46.506   6.275  11.494  0.00  0.00    +0.000 A 
ATOM      5  C   UNL     1      47.634   6.532  12.270  0.00  0.00    +0.000 A 
ATOM      6  C   UNL     1      47.843   5.768  13.424  0.00  0.00    +0.000 A 
ENDROOT
BRANCH   1   7
ATOM      7  C   UNL     1      47.134   3.945  15.050  0.00  0.00    +0.000 C 
BRANCH   7   8
ATOM      8  C   UNL     1      47.727   4.712  16.229  0.00  0.00    +0.000 C 
BRANCH   8  10
ATOM      9  C   UNL     1      48.517   4.272  18.566  0.00  0.00    +0.000 C 
ATOM     10  C   UNL     1      48.569   3.803  17.122  0.00  0.00    +0.000 C 
ENDBRANCH   8  10
ENDBRANCH   7   8
ENDBRANCH   1   7
BRANCH   3  11
ATOM     11  C   UNL     1      44.203   5.335  11.161  0.00  0.00    +0.000 C 
BRANCH  11  12
ATOM     12  C   UNL     1      43.926   3.922  10.635  0.00  0.00    +0.000 C 
BRANCH  12  13
ATOM     13  C   UNL     1      44.833   3.534   9.501  0.00  0.00    +0.000 A 
ATOM     14  C   UNL     1      45.233   2.206   9.328  0.00  0.00    +0.000 A 
ATOM     15  C   UNL     1      46.028   1.866   8.239  0.00  0.00    +0.000 A 
ATOM     16  C   UNL     1      46.399   2.873   7.362  0.00  0.00    +0.000 A 
ATOM     17  N   UNL     1      46.047   4.178   7.504  0.00  0.00    +0.000 NA
ATOM     18  C   UNL     1      45.270   4.475   8.574  0.00  0.00    +0.000 A 
BRANCH  16  19
ATOM     19  C   UNL     1      47.230   2.534   6.162  0.00  0.00    +0.000 C 
ATOM     20  N   UNL     1      48.582   2.494   6.381  0.00  0.00    +0.000 N 
ATOM     21  O   UNL     1      46.748   2.307   5.065  0.00  0.00    +0.000 OA
ATOM     22  H   UNL     1      48.938   2.696   7.315  0.00  0.00    +0.000 HD
ATOM     23  H   UNL     1      49.208   2.284   5.624  0.00  0.00    +0.000 HD
ENDBRANCH  16  19
ENDBRANCH  12  13
ENDBRANCH  11  12
ENDBRANCH   3  11
BRANCH   5  24
ATOM     24  S   UNL     1      48.849   7.746  11.797  0.00  0.00    +0.000 S 
BRANCH  24  25
ATOM     25  C   UNL     1      48.643   9.140  13.000  0.00  0.00    +0.000 C 
ATOM     26  C   UNL     1      49.514   9.109  14.246  0.00  0.00    +0.000 C 
ATOM     27  C   UNL     1      48.584   8.675  15.361  0.00  0.00    +0.000 C 
ATOM     28  N   UNL     1      47.233   9.098  14.985  0.00  0.00    +0.000 NA
ATOM     29  C   UNL     1      47.234   9.381  13.537  0.00  0.00    +0.000 C 
ATOM     30  H   UNL     1      46.991   9.953  15.488  0.00  0.00    +0.000 HD
ENDBRANCH  24  25
ENDBRANCH   5  24
TORSDOF 9
ENDMDL
MODEL 4
REMARK VINA RESULT:    -7.028      1.638      2.207
REMARK INTER + INTRA:         -11.974
REMARK INTER:                 -10.766
REMARK INTRA:                  -1.209
REMARK UNBOUND:                -1.249
REMARK  Name = 
REMARK  10 active torsions:
REMARK  status: ('A' for Active; 'I' for Inactive)
REMARK    1  A    between atoms: C_1  and  C_2
REMARK    2  A    between atoms: C_2  and  C_3
REMARK    3  A    between atoms: C_3  and  C_4
REMARK    4  A    between atoms: C_4  and  C_5
REMARK    5  A    between atoms: C_7  and  C_8
REMARK    6  A    between atoms: C_8  and  C_9
REMARK    7  A    between atoms: C_9  and  C_10
REMARK    8  A    between atoms: C_13  and  C_14
REMARK    9  A    between atoms: C_20  and  S_21
REMARK   10  A    between atoms: S_21  and  C_22
REMARK                            x       y       z     vdW  Elec       q    Type
REMARK                         _______ _______ _______ _____ _____    ______ ____
ROOT
ATOM      1  C   UNL     1      46.277   6.172  13.006  0.00  0.00    +0.000 A 
ATOM      2  C   UNL     1      45.462   5.360  12.210  0.00  0.00    +0.000 A 
ATOM      3  C   UNL     1      44.576   5.914  11.281  0.00  0.00    +0.000 A 
ATOM      4  C   UNL     1      44.556   7.305  11.124  0.00  0.00    +0.000 A 
ATOM      5  C   UNL     1      45.258   8.141  11.990  0.00  0.00    +0.000 A 
ATOM      6  C   UNL     1      46.151   7.566  12.900  0.00  0.00    +0.000 A 
ENDROOT
BRANCH   1   7
ATOM      7  C   UNL     1      47.281   5.536  13.936  0.00  0.00    +0.000 C 
BRANCH   7   8
ATOM      8  C   UNL     1      46.962   4.075  14.241  0.00  0.00    +0.000 C 
BRANCH   8  10
ATOM      9  C   UNL     1      48.046   4.868  16.356  0.00  0.00    +0.000 C 
ATOM     10  C   UNL     1      47.401   3.687  15.651  0.00  0.00    +0.000 C 
ENDBRANCH   8  10
ENDBRANCH   7   8
ENDBRANCH   1   7
BRANCH   3  11
ATOM     11  C   UNL     1      43.641   5.068  10.447  0.00  0.00    +0.000 C 
BRANCH  11  12
ATOM     12  C   UNL     1      43.986   3.576  10.507  0.00  0.00    +0.000 C 
BRANCH  12  13
ATOM     13  C   UNL     1      44.889   3.141   9.386  0.00  0.00    +0.000 A 
ATOM     14  C   UNL     1      45.445   4.078   8.511  0.00  0.00    +0.000 A 
ATOM     15  C   UNL     1      46.320   3.654   7.517  0.00  0.00    +0.000 A 
ATOM     16  C   UNL     1      46.603   2.299   7.432  0.00  0.00    +0.000 A 
ATOM     17  N   UNL     1      46.070   1.354   8.251  0.00  0.00    +0.000 NA
ATOM     18  C   UNL     1      45.225   1.802   9.210  0.00  0.00    +0.000 A 
BRANCH  16  19
ATOM     19  C   UNL     1      47.566   1.813   6.391  0.00  0.00    +0.000 C 
ATOM     20  N   UNL     1      48.676   2.595   6.214  0.00  0.00    +0.000 N 
ATOM     21  O   UNL     1      47.385   0.795   5.745  0.00  0.00    +0.000 OA
ATOM     22  H   UNL     1      48.781   3.440   6.775  0.00  0.00    +0.000 HD
ATOM     23  H   UNL     1      49.365   2.343   5.528  0.00  0.00    +0.000 HD
ENDBRANCH  16  19
ENDBRANCH  12  13
ENDBRANCH  11  12
ENDBRANCH   3  11
BRANCH   5  24
ATOM     24  S   UNL     1      45.108   9.915  11.919  0.00  0.00    +0.000 S 
BRANCH  24  25
ATOM     25  C   UNL     1      43.546  10.236  10.973  0.00  0.00    +0.000 C 
ATOM     26  C   UNL     1      43.688  10.515   9.485  0.00  0.00    +0.000 C 
ATOM     27  C   UNL     1      43.484  12.011   9.348  0.00  0.00    +0.000 C 
ATOM     28  N   UNL     1      42.629  12.433  10.462  0.00  0.00    +0.000 NA
ATOM     29  C   UNL     1      42.656  11.368  11.482  0.00  0.00    +0.000 C 
ATOM     30  H   UNL     1      41.671  12.549  10.131  0.00  0.00    +0.000 HD
ENDBRANCH  24  25
ENDBRANCH   5  24
TORSDOF 9
ENDMDL
MODEL 5
REMARK VINA RESULT:    -6.982      2.338      5.155
REMARK INTER + INTRA:         -11.904
REMARK INTER:                 -10.694
REMARK INTRA:                  -1.210
REMARK UNBOUND:                -1.249
REMARK  Name = 
REMARK  10 active torsions:
REMARK  status: ('A' for Active; 'I' for Inactive)
REMARK    1  A    between atoms: C_1  and  C_2
REMARK    2  A    between atoms: C_2  and  C_3
REMARK    3  A    between atoms: C_3  and  C_4
REMARK    4  A    between atoms: C_4  and  C_5
REMARK    5  A    between atoms: C_7  and  C_8
REMARK    6  A    between atoms: C_8  and  C_9
REMARK    7  A    between atoms: C_9  and  C_10
REMARK    8  A    between atoms: C_13  and  C_14
REMARK    9  A    between atoms: C_20  and  S_21
REMARK   10  A    between atoms: S_21  and  C_22
REMARK                            x       y       z     vdW  Elec       q    Type
REMARK                         _______ _______ _______ _____ _____    ______ ____
ROOT
ATOM      1  C   UNL     1      45.784   7.089  12.156  0.00  0.00    +0.000 A 
ATOM      2  C   UNL     1      45.088   5.971  11.685  0.00  0.00    +0.000 A 
ATOM      3  C   UNL     1      45.248   4.716  12.281  0.00  0.00    +0.000 A 
ATOM      4  C   UNL     1      46.084   4.609  13.399  0.00  0.00    +0.000 A 
ATOM      5  C   UNL     1      46.887   5.673  13.808  0.00  0.00    +0.000 A 
ATOM      6  C   UNL     1      46.698   6.924  13.209  0.00  0.00    +0.000 A 
ENDROOT
BRANCH   1   7
ATOM      7  C   UNL     1      45.521   8.443  11.542  0.00  0.00    +0.000 C 
BRANCH   7   8
ATOM      8  C   UNL     1      44.053   8.652  11.180  0.00  0.00    +0.000 C 
BRANCH   8  10
ATOM      9  C   UNL     1      44.670  11.060  11.498  0.00  0.00    +0.000 C 
ATOM     10  C   UNL     1      43.784  10.089  10.736  0.00  0.00    +0.000 C 
ENDBRANCH   8  10
ENDBRANCH   7   8
ENDBRANCH   1   7
BRANCH   3  11
ATOM     11  C   UNL     1      44.556   3.477  11.762  0.00  0.00    +0.000 C 
BRANCH  11  12
ATOM     12  C   UNL     1      43.952   3.680  10.368  0.00  0.00    +0.000 C 
BRANCH  12  13
ATOM     13  C   UNL     1      44.872   3.241   9.264  0.00  0.00    +0.000 A 
ATOM     14  C   UNL     1      45.420   4.172   8.376  0.00  0.00    +0.000 A 
ATOM     15  C   UNL     1      46.310   3.746   7.398  0.00  0.00    +0.000 A 
ATOM     16  C   UNL     1      46.618   2.395   7.339  0.00  0.00    +0.000 A 
ATOM     17  N   UNL     1      46.095   1.456   8.171  0.00  0.00    +0.000 NA
ATOM     18  C   UNL     1      45.233   1.905   9.114  0.00  0.00    +0.000 A 
BRANCH  16  19
ATOM     19  C   UNL     1      47.598   1.907   6.316  0.00  0.00    +0.000 C 
ATOM     20  N   UNL     1      48.796   2.572   6.294  0.00  0.00    +0.000 N 
ATOM     21  O   UNL     1      47.358   0.985   5.555  0.00  0.00    +0.000 OA
ATOM     22  H   UNL     1      48.948   3.340   6.947  0.00  0.00    +0.000 HD
ATOM     23  H   UNL     1      49.503   2.311   5.629  0.00  0.00    +0.000 HD
ENDBRANCH  16  19
ENDBRANCH  12  13
ENDBRANCH  11  12
ENDBRANCH   3  11
BRANCH   5  24
ATOM     24  S   UNL     1      48.084   5.506  15.116  0.00  0.00    +0.000 S 
BRANCH  24  25
ATOM     25  C   UNL     1      47.384   4.226  16.259  0.00  0.00    +0.000 C 
ATOM     26  C   UNL     1      47.242   4.614  17.722  0.00  0.00    +0.000 C 
ATOM     27  C   UNL     1      48.376   3.898  18.427  0.00  0.00    +0.000 C 
ATOM     28  N   UNL     1      48.685   2.701  17.641  0.00  0.00    +0.000 NA
ATOM     29  C   UNL     1      48.099   2.877  16.299  0.00  0.00    +0.000 C 
ATOM     30  H   UNL     1      48.261   1.884  18.082  0.00  0.00    +0.000 HD
ENDBRANCH  24  25
ENDBRANCH   5  24
TORSDOF 9
ENDMDL
MODEL 6
REMARK VINA RESULT:    -6.752      2.071      4.700
REMARK INTER + INTRA:         -11.553
REMARK INTER:                 -10.470
REMARK INTRA:                  -1.083
REMARK UNBOUND:                -1.249
REMARK  Name = 
REMARK  10 active torsions:
REMARK  status: ('A' for Active; 'I' for Inactive)
REMARK    1  A    between atoms: C_1  and  C_2
REMARK    2  A    between atoms: C_2  and  C_3
REMARK    3  A    between atoms: C_3  and  C_4
REMARK    4  A    between atoms: C_4  and  C_5
REMARK    5  A    between atoms: C_7  and  C_8
REMARK    6  A    between atoms: C_8  and  C_9
REMARK    7  A    between atoms: C_9  and  C_10
REMARK    8  A    between atoms: C_13  and  C_14
REMARK    9  A    between atoms: C_20  and  S_21
REMARK   10  A    between atoms: S_21  and  C_22
REMARK                            x       y       z     vdW  Elec       q    Type
REMARK                         _______ _______ _______ _____ _____    ______ ____
ROOT
ATOM      1  C   UNL     1      45.326   8.477  11.786  0.00  0.00    +0.000 A 
ATOM      2  C   UNL     1      44.713   7.221  11.723  0.00  0.00    +0.000 A 
ATOM      3  C   UNL     1      45.452   6.046  11.896  0.00  0.00    +0.000 A 
ATOM      4  C   UNL     1      46.817   6.152  12.188  0.00  0.00    +0.000 A 
ATOM      5  C   UNL     1      47.477   7.378  12.127  0.00  0.00    +0.000 A 
ATOM      6  C   UNL     1      46.717   8.542  11.970  0.00  0.00    +0.000 A 
ENDROOT
BRANCH   1   7
ATOM      7  C   UNL     1      44.483   9.725  11.678  0.00  0.00    +0.000 C 
BRANCH   7   8
ATOM      8  C   UNL     1      43.296   9.554  10.734  0.00  0.00    +0.000 C 
BRANCH   8  10
ATOM      9  C   UNL     1      43.769  10.840   8.636  0.00  0.00    +0.000 C 
ATOM     10  C   UNL     1      43.012  10.836   9.953  0.00  0.00    +0.000 C 
ENDBRANCH   8  10
ENDBRANCH   7   8
ENDBRANCH   1   7
BRANCH   3  11
ATOM     11  C   UNL     1      44.832   4.673  11.777  0.00  0.00    +0.000 C 
BRANCH  11  12
ATOM     12  C   UNL     1      44.097   4.472  10.447  0.00  0.00    +0.000 C 
BRANCH  12  13
ATOM     13  C   UNL     1      44.938   3.773   9.417  0.00  0.00    +0.000 A 
ATOM     14  C   UNL     1      45.659   4.503   8.466  0.00  0.00    +0.000 A 
ATOM     15  C   UNL     1      46.472   3.833   7.559  0.00  0.00    +0.000 A 
ATOM     16  C   UNL     1      46.530   2.449   7.632  0.00  0.00    +0.000 A 
ATOM     17  N   UNL     1      45.832   1.702   8.528  0.00  0.00    +0.000 NA
ATOM     18  C   UNL     1      45.052   2.386   9.399  0.00  0.00    +0.000 A 
BRANCH  16  19
ATOM     19  C   UNL     1      47.420   1.700   6.688  0.00  0.00    +0.000 C 
ATOM     20  N   UNL     1      48.500   2.403   6.224  0.00  0.00    +0.000 N 
ATOM     21  O   UNL     1      47.209   0.546   6.354  0.00  0.00    +0.000 OA
ATOM     22  H   UNL     1      48.632   3.367   6.529  0.00  0.00    +0.000 HD
ATOM     23  H   UNL     1      49.139   1.973   5.579  0.00  0.00    +0.000 HD
ENDBRANCH  16  19
ENDBRANCH  12  13
ENDBRANCH  11  12
ENDBRANCH   3  11
BRANCH   5  24
ATOM     24  S   UNL     1      49.243   7.511  12.322  0.00  0.00    +0.000 S 
BRANCH  24  25
ATOM     25  C   UNL     1      49.499   8.145  14.044  0.00  0.00    +0.000 C 
ATOM     26  C   UNL     1      50.333   7.281  14.978  0.00  0.00    +0.000 C 
ATOM     27  C   UNL     1      49.327   6.630  15.907  0.00  0.00    +0.000 C 
ATOM     28  N   UNL     1      48.172   7.528  15.990  0.00  0.00    +0.000 NA
ATOM     29  C   UNL     1      48.244   8.464  14.852  0.00  0.00    +0.000 C 
ATOM     30  H   UNL     1      48.218   8.061  16.860  0.00  0.00    +0.000 HD
ENDBRANCH  24  25
ENDBRANCH   5  24
TORSDOF 9
ENDMDL
MODEL 7
REMARK VINA RESULT:    -6.702      2.501      4.703
REMARK INTER + INTRA:         -11.477
REMARK INTER:                 -10.368
REMARK INTRA:                  -1.109
REMARK UNBOUND:                -1.249
REMARK  Name = 
REMARK  10 active torsions:
REMARK  status: ('A' for Active; 'I' for Inactive)
REMARK    1  A    between atoms: C_1  and  C_2
REMARK    2  A    between atoms: C_2  and  C_3
REMARK    3  A    between atoms: C_3  and  C_4
REMARK    4  A    between atoms: C_4  and  C_5
REMARK    5  A    between atoms: C_7  and  C_8
REMARK    6  A    between atoms: C_8  and  C_9
REMARK    7  A    between atoms: C_9  and  C_10
REMARK    8  A    between atoms: C_13  and  C_14
REMARK    9  A    between atoms: C_20  and  S_21
REMARK   10  A    between atoms: S_21  and  C_22
REMARK                            x       y       z     vdW  Elec       q    Type
REMARK                         _______ _______ _______ _____ _____    ______ ____
ROOT
ATOM      1  C   UNL     1      45.091   8.345  11.808  0.00  0.00    +0.000 A 
ATOM      2  C   UNL     1      44.471   7.128  11.509  0.00  0.00    +0.000 A 
ATOM      3  C   UNL     1      45.000   5.916  11.964  0.00  0.00    +0.000 A 
ATOM      4  C   UNL     1      46.142   5.947  12.773  0.00  0.00    +0.000 A 
ATOM      5  C   UNL     1      46.852   7.129  12.978  0.00  0.00    +0.000 A 
ATOM      6  C   UNL     1      46.296   8.332  12.530  0.00  0.00    +0.000 A 
ENDROOT
BRANCH   1   7
ATOM      7  C   UNL     1      44.445   9.639  11.373  0.00  0.00    +0.000 C 
BRANCH   7   8
ATOM      8  C   UNL     1      45.385  10.836  11.486  0.00  0.00    +0.000 C 
BRANCH   8  10
ATOM      9  C   UNL     1      43.582  12.326  10.589  0.00  0.00    +0.000 C 
ATOM     10  C   UNL     1      45.040  11.918  10.466  0.00  0.00    +0.000 C 
ENDBRANCH   8  10
ENDBRANCH   7   8
ENDBRANCH   1   7
BRANCH   3  11
ATOM     11  C   UNL     1      44.388   4.580  11.611  0.00  0.00    +0.000 C 
BRANCH  11  12
ATOM     12  C   UNL     1      43.927   4.511  10.150  0.00  0.00    +0.000 C 
BRANCH  12  13
ATOM     13  C   UNL     1      44.911   3.806   9.260  0.00  0.00    +0.000 A 
ATOM     14  C   UNL     1      45.027   2.413   9.285  0.00  0.00    +0.000 A 
ATOM     15  C   UNL     1      45.906   1.782   8.412  0.00  0.00    +0.000 A 
ATOM     16  C   UNL     1      46.646   2.573   7.546  0.00  0.00    +0.000 A 
ATOM     17  N   UNL     1      46.575   3.930   7.502  0.00  0.00    +0.000 NA
ATOM     18  C   UNL     1      45.707   4.512   8.364  0.00  0.00    +0.000 A 
BRANCH  16  19
ATOM     19  C   UNL     1      47.580   1.922   6.571  0.00  0.00    +0.000 C 
ATOM     20  N   UNL     1      48.679   2.667   6.232  0.00  0.00    +0.000 N 
ATOM     21  O   UNL     1      47.387   0.810   6.110  0.00  0.00    +0.000 OA
ATOM     22  H   UNL     1      48.794   3.594   6.641  0.00  0.00    +0.000 HD
ATOM     23  H   UNL     1      49.347   2.305   5.576  0.00  0.00    +0.000 HD
ENDBRANCH  16  19
ENDBRANCH  12  13
ENDBRANCH  11  12
ENDBRANCH   3  11
BRANCH   5  24
ATOM     24  S   UNL     1      48.401   7.160  13.857  0.00  0.00    +0.000 S 
BRANCH  24  25
ATOM     25  C   UNL     1      49.469   8.354  12.926  0.00  0.00    +0.000 C 
ATOM     26  C   UNL     1      49.482   8.227  11.410  0.00  0.00    +0.000 C 
ATOM     27  C   UNL     1      50.808   7.567  11.086  0.00  0.00    +0.000 C 
ATOM     28  N   UNL     1      51.740   7.921  12.160  0.00  0.00    +0.000 NA
ATOM     29  C   UNL     1      50.947   8.397  13.309  0.00  0.00    +0.000 C 
ATOM     30  H   UNL     1      52.352   8.675  11.846  0.00  0.00    +0.000 HD
ENDBRANCH  24  25
ENDBRANCH   5  24
TORSDOF 9
ENDMDL
MODEL 8
REMARK VINA RESULT:    -6.266      4.698      7.890
REMARK INTER + INTRA:         -10.812
REMARK INTER:                  -9.594
REMARK INTRA:                  -1.219
REMARK UNBOUND:                -1.249
REMARK  Name = 
REMARK  10 active torsions:
REMARK  status: ('A' for Active; 'I' for Inactive)
REMARK    1  A    between atoms: C_1  and  C_2
REMARK    2  A    between atoms: C_2  and  C_3
REMARK    3  A    between atoms: C_3  and  C_4
REMARK    4  A    between atoms: C_4  and  C_5
REMARK    5  A    between atoms: C_7  and  C_8
REMARK    6  A    between atoms: C_8  and  C_9
REMARK    7  A    between atoms: C_9  and  C_10
REMARK    8  A    between atoms: C_13  and  C_14
REMARK    9  A    between atoms: C_20  and  S_21
REMARK   10  A    between atoms: S_21  and  C_22
REMARK                            x       y       z     vdW  Elec       q    Type
REMARK                         _______ _______ _______ _____ _____    ______ ____
ROOT
ATOM      1  C   UNL     1      47.191   6.831  12.704  0.00  0.00    +0.000 A 
ATOM      2  C   UNL     1      47.664   6.769  14.019  0.00  0.00    +0.000 A 
ATOM      3  C   UNL     1      47.526   5.606  14.783  0.00  0.00    +0.000 A 
ATOM      4  C   UNL     1      46.949   4.479  14.186  0.00  0.00    +0.000 A 
ATOM      5  C   UNL     1      46.353   4.551  12.928  0.00  0.00    +0.000 A 
ATOM      6  C   UNL     1      46.518   5.718  12.174  0.00  0.00    +0.000 A 
ENDROOT
BRANCH   1   7
ATOM      7  C   UNL     1      47.434   8.074  11.882  0.00  0.00    +0.000 C 
BRANCH   7   8
ATOM      8  C   UNL     1      48.857   8.607  12.025  0.00  0.00    +0.000 C 
BRANCH   8  10
ATOM      9  C   UNL     1      51.182   8.334  11.132  0.00  0.00    +0.000 C 
ATOM     10  C   UNL     1      49.883   7.622  11.468  0.00  0.00    +0.000 C 
ENDBRANCH   8  10
ENDBRANCH   7   8
ENDBRANCH   1   7
BRANCH   3  11
ATOM     11  C   UNL     1      47.974   5.525  16.224  0.00  0.00    +0.000 C 
BRANCH  11  12
ATOM     12  C   UNL     1      47.803   4.121  16.815  0.00  0.00    +0.000 C 
BRANCH  12  13
ATOM     13  C   UNL     1      49.111   3.403  17.000  0.00  0.00    +0.000 A 
ATOM     14  C   UNL     1      50.205   4.049  17.585  0.00  0.00    +0.000 A 
ATOM     15  C   UNL     1      51.385   3.346  17.794  0.00  0.00    +0.000 A 
ATOM     16  C   UNL     1      51.431   2.016  17.404  0.00  0.00    +0.000 A 
ATOM     17  N   UNL     1      50.397   1.357  16.816  0.00  0.00    +0.000 NA
ATOM     18  C   UNL     1      49.261   2.070  16.630  0.00  0.00    +0.000 A 
BRANCH  16  19
ATOM     19  C   UNL     1      52.678   1.221  17.643  0.00  0.00    +0.000 C 
ATOM     20  N   UNL     1      52.481  -0.031  18.161  0.00  0.00    +0.000 N 
ATOM     21  O   UNL     1      53.794   1.648  17.396  0.00  0.00    +0.000 OA
ATOM     22  H   UNL     1      51.529  -0.342  18.355  0.00  0.00    +0.000 HD
ATOM     23  H   UNL     1      53.268  -0.623  18.360  0.00  0.00    +0.000 HD
ENDBRANCH  16  19
ENDBRANCH  12  13
ENDBRANCH  11  12
ENDBRANCH   3  11
BRANCH   5  24
ATOM     24  S   UNL     1      45.461   3.179  12.225  0.00  0.00    +0.000 S 
BRANCH  24  25
ATOM     25  C   UNL     1      43.694   3.732  12.150  0.00  0.00    +0.000 C 
ATOM     26  C   UNL     1      43.259   4.480  10.900  0.00  0.00    +0.000 C 
ATOM     27  C   UNL     1      43.170   5.933  11.325  0.00  0.00    +0.000 C 
ATOM     28  N   UNL     1      42.876   5.943  12.762  0.00  0.00    +0.000 NA
ATOM     29  C   UNL     1      43.199   4.608  13.300  0.00  0.00    +0.000 C 
ATOM     30  H   UNL     1      41.882   6.126  12.905  0.00  0.00    +0.000 HD
ENDBRANCH  24  25
ENDBRANCH   5  24
TORSDOF 9
ENDMDL
MODEL 9
REMARK VINA RESULT:    -6.182      4.423      6.895
REMARK INTER + INTRA:         -10.683
REMARK INTER:                  -9.246
REMARK INTRA:                  -1.437
REMARK UNBOUND:                -1.249
REMARK  Name = 
REMARK  10 active torsions:
REMARK  status: ('A' for Active; 'I' for Inactive)
REMARK    1  A    between atoms: C_1  and  C_2
REMARK    2  A    between atoms: C_2  and  C_3
REMARK    3  A    between atoms: C_3  and  C_4
REMARK    4  A    between atoms: C_4  and  C_5
REMARK    5  A    between atoms: C_7  and  C_8
REMARK    6  A    between atoms: C_8  and  C_9
REMARK    7  A    between atoms: C_9  and  C_10
REMARK    8  A    between atoms: C_13  and  C_14
REMARK    9  A    between atoms: C_20  and  S_21
REMARK   10  A    between atoms: S_21  and  C_22
REMARK                            x       y       z     vdW  Elec       q    Type
REMARK                         _______ _______ _______ _____ _____    ______ ____
ROOT
ATOM      1  C   UNL     1      49.131   8.706  17.672  0.00  0.00    +0.000 A 
ATOM      2  C   UNL     1      48.593   8.846  16.388  0.00  0.00    +0.000 A 
ATOM      3  C   UNL     1      48.637   7.794  15.468  0.00  0.00    +0.000 A 
ATOM      4  C   UNL     1      49.187   6.572  15.875  0.00  0.00    +0.000 A 
ATOM      5  C   UNL     1      49.845   6.446  17.097  0.00  0.00    +0.000 A 
ATOM      6  C   UNL     1      49.774   7.504  18.010  0.00  0.00    +0.000 A 
ENDROOT
BRANCH   1   7
ATOM      7  C   UNL     1      48.990   9.834  18.666  0.00  0.00    +0.000 C 
BRANCH   7   8
ATOM      8  C   UNL     1      48.008  10.907  18.205  0.00  0.00    +0.000 C 
BRANCH   8  10
ATOM      9  C   UNL     1      46.681  10.015  20.134  0.00  0.00    +0.000 C 
ATOM     10  C   UNL     1      46.991  11.242  19.294  0.00  0.00    +0.000 C 
ENDBRANCH   8  10
ENDBRANCH   7   8
ENDBRANCH   1   7
BRANCH   3  11
ATOM     11  C   UNL     1      48.118   7.930  14.055  0.00  0.00    +0.000 C 
BRANCH  11  12
ATOM     12  C   UNL     1      48.379   6.679  13.209  0.00  0.00    +0.000 C 
BRANCH  12  13
ATOM     13  C   UNL     1      47.121   5.927  12.876  0.00  0.00    +0.000 A 
ATOM     14  C   UNL     1      46.453   6.150  11.668  0.00  0.00    +0.000 A 
ATOM     15  C   UNL     1      45.322   5.402  11.361  0.00  0.00    +0.000 A 
ATOM     16  C   UNL     1      44.896   4.456  12.281  0.00  0.00    +0.000 A 
ATOM     17  N   UNL     1      45.507   4.220  13.473  0.00  0.00    +0.000 NA
ATOM     18  C   UNL     1      46.606   4.965  13.739  0.00  0.00    +0.000 A 
BRANCH  16  19
ATOM     19  C   UNL     1      43.699   3.611  11.967  0.00  0.00    +0.000 C 
ATOM     20  N   UNL     1      43.706   2.360  12.524  0.00  0.00    +0.000 N 
ATOM     21  O   UNL     1      42.778   4.001  11.269  0.00  0.00    +0.000 OA
ATOM     22  H   UNL     1      44.501   2.078  13.098  0.00  0.00    +0.000 HD
ATOM     23  H   UNL     1      42.944   1.729  12.353  0.00  0.00    +0.000 HD
ENDBRANCH  16  19
ENDBRANCH  12  13
ENDBRANCH  11  12
ENDBRANCH   3  11
BRANCH   5  24
ATOM     24  S   UNL     1      50.702   4.954  17.559  0.00  0.00    +0.000 S 
BRANCH  24  25
ATOM     25  C   UNL     1      49.398   3.834  18.250  0.00  0.00    +0.000 C 
ATOM     26  C   UNL     1      48.712   2.892  17.274  0.00  0.00    +0.000 C 
ATOM     27  C   UNL     1      47.346   3.506  17.035  0.00  0.00    +0.000 C 
ATOM     28  N   UNL     1      47.003   4.274  18.235  0.00  0.00    +0.000 NA
ATOM     29  C   UNL     1      48.245   4.502  18.997  0.00  0.00    +0.000 C 
ATOM     30  H   UNL     1      46.356   3.734  18.812  0.00  0.00    +0.000 HD
ENDBRANCH  24  25
ENDBRANCH   5  24
TORSDOF 9
ENDMDL
