MODEL 1
REMARK VINA RESULT:    -8.979      0.000      0.000
REMARK INTER + INTRA:         -13.023
REMARK INTER:                 -12.129
REMARK INTRA:                  -0.894
REMARK UNBOUND:                -0.894
REMARK  Name = 
REMARK  6 active torsions:
REMARK  status: ('A' for Active; 'I' for Inactive)
REMARK    1  A    between atoms: C_2  and  C_4
REMARK    2  A    between atoms: C_7  and  C_8
REMARK    3  A    between atoms: C_8  and  C_9
REMARK    4  A    between atoms: C_12  and  C_13
REMARK    5  A    between atoms: C_13  and  N_14
REMARK    6  A    between atoms: C_15  and  C_17
REMARK                            x       y       z     vdW  Elec       q    Type
REMARK                         _______ _______ _______ _____ _____    ______ ____
ROOT
ATOM      1  C   UNL     1      44.716   5.486  11.132  0.00  0.00    +0.000 A 
ATOM      2  C   UNL     1      44.333   6.819  11.254  0.00  0.00    +0.000 A 
ATOM      3  C   UNL     1      45.100   7.673  12.046  0.00  0.00    +0.000 A 
ATOM      4  C   UNL     1      46.228   7.182  12.709  0.00  0.00    +0.000 A 
ATOM      5  C   UNL     1      46.533   5.839  12.530  0.00  0.00    +0.000 A 
ATOM      6  N   UNL     1      45.806   4.985  11.770  0.00  0.00    +0.000 NA
ENDROOT
BRANCH   1   7
ATOM      7  C   UNL     1      43.955   4.552  10.214  0.00  0.00    +0.000 C 
BRANCH   7  11
ATOM      8  C   UNL     1      46.512   2.356   7.493  0.00  0.00    +0.000 A 
ATOM      9  C   UNL     1      45.709   1.671   8.411  0.00  0.00    +0.000 A 
ATOM     10  C   UNL     1      44.878   2.386   9.278  0.00  0.00    +0.000 A 
ATOM     11  C   UNL     1      44.846   3.789   9.252  0.00  0.00    +0.000 A 
ATOM     12  C   UNL     1      45.652   4.467   8.327  0.00  0.00    +0.000 A 
ATOM     13  C   UNL     1      46.485   3.755   7.457  0.00  0.00    +0.000 A 
BRANCH   8  15
ATOM     14  N   UNL     1      48.555   2.297   6.167  0.00  0.00    +0.000 N 
ATOM     15  C   UNL     1      47.425   1.639   6.566  0.00  0.00    +0.000 C 
ATOM     16  O   UNL     1      47.198   0.494   6.196  0.00  0.00    +0.000 OA
ATOM     17  H   UNL     1      49.223   1.759   5.630  0.00  0.00    +0.000 HD
ATOM     18  H   UNL     1      48.892   3.124   6.640  0.00  0.00    +0.000 HD
ENDBRANCH   8  15
ENDBRANCH   7  11
ENDBRANCH   1   7
BRANCH   4  19
ATOM     19  C   UNL     1      47.115   8.083  13.516  0.00  0.00    +0.000 C 
BRANCH  19  20
ATOM     20  N   UNL     1      47.556   7.424  14.722  0.00  0.00    +0.000 N 
ATOM     21  C   UNL     1      48.785   6.827  14.810  0.00  0.00    +0.000 C 
ATOM     22  O   UNL     1      49.592   6.857  13.884  0.00  0.00    +0.000 OA
ATOM     23  H   UNL     1      46.837   7.173  15.393  0.00  0.00    +0.000 HD
BRANCH  21  24
ATOM     24  C   UNL     1      49.113   6.202  16.097  0.00  0.00    +0.000 A 
ATOM     25  C   UNL     1      50.122   6.739  16.889  0.00  0.00    +0.000 A 
ATOM     26  S   UNL     1      50.323   5.936  18.380  0.00  0.00    +0.000 S 
ATOM     27  C   UNL     1      49.109   4.806  17.997  0.00  0.00    +0.000 A 
ATOM     28  N   UNL     1      48.788   3.805  18.860  0.00  0.00    +0.000 NA
ATOM     29  C   UNL     1      47.872   3.003  18.430  0.00  0.00    +0.000 A 
ATOM     30  N   UNL     1      47.245   3.113  17.216  0.00  0.00    +0.000 N 
ATOM     31  C   UNL     1      47.520   4.121  16.324  0.00  0.00    +0.000 A 
ATOM     32  O   UNL     1      46.918   4.213  15.257  0.00  0.00    +0.000 OA
ATOM     33  C   UNL     1      48.548   5.048  16.756  0.00  0.00    +0.000 A 
ATOM     34  H   UNL     1      46.531   2.454  16.940  0.00  0.00    +0.000 HD
ENDBRANCH  21  24
ENDBRANCH  19  20
ENDBRANCH   4  19
TORSDOF 6
ENDMDL
MODEL 2
REMARK VINA RESULT:    -7.959      3.770      5.029
REMARK INTER + INTRA:         -11.645
REMARK INTER:                 -10.320
REMARK INTRA:                  -1.325
REMARK UNBOUND:                -0.894
REMARK  Name = 
REMARK  6 active torsions:
REMARK  status: ('A' for Active; 'I' for Inactive)
REMARK    1  A    between atoms: C_2  and  C_4
REMARK    2  A    between atoms: C_7  and  C_8
REMARK    3  A    between atoms: C_8  and  C_9
REMARK    4  A    between atoms: C_12  and  C_13
REMARK    5  A    between atoms: C_13  and  N_14
REMARK    6  A    between atoms: C_15  and  C_17
REMARK                            x       y       z     vdW  Elec       q    Type
REMARK                         _______ _______ _______ _____ _____    ______ ____
ROOT
ATOM      1  C   UNL     1      44.819   5.482  11.218  0.00  0.00    +0.000 A 
ATOM      2  C   UNL     1      45.862   5.190  12.093  0.00  0.00    +0.000 A 
ATOM      3  C   UNL     1      46.445   6.227  12.820  0.00  0.00    +0.000 A 
ATOM      4  C   UNL     1      45.987   7.536  12.656  0.00  0.00    +0.000 A 
ATOM      5  C   UNL     1      44.943   7.735  11.761  0.00  0.00    +0.000 A 
ATOM      6  N   UNL     1      44.359   6.748  11.039  0.00  0.00    +0.000 NA
ENDROOT
BRANCH   1   7
ATOM      7  C   UNL     1      44.107   4.371  10.476  0.00  0.00    +0.000 C 
BRANCH   7  11
ATOM      8  C   UNL     1      46.585   2.406   7.517  0.00  0.00    +0.000 A 
ATOM      9  C   UNL     1      45.886   1.649   8.463  0.00  0.00    +0.000 A 
ATOM     10  C   UNL     1      45.079   2.290   9.408  0.00  0.00    +0.000 A 
ATOM     11  C   UNL     1      44.969   3.689   9.432  0.00  0.00    +0.000 A 
ATOM     12  C   UNL     1      45.671   4.439   8.478  0.00  0.00    +0.000 A 
ATOM     13  C   UNL     1      46.480   3.801   7.530  0.00  0.00    +0.000 A 
BRANCH   8  15
ATOM     14  N   UNL     1      48.610   2.442   6.163  0.00  0.00    +0.000 N 
ATOM     15  C   UNL     1      47.469   1.770   6.507  0.00  0.00    +0.000 C 
ATOM     16  O   UNL     1      47.212   0.674   6.024  0.00  0.00    +0.000 OA
ATOM     17  H   UNL     1      49.259   1.947   5.562  0.00  0.00    +0.000 HD
ATOM     18  H   UNL     1      48.972   3.206   6.714  0.00  0.00    +0.000 HD
ENDBRANCH   8  15
ENDBRANCH   7  11
ENDBRANCH   1   7
BRANCH   4  19
ATOM     19  C   UNL     1      46.544   8.668  13.468  0.00  0.00    +0.000 C 
BRANCH  19  20
ATOM     20  N   UNL     1      47.864   9.028  13.012  0.00  0.00    +0.000 N 
ATOM     21  C   UNL     1      48.059   9.960  12.028  0.00  0.00    +0.000 C 
ATOM     22  O   UNL     1      47.124  10.570  11.514  0.00  0.00    +0.000 OA
ATOM     23  H   UNL     1      48.615   8.381  13.233  0.00  0.00    +0.000 HD
BRANCH  21  24
ATOM     24  C   UNL     1      49.454  10.241  11.665  0.00  0.00    +0.000 A 
ATOM     25  C   UNL     1      49.880  11.557  11.527  0.00  0.00    +0.000 A 
ATOM     26  S   UNL     1      51.542  11.704  11.175  0.00  0.00    +0.000 S 
ATOM     27  C   UNL     1      51.740  10.014  11.137  0.00  0.00    +0.000 A 
ATOM     28  N   UNL     1      52.950   9.457  10.862  0.00  0.00    +0.000 NA
ATOM     29  C   UNL     1      52.950   8.166  10.836  0.00  0.00    +0.000 A 
ATOM     30  N   UNL     1      51.850   7.380  11.065  0.00  0.00    +0.000 N 
ATOM     31  C   UNL     1      50.614   7.899  11.370  0.00  0.00    +0.000 A 
ATOM     32  O   UNL     1      49.654   7.169  11.601  0.00  0.00    +0.000 OA
ATOM     33  C   UNL     1      50.558   9.348  11.405  0.00  0.00    +0.000 A 
ATOM     34  H   UNL     1      51.918   6.373  11.035  0.00  0.00    +0.000 HD
ENDBRANCH  21  24
ENDBRANCH  19  20
ENDBRANCH   4  19
TORSDOF 6
ENDMDL
MODEL 3
REMARK VINA RESULT:    -7.923      1.656      2.060
REMARK INTER + INTRA:         -11.596
REMARK INTER:                 -10.530
REMARK INTRA:                  -1.067
REMARK UNBOUND:                -0.894
REMARK  Name = 
REMARK  6 active torsions:
REMARK  status: ('A' for Active; 'I' for Inactive)
REMARK    1  A    between atoms: C_2  and  C_4
REMARK    2  A    between atoms: C_7  and  C_8
REMARK    3  A    between atoms: C_8  and  C_9
REMARK    4  A    between atoms: C_12  and  C_13
REMARK    5  A    between atoms: C_13  and  N_14
REMARK    6  A    between atoms: C_15  and  C_17
REMARK                            x       y       z     vdW  Elec       q    Type
REMARK                         _______ _______ _______ _____ _____    ______ ____
ROOT
ATOM      1  C   UNL     1      44.970   5.551  11.312  0.00  0.00    +0.000 A 
ATOM      2  C   UNL     1      46.163   5.438  12.021  0.00  0.00    +0.000 A 
ATOM      3  C   UNL     1      46.695   6.571  12.635  0.00  0.00    +0.000 A 
ATOM      4  C   UNL     1      46.035   7.798  12.524  0.00  0.00    +0.000 A 
ATOM      5  C   UNL     1      44.852   7.817  11.797  0.00  0.00    +0.000 A 
ATOM      6  N   UNL     1      44.312   6.733  11.188  0.00  0.00    +0.000 NA
ENDROOT
BRANCH   1   7
ATOM      7  C   UNL     1      44.320   4.325  10.705  0.00  0.00    +0.000 C 
BRANCH   7  11
ATOM      8  C   UNL     1      46.455   2.751   7.281  0.00  0.00    +0.000 A 
ATOM      9  C   UNL     1      45.906   1.880   8.228  0.00  0.00    +0.000 A 
ATOM     10  C   UNL     1      45.208   2.395   9.324  0.00  0.00    +0.000 A 
ATOM     11  C   UNL     1      45.061   3.781   9.499  0.00  0.00    +0.000 A 
ATOM     12  C   UNL     1      45.613   4.645   8.543  0.00  0.00    +0.000 A 
ATOM     13  C   UNL     1      46.311   4.133   7.444  0.00  0.00    +0.000 A 
BRANCH   8  15
ATOM     14  N   UNL     1      48.492   1.801   6.341  0.00  0.00    +0.000 N 
ATOM     15  C   UNL     1      47.220   2.250   6.111  0.00  0.00    +0.000 C 
ATOM     16  O   UNL     1      46.729   2.206   4.990  0.00  0.00    +0.000 OA
ATOM     17  H   UNL     1      48.960   1.358   5.560  0.00  0.00    +0.000 HD
ATOM     18  H   UNL     1      48.829   1.592   7.269  0.00  0.00    +0.000 HD
ENDBRANCH   8  15
ENDBRANCH   7  11
ENDBRANCH   1   7
BRANCH   4  19
ATOM     19  C   UNL     1      46.540   9.025  13.224  0.00  0.00    +0.000 C 
BRANCH  19  20
ATOM     20  N   UNL     1      47.001   8.706  14.553  0.00  0.00    +0.000 N 
ATOM     21  C   UNL     1      48.228   9.109  15.009  0.00  0.00    +0.000 C 
ATOM     22  O   UNL     1      48.982   9.798  14.325  0.00  0.00    +0.000 OA
ATOM     23  H   UNL     1      46.521   7.950  15.033  0.00  0.00    +0.000 HD
BRANCH  21  24
ATOM     24  C   UNL     1      48.568   8.727  16.385  0.00  0.00    +0.000 A 
ATOM     25  C   UNL     1      48.638   9.700  17.375  0.00  0.00    +0.000 A 
ATOM     26  S   UNL     1      48.973   9.076  18.926  0.00  0.00    +0.000 S 
ATOM     27  C   UNL     1      49.094   7.490  18.321  0.00  0.00    +0.000 A 
ATOM     28  N   UNL     1      49.389   6.448  19.144  0.00  0.00    +0.000 NA
ATOM     29  C   UNL     1      49.479   5.306  18.549  0.00  0.00    +0.000 A 
ATOM     30  N   UNL     1      49.296   5.110  17.204  0.00  0.00    +0.000 N 
ATOM     31  C   UNL     1      48.973   6.128  16.340  0.00  0.00    +0.000 A 
ATOM     32  O   UNL     1      48.784   5.916  15.145  0.00  0.00    +0.000 OA
ATOM     33  C   UNL     1      48.866   7.436  16.958  0.00  0.00    +0.000 A 
ATOM     34  H   UNL     1      49.376   4.188  16.800  0.00  0.00    +0.000 HD
ENDBRANCH  21  24
ENDBRANCH  19  20
ENDBRANCH   4  19
TORSDOF 6
ENDMDL
MODEL 4
REMARK VINA RESULT:    -7.759      1.980      2.278
REMARK INTER + INTRA:         -11.375
REMARK INTER:                 -10.664
REMARK INTRA:                  -0.710
REMARK UNBOUND:                -0.894
REMARK  Name = 
REMARK  6 active torsions:
REMARK  status: ('A' for Active; 'I' for Inactive)
REMARK    1  A    between atoms: C_2  and  C_4
REMARK    2  A    between atoms: C_7  and  C_8
REMARK    3  A    between atoms: C_8  and  C_9
REMARK    4  A    between atoms: C_12  and  C_13
REMARK    5  A    between atoms: C_13  and  N_14
REMARK    6  A    between atoms: C_15  and  C_17
REMARK                            x       y       z     vdW  Elec       q    Type
REMARK                         _______ _______ _______ _____ _____    ______ ____
ROOT
ATOM      1  C   UNL     1      45.104   4.749  11.311  0.00  0.00    +0.000 A 
ATOM      2  C   UNL     1      45.345   6.098  11.063  0.00  0.00    +0.000 A 
ATOM      3  C   UNL     1      46.189   6.802  11.920  0.00  0.00    +0.000 A 
ATOM      4  C   UNL     1      46.770   6.155  13.013  0.00  0.00    +0.000 A 
ATOM      5  C   UNL     1      46.473   4.809  13.183  0.00  0.00    +0.000 A 
ATOM      6  N   UNL     1      45.655   4.099  12.369  0.00  0.00    +0.000 NA
ENDROOT
BRANCH   1   7
ATOM      7  C   UNL     1      44.261   3.933  10.353  0.00  0.00    +0.000 C 
BRANCH   7  11
ATOM      8  C   UNL     1      46.512   2.355   7.006  0.00  0.00    +0.000 A 
ATOM      9  C   UNL     1      46.094   1.505   8.035  0.00  0.00    +0.000 A 
ATOM     10  C   UNL     1      45.357   2.019   9.106  0.00  0.00    +0.000 A 
ATOM     11  C   UNL     1      45.042   3.386   9.174  0.00  0.00    +0.000 A 
ATOM     12  C   UNL     1      45.463   4.229   8.137  0.00  0.00    +0.000 A 
ATOM     13  C   UNL     1      46.200   3.718   7.062  0.00  0.00    +0.000 A 
BRANCH   8  15
ATOM     14  N   UNL     1      46.760   1.971   4.613  0.00  0.00    +0.000 N 
ATOM     15  C   UNL     1      47.313   1.856   5.859  0.00  0.00    +0.000 C 
ATOM     16  O   UNL     1      48.436   1.391   6.010  0.00  0.00    +0.000 OA
ATOM     17  H   UNL     1      47.359   1.735   3.832  0.00  0.00    +0.000 HD
ATOM     18  H   UNL     1      45.964   2.565   4.430  0.00  0.00    +0.000 HD
ENDBRANCH   8  15
ENDBRANCH   7  11
ENDBRANCH   1   7
BRANCH   4  19
ATOM     19  C   UNL     1      47.735   6.861  13.920  0.00  0.00    +0.000 C 
BRANCH  19  20
ATOM     20  N   UNL     1      47.886   6.148  15.165  0.00  0.00    +0.000 N 
ATOM     21  C   UNL     1      48.630   6.650  16.199  0.00  0.00    +0.000 C 
ATOM     22  O   UNL     1      49.172   7.751  16.137  0.00  0.00    +0.000 OA
ATOM     23  H   UNL     1      47.666   5.156  15.152  0.00  0.00    +0.000 HD
BRANCH  21  24
ATOM     24  C   UNL     1      48.694   5.827  17.414  0.00  0.00    +0.000 A 
ATOM     25  C   UNL     1      49.203   4.535  17.347  0.00  0.00    +0.000 A 
ATOM     26  S   UNL     1      49.272   3.748  18.858  0.00  0.00    +0.000 S 
ATOM     27  C   UNL     1      48.570   5.083  19.647  0.00  0.00    +0.000 A 
ATOM     28  N   UNL     1      48.326   5.056  20.985  0.00  0.00    +0.000 NA
ATOM     29  C   UNL     1      47.764   6.123  21.446  0.00  0.00    +0.000 A 
ATOM     30  N   UNL     1      47.426   7.217  20.691  0.00  0.00    +0.000 N 
ATOM     31  C   UNL     1      47.676   7.298  19.343  0.00  0.00    +0.000 A 
ATOM     32  O   UNL     1      47.392   8.304  18.699  0.00  0.00    +0.000 OA
ATOM     33  C   UNL     1      48.302   6.120  18.772  0.00  0.00    +0.000 A 
ATOM     34  H   UNL     1      46.992   8.024  21.115  0.00  0.00    +0.000 HD
ENDBRANCH  21  24
ENDBRANCH  19  20
ENDBRANCH   4  19
TORSDOF 6
ENDMDL
MODEL 5
REMARK VINA RESULT:    -7.555      1.746      2.405
REMARK INTER + INTRA:         -11.099
REMARK INTER:                 -10.274
REMARK INTRA:                  -0.826
REMARK UNBOUND:                -0.894
REMARK  Name = 
REMARK  6 active torsions:
REMARK  status: ('A' for Active; 'I' for Inactive)
REMARK    1  A    between atoms: C_2  and  C_4
REMARK    2  A    between atoms: C_7  and  C_8
REMARK    3  A    between atoms: C_8  and  C_9
REMARK    4  A    between atoms: C_12  and  C_13
REMARK    5  A    between atoms: C_13  and  N_14
REMARK    6  A    between atoms: C_15  and  C_17
REMARK                            x       y       z     vdW  Elec       q    Type
REMARK                         _______ _______ _______ _____ _____    ______ ____
ROOT
ATOM      1  C   UNL     1      44.975   5.115  11.547  0.00  0.00    +0.000 A 
ATOM      2  C   UNL     1      44.919   6.503  11.455  0.00  0.00    +0.000 A 
ATOM      3  C   UNL     1      45.751   7.270  12.269  0.00  0.00    +0.000 A 
ATOM      4  C   UNL     1      46.617   6.642  13.168  0.00  0.00    +0.000 A 
ATOM      5  C   UNL     1      46.605   5.253  13.193  0.00  0.00    +0.000 A 
ATOM      6  N   UNL     1      45.806   4.482  12.416  0.00  0.00    +0.000 NA
ENDROOT
BRANCH   1   7
ATOM      7  C   UNL     1      44.148   4.251  10.619  0.00  0.00    +0.000 C 
BRANCH   7  11
ATOM      8  C   UNL     1      46.409   2.649   7.291  0.00  0.00    +0.000 A 
ATOM      9  C   UNL     1      45.838   1.787   8.232  0.00  0.00    +0.000 A 
ATOM     10  C   UNL     1      45.099   2.311   9.297  0.00  0.00    +0.000 A 
ATOM     11  C   UNL     1      44.933   3.697   9.446  0.00  0.00    +0.000 A 
ATOM     12  C   UNL     1      45.508   4.552   8.496  0.00  0.00    +0.000 A 
ATOM     13  C   UNL     1      46.247   4.031   7.428  0.00  0.00    +0.000 A 
BRANCH   8  15
ATOM     14  N   UNL     1      48.509   1.771   6.420  0.00  0.00    +0.000 N 
ATOM     15  C   UNL     1      47.218   2.138   6.154  0.00  0.00    +0.000 C 
ATOM     16  O   UNL     1      46.746   2.016   5.031  0.00  0.00    +0.000 OA
ATOM     17  H   UNL     1      49.012   1.319   5.666  0.00  0.00    +0.000 HD
ATOM     18  H   UNL     1      48.844   1.624   7.361  0.00  0.00    +0.000 HD
ENDBRANCH   8  15
ENDBRANCH   7  11
ENDBRANCH   1   7
BRANCH   4  19
ATOM     19  C   UNL     1      47.574   7.429  14.014  0.00  0.00    +0.000 C 
BRANCH  19  20
ATOM     20  N   UNL     1      48.120   6.610  15.069  0.00  0.00    +0.000 N 
ATOM     21  C   UNL     1      48.914   7.136  16.053  0.00  0.00    +0.000 C 
ATOM     22  O   UNL     1      49.167   8.337  16.114  0.00  0.00    +0.000 OA
ATOM     23  H   UNL     1      48.134   5.608  14.907  0.00  0.00    +0.000 HD
BRANCH  21  24
ATOM     24  C   UNL     1      49.395   6.195  17.072  0.00  0.00    +0.000 A 
ATOM     25  C   UNL     1      48.493   5.618  17.960  0.00  0.00    +0.000 A 
ATOM     26  S   UNL     1      49.207   4.496  19.028  0.00  0.00    +0.000 S 
ATOM     27  C   UNL     1      50.755   4.784  18.382  0.00  0.00    +0.000 A 
ATOM     28  N   UNL     1      51.849   4.142  18.874  0.00  0.00    +0.000 NA
ATOM     29  C   UNL     1      52.962   4.478  18.312  0.00  0.00    +0.000 A 
ATOM     30  N   UNL     1      53.081   5.394  17.299  0.00  0.00    +0.000 N 
ATOM     31  C   UNL     1      52.001   6.047  16.754  0.00  0.00    +0.000 A 
ATOM     32  O   UNL     1      52.135   6.838  15.826  0.00  0.00    +0.000 OA
ATOM     33  C   UNL     1      50.725   5.710  17.356  0.00  0.00    +0.000 A 
ATOM     34  H   UNL     1      53.983   5.608  16.899  0.00  0.00    +0.000 HD
ENDBRANCH  21  24
ENDBRANCH  19  20
ENDBRANCH   4  19
TORSDOF 6
ENDMDL
MODEL 6
REMARK VINA RESULT:    -7.547      2.939      4.917
REMARK INTER + INTRA:         -11.089
REMARK INTER:                 -10.131
REMARK INTRA:                  -0.958
REMARK UNBOUND:                -0.894
REMARK  Name = 
REMARK  6 active torsions:
REMARK  status: ('A' for Active; 'I' for Inactive)
REMARK    1  A    between atoms: C_2  and  C_4
REMARK    2  A    between atoms: C_7  and  C_8
REMARK    3  A    between atoms: C_8  and  C_9
REMARK    4  A    between atoms: C_12  and  C_13
REMARK    5  A    between atoms: C_13  and  N_14
REMARK    6  A    between atoms: C_15  and  C_17
REMARK                            x       y       z     vdW  Elec       q    Type
REMARK                         _______ _______ _______ _____ _____    ______ ____
ROOT
ATOM      1  C   UNL     1      45.026   4.157  11.345  0.00  0.00    +0.000 A 
ATOM      2  C   UNL     1      45.343   5.511  11.271  0.00  0.00    +0.000 A 
ATOM      3  C   UNL     1      46.129   6.077  12.272  0.00  0.00    +0.000 A 
ATOM      4  C   UNL     1      46.579   5.289  13.334  0.00  0.00    +0.000 A 
ATOM      5  C   UNL     1      46.213   3.949  13.327  0.00  0.00    +0.000 A 
ATOM      6  N   UNL     1      45.449   3.371  12.370  0.00  0.00    +0.000 NA
ENDROOT
BRANCH   1   7
ATOM      7  C   UNL     1      44.245   3.490  10.232  0.00  0.00    +0.000 C 
BRANCH   7  11
ATOM      8  C   UNL     1      46.689   2.255   6.876  0.00  0.00    +0.000 A 
ATOM      9  C   UNL     1      46.272   3.585   6.990  0.00  0.00    +0.000 A 
ATOM     10  C   UNL     1      45.493   3.979   8.082  0.00  0.00    +0.000 A 
ATOM     11  C   UNL     1      45.108   3.053   9.064  0.00  0.00    +0.000 A 
ATOM     12  C   UNL     1      45.534   1.723   8.943  0.00  0.00    +0.000 A 
ATOM     13  C   UNL     1      46.315   1.325   7.852  0.00  0.00    +0.000 A 
BRANCH   8  15
ATOM     14  N   UNL     1      48.262   2.721   5.075  0.00  0.00    +0.000 N 
ATOM     15  C   UNL     1      47.501   1.788   5.723  0.00  0.00    +0.000 C 
ATOM     16  O   UNL     1      47.520   0.611   5.383  0.00  0.00    +0.000 OA
ATOM     17  H   UNL     1      48.896   2.371   4.367  0.00  0.00    +0.000 HD
ATOM     18  H   UNL     1      48.461   3.626   5.475  0.00  0.00    +0.000 HD
ENDBRANCH   8  15
ENDBRANCH   7  11
ENDBRANCH   1   7
BRANCH   4  19
ATOM     19  C   UNL     1      47.481   5.845  14.396  0.00  0.00    +0.000 C 
BRANCH  19  20
ATOM     20  N   UNL     1      48.537   6.635  13.812  0.00  0.00    +0.000 N 
ATOM     21  C   UNL     1      48.658   7.977  14.058  0.00  0.00    +0.000 C 
ATOM     22  O   UNL     1      47.899   8.569  14.823  0.00  0.00    +0.000 OA
ATOM     23  H   UNL     1      49.011   6.238  13.005  0.00  0.00    +0.000 HD
BRANCH  21  24
ATOM     24  C   UNL     1      49.784   8.659  13.409  0.00  0.00    +0.000 A 
ATOM     25  C   UNL     1      51.081   8.422  13.849  0.00  0.00    +0.000 A 
ATOM     26  S   UNL     1      52.272   9.237  12.940  0.00  0.00    +0.000 S 
ATOM     27  C   UNL     1      51.094   9.981  11.962  0.00  0.00    +0.000 A 
ATOM     28  N   UNL     1      51.449  10.843  10.973  0.00  0.00    +0.000 NA
ATOM     29  C   UNL     1      50.454  11.357  10.330  0.00  0.00    +0.000 A 
ATOM     30  N   UNL     1      49.135  11.084  10.585  0.00  0.00    +0.000 N 
ATOM     31  C   UNL     1      48.731  10.202  11.557  0.00  0.00    +0.000 A 
ATOM     32  O   UNL     1      47.543   9.953  11.741  0.00  0.00    +0.000 OA
ATOM     33  C   UNL     1      49.812   9.600  12.315  0.00  0.00    +0.000 A 
ATOM     34  H   UNL     1      48.402  11.517  10.041  0.00  0.00    +0.000 HD
ENDBRANCH  21  24
ENDBRANCH  19  20
ENDBRANCH   4  19
TORSDOF 6
ENDMDL
MODEL 7
REMARK VINA RESULT:    -7.466      3.773      8.485
REMARK INTER + INTRA:         -10.979
REMARK INTER:                 -10.010
REMARK INTRA:                  -0.969
REMARK UNBOUND:                -0.894
REMARK  Name = 
REMARK  6 active torsions:
REMARK  status: ('A' for Active; 'I' for Inactive)
REMARK    1  A    between atoms: C_2  and  C_4
REMARK    2  A    between atoms: C_7  and  C_8
REMARK    3  A    between atoms: C_8  and  C_9
REMARK    4  A    between atoms: C_12  and  C_13
REMARK    5  A    between atoms: C_13  and  N_14
REMARK    6  A    between atoms: C_15  and  C_17
REMARK                            x       y       z     vdW  Elec       q    Type
REMARK                         _______ _______ _______ _____ _____    ______ ____
ROOT
ATOM      1  C   UNL     1      49.547   6.001  16.737  0.00  0.00    +0.000 A 
ATOM      2  C   UNL     1      48.346   5.599  16.160  0.00  0.00    +0.000 A 
ATOM      3  C   UNL     1      48.014   6.071  14.890  0.00  0.00    +0.000 A 
ATOM      4  C   UNL     1      48.880   6.940  14.223  0.00  0.00    +0.000 A 
ATOM      5  C   UNL     1      50.056   7.288  14.875  0.00  0.00    +0.000 A 
ATOM      6  N   UNL     1      50.403   6.848  16.109  0.00  0.00    +0.000 NA
ENDROOT
BRANCH   1   7
ATOM      7  C   UNL     1      49.978   5.442  18.077  0.00  0.00    +0.000 C 
BRANCH   7  11
ATOM      8  C   UNL     1      52.305   1.803  17.752  0.00  0.00    +0.000 A 
ATOM      9  C   UNL     1      52.898   2.977  18.228  0.00  0.00    +0.000 A 
ATOM     10  C   UNL     1      52.138   4.144  18.341  0.00  0.00    +0.000 A 
ATOM     11  C   UNL     1      50.784   4.162  17.969  0.00  0.00    +0.000 A 
ATOM     12  C   UNL     1      50.198   2.980  17.495  0.00  0.00    +0.000 A 
ATOM     13  C   UNL     1      50.956   1.809  17.381  0.00  0.00    +0.000 A 
BRANCH   8  15
ATOM     14  N   UNL     1      52.774  -0.485  18.443  0.00  0.00    +0.000 N 
ATOM     15  C   UNL     1      53.078   0.545  17.596  0.00  0.00    +0.000 C 
ATOM     16  O   UNL     1      53.931   0.415  16.726  0.00  0.00    +0.000 OA
ATOM     17  H   UNL     1      53.227  -1.371  18.253  0.00  0.00    +0.000 HD
ATOM     18  H   UNL     1      51.926  -0.500  18.990  0.00  0.00    +0.000 HD
ENDBRANCH   8  15
ENDBRANCH   7  11
ENDBRANCH   1   7
BRANCH   4  19
ATOM     19  C   UNL     1      48.591   7.418  12.830  0.00  0.00    +0.000 C 
BRANCH  19  20
ATOM     20  N   UNL     1      47.772   6.465  12.120  0.00  0.00    +0.000 N 
ATOM     21  C   UNL     1      46.519   6.784  11.670  0.00  0.00    +0.000 C 
ATOM     22  O   UNL     1      46.043   7.908  11.810  0.00  0.00    +0.000 OA
ATOM     23  H   UNL     1      48.031   5.487  12.208  0.00  0.00    +0.000 HD
BRANCH  21  24
ATOM     24  C   UNL     1      45.797   5.725  10.952  0.00  0.00    +0.000 A 
ATOM     25  C   UNL     1      45.899   5.637   9.568  0.00  0.00    +0.000 A 
ATOM     26  S   UNL     1      45.058   4.310   8.904  0.00  0.00    +0.000 S 
ATOM     27  C   UNL     1      44.481   3.839  10.435  0.00  0.00    +0.000 A 
ATOM     28  N   UNL     1      43.666   2.760  10.574  0.00  0.00    +0.000 NA
ATOM     29  C   UNL     1      43.279   2.535  11.785  0.00  0.00    +0.000 A 
ATOM     30  N   UNL     1      43.638   3.290  12.873  0.00  0.00    +0.000 N 
ATOM     31  C   UNL     1      44.478   4.373  12.783  0.00  0.00    +0.000 A 
ATOM     32  O   UNL     1      44.807   5.011  13.779  0.00  0.00    +0.000 OA
ATOM     33  C   UNL     1      44.936   4.674  11.440  0.00  0.00    +0.000 A 
ATOM     34  H   UNL     1      43.304   3.057  13.797  0.00  0.00    +0.000 HD
ENDBRANCH  21  24
ENDBRANCH  19  20
ENDBRANCH   4  19
TORSDOF 6
ENDMDL
MODEL 8
REMARK VINA RESULT:    -7.235      3.115      4.521
REMARK INTER + INTRA:         -10.667
REMARK INTER:                  -9.815
REMARK INTRA:                  -0.852
REMARK UNBOUND:                -0.894
REMARK  Name = 
REMARK  6 active torsions:
REMARK  status: ('A' for Active; 'I' for Inactive)
REMARK    1  A    between atoms: C_2  and  C_4
REMARK    2  A    between atoms: C_7  and  C_8
REMARK    3  A    between atoms: C_8  and  C_9
REMARK    4  A    between atoms: C_12  and  C_13
REMARK    5  A    between atoms: C_13  and  N_14
REMARK    6  A    between atoms: C_15  and  C_17
REMARK                            x       y       z     vdW  Elec       q    Type
REMARK                         _______ _______ _______ _____ _____    ______ ____
ROOT
ATOM      1  C   UNL     1      45.038   4.232  11.240  0.00  0.00    +0.000 A 
ATOM      2  C   UNL     1      45.378   5.567  11.040  0.00  0.00    +0.000 A 
ATOM      3  C   UNL     1      46.152   6.219  11.998  0.00  0.00    +0.000 A 
ATOM      4  C   UNL     1      46.566   5.534  13.143  0.00  0.00    +0.000 A 
ATOM      5  C   UNL     1      46.180   4.205  13.260  0.00  0.00    +0.000 A 
ATOM      6  N   UNL     1      45.426   3.546  12.347  0.00  0.00    +0.000 NA
ENDROOT
BRANCH   1   7
ATOM      7  C   UNL     1      44.271   3.469  10.181  0.00  0.00    +0.000 C 
BRANCH   7  11
ATOM      8  C   UNL     1      46.697   2.238   6.810  0.00  0.00    +0.000 A 
ATOM      9  C   UNL     1      46.260   3.563   6.916  0.00  0.00    +0.000 A 
ATOM     10  C   UNL     1      45.488   3.955   8.012  0.00  0.00    +0.000 A 
ATOM     11  C   UNL     1      45.128   3.033   9.008  0.00  0.00    +0.000 A 
ATOM     12  C   UNL     1      45.573   1.709   8.895  0.00  0.00    +0.000 A 
ATOM     13  C   UNL     1      46.347   1.312   7.799  0.00  0.00    +0.000 A 
BRANCH   8  15
ATOM     14  N   UNL     1      48.252   2.708   4.995  0.00  0.00    +0.000 N 
ATOM     15  C   UNL     1      47.503   1.772   5.654  0.00  0.00    +0.000 C 
ATOM     16  O   UNL     1      47.528   0.594   5.318  0.00  0.00    +0.000 OA
ATOM     17  H   UNL     1      48.883   2.359   4.283  0.00  0.00    +0.000 HD
ATOM     18  H   UNL     1      48.447   3.616   5.389  0.00  0.00    +0.000 HD
ENDBRANCH   8  15
ENDBRANCH   7  11
ENDBRANCH   1   7
BRANCH   4  19
ATOM     19  C   UNL     1      47.454   6.180  14.165  0.00  0.00    +0.000 C 
BRANCH  19  20
ATOM     20  N   UNL     1      48.696   6.609  13.570  0.00  0.00    +0.000 N 
ATOM     21  C   UNL     1      49.036   7.933  13.482  0.00  0.00    +0.000 C 
ATOM     22  O   UNL     1      48.321   8.821  13.943  0.00  0.00    +0.000 OA
ATOM     23  H   UNL     1      49.172   5.938  12.975  0.00  0.00    +0.000 HD
BRANCH  21  24
ATOM     24  C   UNL     1      50.333   8.232  12.863  0.00  0.00    +0.000 A 
ATOM     25  C   UNL     1      50.455   8.226  11.478  0.00  0.00    +0.000 A 
ATOM     26  S   UNL     1      52.008   8.664  10.925  0.00  0.00    +0.000 S 
ATOM     27  C   UNL     1      52.589   8.822  12.517  0.00  0.00    +0.000 A 
ATOM     28  N   UNL     1      53.883   9.164  12.759  0.00  0.00    +0.000 NA
ATOM     29  C   UNL     1      54.196   9.219  14.010  0.00  0.00    +0.000 A 
ATOM     30  N   UNL     1      53.331   8.965  15.044  0.00  0.00    +0.000 N 
ATOM     31  C   UNL     1      52.010   8.640  14.847  0.00  0.00    +0.000 A 
ATOM     32  O   UNL     1      51.252   8.450  15.793  0.00  0.00    +0.000 OA
ATOM     33  C   UNL     1      51.608   8.559  13.456  0.00  0.00    +0.000 A 
ATOM     34  H   UNL     1      53.638   9.030  16.003  0.00  0.00    +0.000 HD
ENDBRANCH  21  24
ENDBRANCH  19  20
ENDBRANCH   4  19
TORSDOF 6
ENDMDL
MODEL 9
REMARK VINA RESULT:    -7.103      2.595      2.782
REMARK INTER + INTRA:         -10.489
REMARK INTER:                  -9.367
REMARK INTRA:                  -1.121
REMARK UNBOUND:                -0.894
REMARK  Name = 
REMARK  6 active torsions:
REMARK  status: ('A' for Active; 'I' for Inactive)
REMARK    1  A    between atoms: C_2  and  C_4
REMARK    2  A    between atoms: C_7  and  C_8
REMARK    3  A    between atoms: C_8  and  C_9
REMARK    4  A    between atoms: C_12  and  C_13
REMARK    5  A    between atoms: C_13  and  N_14
REMARK    6  A    between atoms: C_15  and  C_17
REMARK                            x       y       z     vdW  Elec       q    Type
REMARK                         _______ _______ _______ _____ _____    ______ ____
ROOT
ATOM      1  C   UNL     1      44.899   5.462  11.527  0.00  0.00    +0.000 A 
ATOM      2  C   UNL     1      45.999   5.209  12.342  0.00  0.00    +0.000 A 
ATOM      3  C   UNL     1      46.596   6.271  13.021  0.00  0.00    +0.000 A 
ATOM      4  C   UNL     1      46.093   7.565  12.869  0.00  0.00    +0.000 A 
ATOM      5  C   UNL     1      44.993   7.723  12.035  0.00  0.00    +0.000 A 
ATOM      6  N   UNL     1      44.394   6.712  11.361  0.00  0.00    +0.000 NA
ENDROOT
BRANCH   1   7
ATOM      7  C   UNL     1      44.175   4.322  10.842  0.00  0.00    +0.000 C 
BRANCH   7  11
ATOM      8  C   UNL     1      46.342   2.673   7.473  0.00  0.00    +0.000 A 
ATOM      9  C   UNL     1      45.762   1.823   8.420  0.00  0.00    +0.000 A 
ATOM     10  C   UNL     1      45.054   2.362   9.498  0.00  0.00    +0.000 A 
ATOM     11  C   UNL     1      44.928   3.751   9.655  0.00  0.00    +0.000 A 
ATOM     12  C   UNL     1      45.510   4.595   8.700  0.00  0.00    +0.000 A 
ATOM     13  C   UNL     1      46.219   4.059   7.619  0.00  0.00    +0.000 A 
BRANCH   8  15
ATOM     14  N   UNL     1      48.051   1.180   6.588  0.00  0.00    +0.000 N 
ATOM     15  C   UNL     1      47.120   2.146   6.323  0.00  0.00    +0.000 C 
ATOM     16  O   UNL     1      46.918   2.530   5.178  0.00  0.00    +0.000 OA
ATOM     17  H   UNL     1      48.492   0.748   5.785  0.00  0.00    +0.000 HD
ATOM     18  H   UNL     1      48.067   0.671   7.460  0.00  0.00    +0.000 HD
ENDBRANCH   8  15
ENDBRANCH   7  11
ENDBRANCH   1   7
BRANCH   4  19
ATOM     19  C   UNL     1      46.665   8.722  13.633  0.00  0.00    +0.000 C 
BRANCH  19  20
ATOM     20  N   UNL     1      47.684   8.278  14.552  0.00  0.00    +0.000 N 
ATOM     21  C   UNL     1      48.964   8.763  14.502  0.00  0.00    +0.000 C 
ATOM     22  O   UNL     1      49.300   9.632  13.700  0.00  0.00    +0.000 OA
ATOM     23  H   UNL     1      47.507   7.408  15.044  0.00  0.00    +0.000 HD
BRANCH  21  24
ATOM     24  C   UNL     1      49.900   8.235  15.502  0.00  0.00    +0.000 A 
ATOM     25  C   UNL     1      51.070   7.607  15.089  0.00  0.00    +0.000 A 
ATOM     26  S   UNL     1      52.075   7.119  16.377  0.00  0.00    +0.000 S 
ATOM     27  C   UNL     1      50.958   7.677  17.533  0.00  0.00    +0.000 A 
ATOM     28  N   UNL     1      51.203   7.543  18.864  0.00  0.00    +0.000 NA
ATOM     29  C   UNL     1      50.258   7.982  19.628  0.00  0.00    +0.000 A 
ATOM     30  N   UNL     1      49.091   8.547  19.180  0.00  0.00    +0.000 N 
ATOM     31  C   UNL     1      48.813   8.725  17.847  0.00  0.00    +0.000 A 
ATOM     32  O   UNL     1      47.774   9.264  17.477  0.00  0.00    +0.000 OA
ATOM     33  C   UNL     1      49.841   8.242  16.944  0.00  0.00    +0.000 A 
ATOM     34  H   UNL     1      48.393   8.876  19.831  0.00  0.00    +0.000 HD
ENDBRANCH  21  24
ENDBRANCH  19  20
ENDBRANCH   4  19
TORSDOF 6
ENDMDL
