MODEL 1
REMARK VINA RESULT:    -7.217      0.000      0.000
REMARK INTER + INTRA:          -9.649
REMARK INTER:                  -8.904
REMARK INTRA:                  -0.745
REMARK UNBOUND:                -0.745
REMARK  Name = 
REMARK  4 active torsions:
REMARK  status: ('A' for Active; 'I' for Inactive)
REMARK    1  A    between atoms: C_4  and  O_5
REMARK    2  A    between atoms: O_5  and  C_6
REMARK    3  A    between atoms: C_6  and  C_7
REMARK    4  A    between atoms: C_11  and  C_12
REMARK                            x       y       z     vdW  Elec       q    Type
REMARK                         _______ _______ _______ _____ _____    ______ ____
ROOT
ATOM      1  C   UNL     1      45.065   4.692  12.012  0.00  0.00    +0.000 A 
ATOM      2  C   UNL     1      45.342   3.596  12.823  0.00  0.00    +0.000 A 
ATOM      3  N   UNL     1      46.426   3.479  13.624  0.00  0.00    +0.000 NA
ATOM      4  C   UNL     1      47.301   4.514  13.616  0.00  0.00    +0.000 A 
ATOM      5  C   UNL     1      47.174   5.667  12.841  0.00  0.00    +0.000 A 
ATOM      6  C   UNL     1      46.030   5.718  12.029  0.00  0.00    +0.000 A 
ENDROOT
BRANCH   5   7
ATOM      7  C   UNL     1      48.155   6.773  12.888  0.00  0.00    +0.000 A 
ATOM      8  C   UNL     1      48.888   7.058  14.049  0.00  0.00    +0.000 A 
ATOM      9  C   UNL     1      49.808   8.099  14.037  0.00  0.00    +0.000 A 
ATOM     10  N   UNL     1      50.051   8.878  12.967  0.00  0.00    +0.000 NA
ATOM     11  C   UNL     1      49.341   8.598  11.854  0.00  0.00    +0.000 A 
ATOM     12  C   UNL     1      48.403   7.579  11.768  0.00  0.00    +0.000 A 
ENDBRANCH   5   7
BRANCH   1  13
ATOM     13  C   UNL     1      43.793   4.814  11.195  0.00  0.00    +0.000 C 
ATOM     14  C   UNL     1      42.510   5.287  11.867  0.00  0.00    +0.000 C 
ATOM     15  C   UNL     1      43.246   6.207  10.950  0.00  0.00    +0.000 C 
BRANCH  13  16
ATOM     16  O   UNL     1      43.505   3.765  10.237  0.00  0.00    +0.000 OA
BRANCH  16  20
ATOM     17  C   UNL     1      46.497   2.751   7.615  0.00  0.00    +0.000 A 
ATOM     18  C   UNL     1      45.904   1.770   8.401  0.00  0.00    +0.000 A 
ATOM     19  C   UNL     1      44.880   2.124   9.272  0.00  0.00    +0.000 A 
ATOM     20  C   UNL     1      44.513   3.459   9.342  0.00  0.00    +0.000 A 
ATOM     21  N   UNL     1      45.057   4.433   8.580  0.00  0.00    +0.000 NA
ATOM     22  C   UNL     1      46.035   4.053   7.729  0.00  0.00    +0.000 A 
ENDBRANCH  16  20
ENDBRANCH  13  16
ENDBRANCH   1  13
TORSDOF 4
ENDMDL
MODEL 2
REMARK VINA RESULT:    -6.666      2.262      6.397
REMARK INTER + INTRA:          -8.970
REMARK INTER:                  -8.349
REMARK INTRA:                  -0.621
REMARK UNBOUND:                -0.745
REMARK  Name = 
REMARK  4 active torsions:
REMARK  status: ('A' for Active; 'I' for Inactive)
REMARK    1  A    between atoms: C_4  and  O_5
REMARK    2  A    between atoms: O_5  and  C_6
REMARK    3  A    between atoms: C_6  and  C_7
REMARK    4  A    between atoms: C_11  and  C_12
REMARK                            x       y       z     vdW  Elec       q    Type
REMARK                         _______ _______ _______ _____ _____    ______ ____
ROOT
ATOM      1  C   UNL     1      45.312   6.230  11.294  0.00  0.00    +0.000 A 
ATOM      2  C   UNL     1      43.932   6.162  11.456  0.00  0.00    +0.000 A 
ATOM      3  N   UNL     1      43.117   5.302  10.803  0.00  0.00    +0.000 NA
ATOM      4  C   UNL     1      43.706   4.458   9.922  0.00  0.00    +0.000 A 
ATOM      5  C   UNL     1      45.070   4.422   9.634  0.00  0.00    +0.000 A 
ATOM      6  C   UNL     1      45.855   5.345  10.342  0.00  0.00    +0.000 A 
ENDROOT
BRANCH   5   7
ATOM      7  C   UNL     1      45.659   3.463   8.673  0.00  0.00    +0.000 A 
ATOM      8  C   UNL     1      46.295   3.892   7.500  0.00  0.00    +0.000 A 
ATOM      9  C   UNL     1      46.844   2.952   6.638  0.00  0.00    +0.000 A 
ATOM     10  N   UNL     1      46.805   1.623   6.848  0.00  0.00    +0.000 NA
ATOM     11  C   UNL     1      46.192   1.217   7.979  0.00  0.00    +0.000 A 
ATOM     12  C   UNL     1      45.615   2.080   8.901  0.00  0.00    +0.000 A 
ENDBRANCH   5   7
BRANCH   1  13
ATOM     13  C   UNL     1      46.194   7.154  12.111  0.00  0.00    +0.000 C 
ATOM     14  C   UNL     1      46.229   8.642  11.786  0.00  0.00    +0.000 C 
ATOM     15  C   UNL     1      45.509   8.169  13.006  0.00  0.00    +0.000 C 
BRANCH  13  16
ATOM     16  O   UNL     1      47.518   6.683  12.467  0.00  0.00    +0.000 OA
BRANCH  16  20
ATOM     17  C   UNL     1      47.812   4.811  16.109  0.00  0.00    +0.000 A 
ATOM     18  C   UNL     1      46.997   4.274  15.119  0.00  0.00    +0.000 A 
ATOM     19  C   UNL     1      46.920   4.909  13.884  0.00  0.00    +0.000 A 
ATOM     20  C   UNL     1      47.642   6.078  13.703  0.00  0.00    +0.000 A 
ATOM     21  N   UNL     1      48.456   6.615  14.638  0.00  0.00    +0.000 NA
ATOM     22  C   UNL     1      48.525   5.964  15.819  0.00  0.00    +0.000 A 
ENDBRANCH  16  20
ENDBRANCH  13  16
ENDBRANCH   1  13
TORSDOF 4
ENDMDL
MODEL 3
REMARK VINA RESULT:    -6.514      3.026      6.561
REMARK INTER + INTRA:          -8.783
REMARK INTER:                  -8.207
REMARK INTRA:                  -0.576
REMARK UNBOUND:                -0.745
REMARK  Name = 
REMARK  4 active torsions:
REMARK  status: ('A' for Active; 'I' for Inactive)
REMARK    1  A    between atoms: C_4  and  O_5
REMARK    2  A    between atoms: O_5  and  C_6
REMARK    3  A    between atoms: C_6  and  C_7
REMARK    4  A    between atoms: C_11  and  C_12
REMARK                            x       y       z     vdW  Elec       q    Type
REMARK                         _______ _______ _______ _____ _____    ______ ____
ROOT
ATOM      1  C   UNL     1      45.034   6.419  11.507  0.00  0.00    +0.000 A 
ATOM      2  C   UNL     1      43.700   6.150  11.800  0.00  0.00    +0.000 A 
ATOM      3  N   UNL     1      42.970   5.156  11.243  0.00  0.00    +0.000 NA
ATOM      4  C   UNL     1      43.600   4.381  10.327  0.00  0.00    +0.000 A 
ATOM      5  C   UNL     1      44.922   4.541   9.912  0.00  0.00    +0.000 A 
ATOM      6  C   UNL     1      45.617   5.595  10.526  0.00  0.00    +0.000 A 
ENDROOT
BRANCH   5   7
ATOM      7  C   UNL     1      45.561   3.650   8.919  0.00  0.00    +0.000 A 
ATOM      8  C   UNL     1      46.258   4.159   7.815  0.00  0.00    +0.000 A 
ATOM      9  C   UNL     1      46.852   3.280   6.918  0.00  0.00    +0.000 A 
ATOM     10  N   UNL     1      46.803   1.939   7.032  0.00  0.00    +0.000 NA
ATOM     11  C   UNL     1      46.130   1.457   8.098  0.00  0.00    +0.000 A 
ATOM     12  C   UNL     1      45.506   2.255   9.047  0.00  0.00    +0.000 A 
ENDBRANCH   5   7
BRANCH   1  13
ATOM     13  C   UNL     1      45.834   7.492  12.220  0.00  0.00    +0.000 C 
ATOM     14  C   UNL     1      46.892   7.088  13.240  0.00  0.00    +0.000 C 
ATOM     15  C   UNL     1      47.314   7.593  11.900  0.00  0.00    +0.000 C 
BRANCH  13  16
ATOM     16  O   UNL     1      45.128   8.676  12.666  0.00  0.00    +0.000 OA
BRANCH  16  20
ATOM     17  C   UNL     1      44.828  11.730   9.938  0.00  0.00    +0.000 A 
ATOM     18  C   UNL     1      43.936  10.664   9.885  0.00  0.00    +0.000 A 
ATOM     19  C   UNL     1      44.038   9.646  10.825  0.00  0.00    +0.000 A 
ATOM     20  C   UNL     1      45.054   9.722  11.765  0.00  0.00    +0.000 A 
ATOM     21  N   UNL     1      45.925  10.751  11.855  0.00  0.00    +0.000 NA
ATOM     22  C   UNL     1      45.786  11.735  10.940  0.00  0.00    +0.000 A 
ENDBRANCH  16  20
ENDBRANCH  13  16
ENDBRANCH   1  13
TORSDOF 4
ENDMDL
MODEL 4
REMARK VINA RESULT:    -6.287      2.002      3.161
REMARK INTER + INTRA:          -8.503
REMARK INTER:                  -8.425
REMARK INTRA:                  -0.078
REMARK UNBOUND:                -0.745
REMARK  Name = 
REMARK  4 active torsions:
REMARK  status: ('A' for Active; 'I' for Inactive)
REMARK    1  A    between atoms: C_4  and  O_5
REMARK    2  A    between atoms: O_5  and  C_6
REMARK    3  A    between atoms: C_6  and  C_7
REMARK    4  A    between atoms: C_11  and  C_12
REMARK                            x       y       z     vdW  Elec       q    Type
REMARK                         _______ _______ _______ _____ _____    ______ ____
ROOT
ATOM      1  C   UNL     1      45.454   5.466  12.326  0.00  0.00    +0.000 A 
ATOM      2  C   UNL     1      46.240   6.435  11.709  0.00  0.00    +0.000 A 
ATOM      3  N   UNL     1      47.415   6.901  12.192  0.00  0.00    +0.000 NA
ATOM      4  C   UNL     1      47.836   6.381  13.370  0.00  0.00    +0.000 A 
ATOM      5  C   UNL     1      47.149   5.424  14.117  0.00  0.00    +0.000 A 
ATOM      6  C   UNL     1      45.936   4.990  13.561  0.00  0.00    +0.000 A 
ENDROOT
BRANCH   5   7
ATOM      7  C   UNL     1      47.670   4.879  15.390  0.00  0.00    +0.000 A 
ATOM      8  C   UNL     1      48.466   5.649  16.250  0.00  0.00    +0.000 A 
ATOM      9  C   UNL     1      48.918   5.096  17.441  0.00  0.00    +0.000 A 
ATOM     10  N   UNL     1      48.646   3.839  17.839  0.00  0.00    +0.000 NA
ATOM     11  C   UNL     1      47.880   3.104  17.007  0.00  0.00    +0.000 A 
ATOM     12  C   UNL     1      47.380   3.569  15.798  0.00  0.00    +0.000 A 
ENDBRANCH   5   7
BRANCH   1  13
ATOM     13  C   UNL     1      44.186   4.914  11.704  0.00  0.00    +0.000 C 
ATOM     14  C   UNL     1      42.844   5.171  12.379  0.00  0.00    +0.000 C 
ATOM     15  C   UNL     1      43.195   5.908  11.129  0.00  0.00    +0.000 C 
BRANCH  13  16
ATOM     16  O   UNL     1      44.230   3.571  11.161  0.00  0.00    +0.000 OA
BRANCH  16  20
ATOM     17  C   UNL     1      46.136   3.024   7.566  0.00  0.00    +0.000 A 
ATOM     18  C   UNL     1      45.784   1.922   8.337  0.00  0.00    +0.000 A 
ATOM     19  C   UNL     1      45.124   2.121   9.544  0.00  0.00    +0.000 A 
ATOM     20  C   UNL     1      44.871   3.423   9.945  0.00  0.00    +0.000 A 
ATOM     21  N   UNL     1      45.182   4.513   9.210  0.00  0.00    +0.000 NA
ATOM     22  C   UNL     1      45.804   4.286   8.033  0.00  0.00    +0.000 A 
ENDBRANCH  16  20
ENDBRANCH  13  16
ENDBRANCH   1  13
TORSDOF 4
ENDMDL
MODEL 5
REMARK VINA RESULT:    -5.839      2.859      6.888
REMARK INTER + INTRA:          -7.950
REMARK INTER:                  -7.472
REMARK INTRA:                  -0.478
REMARK UNBOUND:                -0.745
REMARK  Name = 
REMARK  4 active torsions:
REMARK  status: ('A' for Active; 'I' for Inactive)
REMARK    1  A    between atoms: C_4  and  O_5
REMARK    2  A    between atoms: O_5  and  C_6
REMARK    3  A    between atoms: C_6  and  C_7
REMARK    4  A    between atoms: C_11  and  C_12
REMARK                            x       y       z     vdW  Elec       q    Type
REMARK                         _______ _______ _______ _____ _____    ______ ____
ROOT
ATOM      1  C   UNL     1      47.038   7.394  12.946  0.00  0.00    +0.000 A 
ATOM      2  C   UNL     1      46.111   8.432  12.906  0.00  0.00    +0.000 A 
ATOM      3  N   UNL     1      44.973   8.426  12.173  0.00  0.00    +0.000 NA
ATOM      4  C   UNL     1      44.741   7.322  11.422  0.00  0.00    +0.000 A 
ATOM      5  C   UNL     1      45.586   6.215  11.339  0.00  0.00    +0.000 A 
ATOM      6  C   UNL     1      46.750   6.291  12.119  0.00  0.00    +0.000 A 
ENDROOT
BRANCH   5   7
ATOM      7  C   UNL     1      45.269   5.029  10.512  0.00  0.00    +0.000 A 
ATOM      8  C   UNL     1      44.654   3.894  11.059  0.00  0.00    +0.000 A 
ATOM      9  C   UNL     1      44.365   2.812  10.237  0.00  0.00    +0.000 A 
ATOM     10  N   UNL     1      44.643   2.770   8.921  0.00  0.00    +0.000 NA
ATOM     11  C   UNL     1      45.234   3.866   8.402  0.00  0.00    +0.000 A 
ATOM     12  C   UNL     1      45.560   4.995   9.141  0.00  0.00    +0.000 A 
ENDBRANCH   5   7
BRANCH   1  13
ATOM     13  C   UNL     1      48.257   7.412  13.848  0.00  0.00    +0.000 C 
ATOM     14  C   UNL     1      49.382   8.402  13.572  0.00  0.00    +0.000 C 
ATOM     15  C   UNL     1      48.463   8.632  14.726  0.00  0.00    +0.000 C 
BRANCH  13  16
ATOM     16  O   UNL     1      48.798   6.138  14.276  0.00  0.00    +0.000 OA
BRANCH  16  20
ATOM     17  C   UNL     1      47.375   4.635  17.822  0.00  0.00    +0.000 A 
ATOM     18  C   UNL     1      46.916   4.116  16.617  0.00  0.00    +0.000 A 
ATOM     19  C   UNL     1      47.419   4.622  15.424  0.00  0.00    +0.000 A 
ATOM     20  C   UNL     1      48.342   5.654  15.488  0.00  0.00    +0.000 A 
ATOM     21  N   UNL     1      48.821   6.168  16.642  0.00  0.00    +0.000 NA
ATOM     22  C   UNL     1      48.328   5.641  17.783  0.00  0.00    +0.000 A 
ENDBRANCH  16  20
ENDBRANCH  13  16
ENDBRANCH   1  13
TORSDOF 4
ENDMDL
MODEL 6
REMARK VINA RESULT:    -5.615      3.453      5.154
REMARK INTER + INTRA:          -7.674
REMARK INTER:                  -7.422
REMARK INTRA:                  -0.251
REMARK UNBOUND:                -0.745
REMARK  Name = 
REMARK  4 active torsions:
REMARK  status: ('A' for Active; 'I' for Inactive)
REMARK    1  A    between atoms: C_4  and  O_5
REMARK    2  A    between atoms: O_5  and  C_6
REMARK    3  A    between atoms: C_6  and  C_7
REMARK    4  A    between atoms: C_11  and  C_12
REMARK                            x       y       z     vdW  Elec       q    Type
REMARK                         _______ _______ _______ _____ _____    ______ ____
ROOT
ATOM      1  C   UNL     1      47.330   5.551  14.037  0.00  0.00    +0.000 A 
ATOM      2  C   UNL     1      47.170   4.224  13.649  0.00  0.00    +0.000 A 
ATOM      3  N   UNL     1      47.325   3.155  14.464  0.00  0.00    +0.000 NA
ATOM      4  C   UNL     1      47.671   3.416  15.748  0.00  0.00    +0.000 A 
ATOM      5  C   UNL     1      47.890   4.687  16.278  0.00  0.00    +0.000 A 
ATOM      6  C   UNL     1      47.718   5.748  15.377  0.00  0.00    +0.000 A 
ENDROOT
BRANCH   5   7
ATOM      7  C   UNL     1      48.249   4.910  17.696  0.00  0.00    +0.000 A 
ATOM      8  C   UNL     1      49.473   4.473  18.223  0.00  0.00    +0.000 A 
ATOM      9  C   UNL     1      49.768   4.719  19.558  0.00  0.00    +0.000 A 
ATOM     10  N   UNL     1      48.942   5.360  20.407  0.00  0.00    +0.000 NA
ATOM     11  C   UNL     1      47.767   5.777  19.893  0.00  0.00    +0.000 A 
ATOM     12  C   UNL     1      47.384   5.579  18.573  0.00  0.00    +0.000 A 
ENDBRANCH   5   7
BRANCH   1  13
ATOM     13  C   UNL     1      47.063   6.720  13.108  0.00  0.00    +0.000 C 
ATOM     14  C   UNL     1      47.998   7.923  13.126  0.00  0.00    +0.000 C 
ATOM     15  C   UNL     1      48.051   6.963  11.984  0.00  0.00    +0.000 C 
BRANCH  13  16
ATOM     16  O   UNL     1      45.689   7.150  12.944  0.00  0.00    +0.000 OA
BRANCH  16  20
ATOM     17  C   UNL     1      43.093   4.336  11.461  0.00  0.00    +0.000 A 
ATOM     18  C   UNL     1      44.060   4.891  10.630  0.00  0.00    +0.000 A 
ATOM     19  C   UNL     1      44.943   5.830  11.150  0.00  0.00    +0.000 A 
ATOM     20  C   UNL     1      44.800   6.199  12.478  0.00  0.00    +0.000 A 
ATOM     21  N   UNL     1      43.884   5.665  13.316  0.00  0.00    +0.000 NA
ATOM     22  C   UNL     1      43.054   4.741  12.786  0.00  0.00    +0.000 A 
ENDBRANCH  16  20
ENDBRANCH  13  16
ENDBRANCH   1  13
TORSDOF 4
ENDMDL
MODEL 7
REMARK VINA RESULT:    -5.583      2.892      6.745
REMARK INTER + INTRA:          -7.634
REMARK INTER:                  -7.129
REMARK INTRA:                  -0.505
REMARK UNBOUND:                -0.745
REMARK  Name = 
REMARK  4 active torsions:
REMARK  status: ('A' for Active; 'I' for Inactive)
REMARK    1  A    between atoms: C_4  and  O_5
REMARK    2  A    between atoms: O_5  and  C_6
REMARK    3  A    between atoms: C_6  and  C_7
REMARK    4  A    between atoms: C_11  and  C_12
REMARK                            x       y       z     vdW  Elec       q    Type
REMARK                         _______ _______ _______ _____ _____    ______ ____
ROOT
ATOM      1  C   UNL     1      48.054   7.018  13.259  0.00  0.00    +0.000 A 
ATOM      2  C   UNL     1      48.343   6.425  14.485  0.00  0.00    +0.000 A 
ATOM      3  N   UNL     1      47.744   5.312  14.967  0.00  0.00    +0.000 NA
ATOM      4  C   UNL     1      46.786   4.754  14.188  0.00  0.00    +0.000 A 
ATOM      5  C   UNL     1      46.369   5.244  12.951  0.00  0.00    +0.000 A 
ATOM      6  C   UNL     1      47.029   6.404  12.515  0.00  0.00    +0.000 A 
ENDROOT
BRANCH   5   7
ATOM      7  C   UNL     1      45.328   4.578  12.137  0.00  0.00    +0.000 A 
ATOM      8  C   UNL     1      45.117   4.916  10.793  0.00  0.00    +0.000 A 
ATOM      9  C   UNL     1      44.136   4.251  10.068  0.00  0.00    +0.000 A 
ATOM     10  N   UNL     1      43.349   3.283  10.575  0.00  0.00    +0.000 NA
ATOM     11  C   UNL     1      43.559   2.964  11.869  0.00  0.00    +0.000 A 
ATOM     12  C   UNL     1      44.515   3.570  12.673  0.00  0.00    +0.000 A 
ENDBRANCH   5   7
BRANCH   1  13
ATOM     13  C   UNL     1      48.813   8.218  12.724  0.00  0.00    +0.000 C 
ATOM     14  C   UNL     1      50.332   8.162  12.624  0.00  0.00    +0.000 C 
ATOM     15  C   UNL     1      49.506   8.069  11.384  0.00  0.00    +0.000 C 
BRANCH  13  16
ATOM     16  O   UNL     1      48.382   9.534  13.151  0.00  0.00    +0.000 OA
BRANCH  16  20
ATOM     17  C   UNL     1      45.688  11.468  10.731  0.00  0.00    +0.000 A 
ATOM     18  C   UNL     1      47.034  11.814  10.683  0.00  0.00    +0.000 A 
ATOM     19  C   UNL     1      47.938  11.139  11.495  0.00  0.00    +0.000 A 
ATOM     20  C   UNL     1      47.449  10.163  12.349  0.00  0.00    +0.000 A 
ATOM     21  N   UNL     1      46.151   9.791  12.406  0.00  0.00    +0.000 NA
ATOM     22  C   UNL     1      45.301  10.452  11.590  0.00  0.00    +0.000 A 
ENDBRANCH  16  20
ENDBRANCH  13  16
ENDBRANCH   1  13
TORSDOF 4
ENDMDL
MODEL 8
REMARK VINA RESULT:    -5.570      4.281      8.275
REMARK INTER + INTRA:          -7.617
REMARK INTER:                  -7.105
REMARK INTRA:                  -0.512
REMARK UNBOUND:                -0.745
REMARK  Name = 
REMARK  4 active torsions:
REMARK  status: ('A' for Active; 'I' for Inactive)
REMARK    1  A    between atoms: C_4  and  O_5
REMARK    2  A    between atoms: O_5  and  C_6
REMARK    3  A    between atoms: C_6  and  C_7
REMARK    4  A    between atoms: C_11  and  C_12
REMARK                            x       y       z     vdW  Elec       q    Type
REMARK                         _______ _______ _______ _____ _____    ______ ____
ROOT
ATOM      1  C   UNL     1      47.688   4.987  15.776  0.00  0.00    +0.000 A 
ATOM      2  C   UNL     1      48.576   5.920  15.248  0.00  0.00    +0.000 A 
ATOM      3  N   UNL     1      48.483   6.464  14.013  0.00  0.00    +0.000 NA
ATOM      4  C   UNL     1      47.448   6.050  13.244  0.00  0.00    +0.000 A 
ATOM      5  C   UNL     1      46.493   5.106  13.622  0.00  0.00    +0.000 A 
ATOM      6  C   UNL     1      46.653   4.579  14.913  0.00  0.00    +0.000 A 
ENDROOT
BRANCH   5   7
ATOM      7  C   UNL     1      45.372   4.707  12.743  0.00  0.00    +0.000 A 
ATOM      8  C   UNL     1      45.235   3.392  12.275  0.00  0.00    +0.000 A 
ATOM      9  C   UNL     1      44.157   3.065  11.463  0.00  0.00    +0.000 A 
ATOM     10  N   UNL     1      43.210   3.941  11.078  0.00  0.00    +0.000 NA
ATOM     11  C   UNL     1      43.349   5.204  11.532  0.00  0.00    +0.000 A 
ATOM     12  C   UNL     1      44.390   5.626  12.348  0.00  0.00    +0.000 A 
ENDBRANCH   5   7
BRANCH   1  13
ATOM     13  C   UNL     1      47.786   4.469  17.198  0.00  0.00    +0.000 C 
ATOM     14  C   UNL     1      48.085   2.995  17.442  0.00  0.00    +0.000 C 
ATOM     15  C   UNL     1      49.147   4.014  17.688  0.00  0.00    +0.000 C 
BRANCH  13  16
ATOM     16  O   UNL     1      46.817   4.954  18.160  0.00  0.00    +0.000 OA
BRANCH  16  20
ATOM     17  C   UNL     1      48.050   7.910  20.729  0.00  0.00    +0.000 A 
ATOM     18  C   UNL     1      47.636   6.683  21.234  0.00  0.00    +0.000 A 
ATOM     19  C   UNL     1      47.238   5.685  20.352  0.00  0.00    +0.000 A 
ATOM     20  C   UNL     1      47.240   5.970  18.996  0.00  0.00    +0.000 A 
ATOM     21  N   UNL     1      47.654   7.145  18.472  0.00  0.00    +0.000 NA
ATOM     22  C   UNL     1      48.054   8.087  19.354  0.00  0.00    +0.000 A 
ENDBRANCH  16  20
ENDBRANCH  13  16
ENDBRANCH   1  13
TORSDOF 4
ENDMDL
MODEL 9
REMARK VINA RESULT:    -5.471      2.635      7.489
REMARK INTER + INTRA:          -7.496
REMARK INTER:                  -6.885
REMARK INTRA:                  -0.611
REMARK UNBOUND:                -0.745
REMARK  Name = 
REMARK  4 active torsions:
REMARK  status: ('A' for Active; 'I' for Inactive)
REMARK    1  A    between atoms: C_4  and  O_5
REMARK    2  A    between atoms: O_5  and  C_6
REMARK    3  A    between atoms: C_6  and  C_7
REMARK    4  A    between atoms: C_11  and  C_12
REMARK                            x       y       z     vdW  Elec       q    Type
REMARK                         _______ _______ _______ _____ _____    ______ ____
ROOT
ATOM      1  C   UNL     1      47.614   7.666  12.190  0.00  0.00    +0.000 A 
ATOM      2  C   UNL     1      46.788   8.785  12.226  0.00  0.00    +0.000 A 
ATOM      3  N   UNL     1      45.455   8.771  11.992  0.00  0.00    +0.000 NA
ATOM      4  C   UNL     1      44.904   7.570  11.692  0.00  0.00    +0.000 A 
ATOM      5  C   UNL     1      45.603   6.367  11.595  0.00  0.00    +0.000 A 
ATOM      6  C   UNL     1      46.981   6.456  11.844  0.00  0.00    +0.000 A 
ENDROOT
BRANCH   5   7
ATOM      7  C   UNL     1      44.941   5.082  11.282  0.00  0.00    +0.000 A 
ATOM      8  C   UNL     1      44.220   4.370  12.250  0.00  0.00    +0.000 A 
ATOM      9  C   UNL     1      43.605   3.174  11.901  0.00  0.00    +0.000 A 
ATOM     10  N   UNL     1      43.655   2.632  10.670  0.00  0.00    +0.000 NA
ATOM     11  C   UNL     1      44.351   3.323   9.744  0.00  0.00    +0.000 A 
ATOM     12  C   UNL     1      44.998   4.525   9.996  0.00  0.00    +0.000 A 
ENDBRANCH   5   7
BRANCH   1  13
ATOM     13  C   UNL     1      49.088   7.717  12.543  0.00  0.00    +0.000 C 
ATOM     14  C   UNL     1      50.127   7.745  11.429  0.00  0.00    +0.000 C 
ATOM     15  C   UNL     1      49.846   8.987  12.208  0.00  0.00    +0.000 C 
BRANCH  13  16
ATOM     16  O   UNL     1      49.548   6.892  13.642  0.00  0.00    +0.000 OA
BRANCH  16  20
ATOM     17  C   UNL     1      50.048   8.733  17.278  0.00  0.00    +0.000 A 
ATOM     18  C   UNL     1      51.144   8.179  16.626  0.00  0.00    +0.000 A 
ATOM     19  C   UNL     1      50.964   7.574  15.388  0.00  0.00    +0.000 A 
ATOM     20  C   UNL     1      49.681   7.521  14.866  0.00  0.00    +0.000 A 
ATOM     21  N   UNL     1      48.599   8.065  15.465  0.00  0.00    +0.000 NA
ATOM     22  C   UNL     1      48.811   8.664  16.657  0.00  0.00    +0.000 A 
ENDBRANCH  16  20
ENDBRANCH  13  16
ENDBRANCH   1  13
TORSDOF 4
ENDMDL
