MODEL 1
REMARK VINA RESULT:    -8.290      0.000      0.000
REMARK INTER + INTRA:         -12.284
REMARK INTER:                 -11.198
REMARK INTRA:                  -1.086
REMARK UNBOUND:                -1.086
REMARK  Name = 
REMARK  7 active torsions:
REMARK  status: ('A' for Active; 'I' for Inactive)
REMARK    1  A    between atoms: C_1  and  C_2
REMARK    2  A    between atoms: C_2  and  N_3
REMARK    3  A    between atoms: C_2  and  C_16
REMARK    4  A    between atoms: C_4  and  C_6
REMARK    5  A    between atoms: C_19  and  C_20
REMARK    6  A    between atoms: C_20  and  N_21
REMARK    7  A    between atoms: C_22  and  C_24
REMARK                            x       y       z     vdW  Elec       q    Type
REMARK                         _______ _______ _______ _____ _____    ______ ____
ROOT
ATOM      1  C   UNL     1      48.676   8.270  13.354  0.00  0.00    +0.000 C 
ATOM      2  C   UNL     1      48.435   6.879  13.946  0.00  0.00    +0.000 C 
ENDROOT
BRANCH   2   3
ATOM      3  C   UNL     1      47.299   6.152  13.238  0.00  0.00    +0.000 A 
ATOM      4  C   UNL     1      46.742   5.018  13.847  0.00  0.00    +0.000 A 
ATOM      5  C   UNL     1      45.785   4.237  13.189  0.00  0.00    +0.000 A 
ATOM      6  C   UNL     1      45.352   4.572  11.902  0.00  0.00    +0.000 A 
ATOM      7  C   UNL     1      45.842   5.749  11.321  0.00  0.00    +0.000 A 
ATOM      8  C   UNL     1      46.808   6.531  11.976  0.00  0.00    +0.000 A 
BRANCH   6   9
ATOM      9  C   UNL     1      44.412   3.665  11.151  0.00  0.00    +0.000 C 
BRANCH   9  10
ATOM     10  N   UNL     1      45.051   2.979  10.052  0.00  0.00    +0.000 N 
ATOM     11  C   UNL     1      44.892   3.428   8.756  0.00  0.00    +0.000 C 
ATOM     12  O   UNL     1      44.222   4.423   8.482  0.00  0.00    +0.000 OA
ATOM     13  H   UNL     1      45.682   2.218  10.264  0.00  0.00    +0.000 HD
BRANCH  11  14
ATOM     14  C   UNL     1      45.653   2.613   7.710  0.00  0.00    +0.000 C 
ATOM     15  C   UNL     1      46.107   1.259   8.278  0.00  0.00    +0.000 C 
ATOM     16  C   UNL     1      47.013   0.521   7.300  0.00  0.00    +0.000 C 
ATOM     17  O   UNL     1      48.119   1.336   6.917  0.00  0.00    +0.000 OA
ATOM     18  C   UNL     1      47.706   2.527   6.255  0.00  0.00    +0.000 C 
ATOM     19  C   UNL     1      46.864   3.390   7.182  0.00  0.00    +0.000 C 
ENDBRANCH  11  14
ENDBRANCH   9  10
ENDBRANCH   6   9
ENDBRANCH   2   3
BRANCH   2  20
ATOM     20  N   UNL     1      48.226   6.950  15.377  0.00  0.00    +0.000 N 
ATOM     21  C   UNL     1      49.209   6.618  16.278  0.00  0.00    +0.000 C 
ATOM     22  O   UNL     1      50.304   6.188  15.927  0.00  0.00    +0.000 OA
ATOM     23  H   UNL     1      47.295   7.184  15.704  0.00  0.00    +0.000 HD
BRANCH  21  24
ATOM     24  C   UNL     1      48.907   6.854  17.694  0.00  0.00    +0.000 A 
ATOM     25  C   UNL     1      48.736   8.150  18.163  0.00  0.00    +0.000 A 
ATOM     26  S   UNL     1      48.384   8.232  19.831  0.00  0.00    +0.000 S 
ATOM     27  C   UNL     1      48.489   6.544  19.993  0.00  0.00    +0.000 A 
ATOM     28  N   UNL     1      48.323   5.941  21.200  0.00  0.00    +0.000 NA
ATOM     29  C   UNL     1      48.463   4.657  21.181  0.00  0.00    +0.000 A 
ATOM     30  N   UNL     1      48.736   3.916  20.061  0.00  0.00    +0.000 N 
ATOM     31  C   UNL     1      48.856   4.476  18.811  0.00  0.00    +0.000 A 
ATOM     32  O   UNL     1      48.994   3.773  17.817  0.00  0.00    +0.000 OA
ATOM     33  C   UNL     1      48.751   5.921  18.785  0.00  0.00    +0.000 A 
ATOM     34  H   UNL     1      48.802   2.914  20.102  0.00  0.00    +0.000 HD
ENDBRANCH  21  24
ENDBRANCH   2  20
TORSDOF 6
ENDMDL
MODEL 2
REMARK VINA RESULT:    -8.232      1.414      2.025
REMARK INTER + INTRA:         -12.206
REMARK INTER:                 -10.990
REMARK INTRA:                  -1.216
REMARK UNBOUND:                -1.086
REMARK  Name = 
REMARK  7 active torsions:
REMARK  status: ('A' for Active; 'I' for Inactive)
REMARK    1  A    between atoms: C_1  and  C_2
REMARK    2  A    between atoms: C_2  and  N_3
REMARK    3  A    between atoms: C_2  and  C_16
REMARK    4  A    between atoms: C_4  and  C_6
REMARK    5  A    between atoms: C_19  and  C_20
REMARK    6  A    between atoms: C_20  and  N_21
REMARK    7  A    between atoms: C_22  and  C_24
REMARK                            x       y       z     vdW  Elec       q    Type
REMARK                         _______ _______ _______ _____ _____    ______ ____
ROOT
ATOM      1  C   UNL     1      47.756   7.703  13.885  0.00  0.00    +0.000 C 
ATOM      2  C   UNL     1      47.793   6.217  14.257  0.00  0.00    +0.000 C 
ENDROOT
BRANCH   2   3
ATOM      3  C   UNL     1      46.694   5.431  13.555  0.00  0.00    +0.000 A 
ATOM      4  C   UNL     1      46.822   4.039  13.453  0.00  0.00    +0.000 A 
ATOM      5  C   UNL     1      45.911   3.277  12.712  0.00  0.00    +0.000 A 
ATOM      6  C   UNL     1      44.838   3.889  12.054  0.00  0.00    +0.000 A 
ATOM      7  C   UNL     1      44.656   5.269  12.220  0.00  0.00    +0.000 A 
ATOM      8  C   UNL     1      45.573   6.036  12.957  0.00  0.00    +0.000 A 
BRANCH   6   9
ATOM      9  C   UNL     1      43.929   3.085  11.162  0.00  0.00    +0.000 C 
BRANCH   9  10
ATOM     10  N   UNL     1      44.613   2.529  10.018  0.00  0.00    +0.000 N 
ATOM     11  C   UNL     1      44.822   3.290   8.886  0.00  0.00    +0.000 C 
ATOM     12  O   UNL     1      44.455   4.463   8.804  0.00  0.00    +0.000 OA
ATOM     13  H   UNL     1      45.007   1.601  10.099  0.00  0.00    +0.000 HD
BRANCH  11  14
ATOM     14  C   UNL     1      45.584   2.569   7.774  0.00  0.00    +0.000 C 
ATOM     15  C   UNL     1      46.193   1.251   8.277  0.00  0.00    +0.000 C 
ATOM     16  C   UNL     1      47.097   0.617   7.227  0.00  0.00    +0.000 C 
ATOM     17  O   UNL     1      48.098   1.537   6.796  0.00  0.00    +0.000 OA
ATOM     18  C   UNL     1      47.538   2.698   6.192  0.00  0.00    +0.000 C 
ATOM     19  C   UNL     1      46.684   3.463   7.192  0.00  0.00    +0.000 C 
ENDBRANCH  11  14
ENDBRANCH   9  10
ENDBRANCH   6   9
ENDBRANCH   2   3
BRANCH   2  20
ATOM     20  N   UNL     1      47.756   6.040  15.693  0.00  0.00    +0.000 N 
ATOM     21  C   UNL     1      48.900   5.952  16.450  0.00  0.00    +0.000 C 
ATOM     22  O   UNL     1      50.022   5.964  15.949  0.00  0.00    +0.000 OA
ATOM     23  H   UNL     1      46.849   5.904  16.126  0.00  0.00    +0.000 HD
BRANCH  21  24
ATOM     24  C   UNL     1      48.722   5.898  17.905  0.00  0.00    +0.000 A 
ATOM     25  C   UNL     1      49.000   4.726  18.597  0.00  0.00    +0.000 A 
ATOM     26  S   UNL     1      48.743   4.850  20.280  0.00  0.00    +0.000 S 
ATOM     27  C   UNL     1      48.211   6.457  20.136  0.00  0.00    +0.000 A 
ATOM     28  N   UNL     1      47.796   7.160  21.223  0.00  0.00    +0.000 NA
ATOM     29  C   UNL     1      47.389   8.357  20.962  0.00  0.00    +0.000 A 
ATOM     30  N   UNL     1      47.374   8.926  19.715  0.00  0.00    +0.000 N 
ATOM     31  C   UNL     1      47.837   8.273  18.597  0.00  0.00    +0.000 A 
ATOM     32  O   UNL     1      47.909   8.847  17.518  0.00  0.00    +0.000 OA
ATOM     33  C   UNL     1      48.265   6.908  18.829  0.00  0.00    +0.000 A 
ATOM     34  H   UNL     1      47.075   9.875  19.577  0.00  0.00    +0.000 HD
ENDBRANCH  21  24
ENDBRANCH   2  20
TORSDOF 6
ENDMDL
MODEL 3
REMARK VINA RESULT:    -8.048      1.804      2.092
REMARK INTER + INTRA:         -11.957
REMARK INTER:                 -10.748
REMARK INTRA:                  -1.208
REMARK UNBOUND:                -1.086
REMARK  Name = 
REMARK  7 active torsions:
REMARK  status: ('A' for Active; 'I' for Inactive)
REMARK    1  A    between atoms: C_1  and  C_2
REMARK    2  A    between atoms: C_2  and  N_3
REMARK    3  A    between atoms: C_2  and  C_16
REMARK    4  A    between atoms: C_4  and  C_6
REMARK    5  A    between atoms: C_19  and  C_20
REMARK    6  A    between atoms: C_20  and  N_21
REMARK    7  A    between atoms: C_22  and  C_24
REMARK                            x       y       z     vdW  Elec       q    Type
REMARK                         _______ _______ _______ _____ _____    ______ ____
ROOT
ATOM      1  C   UNL     1      46.871   9.480  13.387  0.00  0.00    +0.000 C 
ATOM      2  C   UNL     1      47.341   8.038  13.175  0.00  0.00    +0.000 C 
ENDROOT
BRANCH   2   3
ATOM      3  C   UNL     1      46.388   7.259  12.278  0.00  0.00    +0.000 A 
ATOM      4  C   UNL     1      45.082   7.022  12.728  0.00  0.00    +0.000 A 
ATOM      5  C   UNL     1      44.201   6.208  12.007  0.00  0.00    +0.000 A 
ATOM      6  C   UNL     1      44.603   5.609  10.808  0.00  0.00    +0.000 A 
ATOM      7  C   UNL     1      45.878   5.908  10.309  0.00  0.00    +0.000 A 
ATOM      8  C   UNL     1      46.766   6.719  11.035  0.00  0.00    +0.000 A 
BRANCH   6   9
ATOM      9  C   UNL     1      43.696   4.639  10.096  0.00  0.00    +0.000 C 
BRANCH   9  10
ATOM     10  N   UNL     1      44.309   4.047   8.931  0.00  0.00    +0.000 N 
ATOM     11  C   UNL     1      45.046   2.885   9.038  0.00  0.00    +0.000 C 
ATOM     12  O   UNL     1      45.202   2.301  10.111  0.00  0.00    +0.000 OA
ATOM     13  H   UNL     1      44.115   4.456   8.026  0.00  0.00    +0.000 HD
BRANCH  11  14
ATOM     14  C   UNL     1      45.607   2.369   7.713  0.00  0.00    +0.000 C 
ATOM     15  C   UNL     1      46.563   1.186   7.933  0.00  0.00    +0.000 C 
ATOM     16  C   UNL     1      47.257   0.782   6.638  0.00  0.00    +0.000 C 
ATOM     17  O   UNL     1      47.918   1.899   6.046  0.00  0.00    +0.000 OA
ATOM     18  C   UNL     1      47.011   2.941   5.703  0.00  0.00    +0.000 C 
ATOM     19  C   UNL     1      46.326   3.485   6.947  0.00  0.00    +0.000 C 
ENDBRANCH  11  14
ENDBRANCH   9  10
ENDBRANCH   6   9
ENDBRANCH   2   3
BRANCH   2  20
ATOM     20  N   UNL     1      47.562   7.372  14.441  0.00  0.00    +0.000 N 
ATOM     21  C   UNL     1      48.792   6.875  14.802  0.00  0.00    +0.000 C 
ATOM     22  O   UNL     1      49.763   6.916  14.052  0.00  0.00    +0.000 OA
ATOM     23  H   UNL     1      46.756   7.211  15.034  0.00  0.00    +0.000 HD
BRANCH  21  24
ATOM     24  C   UNL     1      48.908   6.334  16.160  0.00  0.00    +0.000 A 
ATOM     25  C   UNL     1      49.672   7.000  17.111  0.00  0.00    +0.000 A 
ATOM     26  S   UNL     1      49.686   6.231  18.635  0.00  0.00    +0.000 S 
ATOM     27  C   UNL     1      48.709   4.963  18.067  0.00  0.00    +0.000 A 
ATOM     28  N   UNL     1      48.363   3.925  18.873  0.00  0.00    +0.000 NA
ATOM     29  C   UNL     1      47.646   3.017  18.300  0.00  0.00    +0.000 A 
ATOM     30  N   UNL     1      47.225   3.059  16.996  0.00  0.00    +0.000 N 
ATOM     31  C   UNL     1      47.503   4.114  16.160  0.00  0.00    +0.000 A 
ATOM     32  O   UNL     1      47.022   4.170  15.035  0.00  0.00    +0.000 OA
ATOM     33  C   UNL     1      48.344   5.141  16.743  0.00  0.00    +0.000 A 
ATOM     34  H   UNL     1      46.640   2.337  16.613  0.00  0.00    +0.000 HD
ENDBRANCH  21  24
ENDBRANCH   2  20
TORSDOF 6
ENDMDL
MODEL 4
REMARK VINA RESULT:    -7.808      2.727      4.124
REMARK INTER + INTRA:         -11.633
REMARK INTER:                 -10.553
REMARK INTRA:                  -1.080
REMARK UNBOUND:                -1.086
REMARK  Name = 
REMARK  7 active torsions:
REMARK  status: ('A' for Active; 'I' for Inactive)
REMARK    1  A    between atoms: C_1  and  C_2
REMARK    2  A    between atoms: C_2  and  N_3
REMARK    3  A    between atoms: C_2  and  C_16
REMARK    4  A    between atoms: C_4  and  C_6
REMARK    5  A    between atoms: C_19  and  C_20
REMARK    6  A    between atoms: C_20  and  N_21
REMARK    7  A    between atoms: C_22  and  C_24
REMARK                            x       y       z     vdW  Elec       q    Type
REMARK                         _______ _______ _______ _____ _____    ______ ____
ROOT
ATOM      1  C   UNL     1      47.658   3.423  15.023  0.00  0.00    +0.000 C 
ATOM      2  C   UNL     1      46.908   4.744  14.831  0.00  0.00    +0.000 C 
ENDROOT
BRANCH   2   3
ATOM      3  C   UNL     1      45.940   4.678  13.657  0.00  0.00    +0.000 A 
ATOM      4  C   UNL     1      45.849   3.486  12.925  0.00  0.00    +0.000 A 
ATOM      5  C   UNL     1      45.073   3.404  11.763  0.00  0.00    +0.000 A 
ATOM      6  C   UNL     1      44.360   4.515  11.301  0.00  0.00    +0.000 A 
ATOM      7  C   UNL     1      44.380   5.685  12.071  0.00  0.00    +0.000 A 
ATOM      8  C   UNL     1      45.163   5.772  13.234  0.00  0.00    +0.000 A 
BRANCH   6   9
ATOM      9  C   UNL     1      43.624   4.459   9.988  0.00  0.00    +0.000 C 
BRANCH   9  10
ATOM     10  N   UNL     1      44.233   3.557   9.039  0.00  0.00    +0.000 N 
ATOM     11  C   UNL     1      45.327   3.953   8.296  0.00  0.00    +0.000 C 
ATOM     12  O   UNL     1      45.834   5.069   8.414  0.00  0.00    +0.000 OA
ATOM     13  H   UNL     1      43.894   2.605   8.996  0.00  0.00    +0.000 HD
BRANCH  11  14
ATOM     14  C   UNL     1      45.875   2.877   7.358  0.00  0.00    +0.000 C 
ATOM     15  C   UNL     1      46.346   1.642   8.141  0.00  0.00    +0.000 C 
ATOM     16  C   UNL     1      47.052   0.642   7.232  0.00  0.00    +0.000 C 
ATOM     17  O   UNL     1      48.122   1.265   6.525  0.00  0.00    +0.000 OA
ATOM     18  C   UNL     1      47.668   2.319   5.681  0.00  0.00    +0.000 C 
ATOM     19  C   UNL     1      47.024   3.424   6.505  0.00  0.00    +0.000 C 
ENDBRANCH  11  14
ENDBRANCH   9  10
ENDBRANCH   6   9
ENDBRANCH   2   3
BRANCH   2  20
ATOM     20  N   UNL     1      47.829   5.854  14.714  0.00  0.00    +0.000 N 
ATOM     21  C   UNL     1      48.546   6.327  15.788  0.00  0.00    +0.000 C 
ATOM     22  O   UNL     1      48.408   5.874  16.921  0.00  0.00    +0.000 OA
ATOM     23  H   UNL     1      47.878   6.332  13.821  0.00  0.00    +0.000 HD
BRANCH  21  24
ATOM     24  C   UNL     1      49.535   7.373  15.506  0.00  0.00    +0.000 A 
ATOM     25  C   UNL     1      50.843   7.232  15.952  0.00  0.00    +0.000 A 
ATOM     26  S   UNL     1      51.853   8.541  15.527  0.00  0.00    +0.000 S 
ATOM     27  C   UNL     1      50.570   9.358  14.771  0.00  0.00    +0.000 A 
ATOM     28  N   UNL     1      50.749  10.585  14.214  0.00  0.00    +0.000 NA
ATOM     29  C   UNL     1      49.681  11.102  13.704  0.00  0.00    +0.000 A 
ATOM     30  N   UNL     1      48.451  10.497  13.682  0.00  0.00    +0.000 N 
ATOM     31  C   UNL     1      48.236   9.235  14.183  0.00  0.00    +0.000 A 
ATOM     32  O   UNL     1      47.152   8.682  14.051  0.00  0.00    +0.000 OA
ATOM     33  C   UNL     1      49.395   8.628  14.807  0.00  0.00    +0.000 A 
ATOM     34  H   UNL     1      47.661  10.936  13.241  0.00  0.00    +0.000 HD
ENDBRANCH  21  24
ENDBRANCH   2  20
TORSDOF 6
ENDMDL
MODEL 5
REMARK VINA RESULT:    -7.567      3.315      4.375
REMARK INTER + INTRA:         -11.307
REMARK INTER:                 -10.146
REMARK INTRA:                  -1.160
REMARK UNBOUND:                -1.086
REMARK  Name = 
REMARK  7 active torsions:
REMARK  status: ('A' for Active; 'I' for Inactive)
REMARK    1  A    between atoms: C_1  and  C_2
REMARK    2  A    between atoms: C_2  and  N_3
REMARK    3  A    between atoms: C_2  and  C_16
REMARK    4  A    between atoms: C_4  and  C_6
REMARK    5  A    between atoms: C_19  and  C_20
REMARK    6  A    between atoms: C_20  and  N_21
REMARK    7  A    between atoms: C_22  and  C_24
REMARK                            x       y       z     vdW  Elec       q    Type
REMARK                         _______ _______ _______ _____ _____    ______ ____
ROOT
ATOM      1  C   UNL     1      47.343   3.170  17.555  0.00  0.00    +0.000 C 
ATOM      2  C   UNL     1      48.176   4.377  17.114  0.00  0.00    +0.000 C 
ENDROOT
BRANCH   2   3
ATOM      3  C   UNL     1      47.780   4.858  15.724  0.00  0.00    +0.000 A 
ATOM      4  C   UNL     1      48.254   6.102  15.282  0.00  0.00    +0.000 A 
ATOM      5  C   UNL     1      47.825   6.654  14.069  0.00  0.00    +0.000 A 
ATOM      6  C   UNL     1      46.911   5.972  13.258  0.00  0.00    +0.000 A 
ATOM      7  C   UNL     1      46.498   4.692  13.653  0.00  0.00    +0.000 A 
ATOM      8  C   UNL     1      46.921   4.140  14.873  0.00  0.00    +0.000 A 
BRANCH   6   9
ATOM      9  C   UNL     1      46.361   6.619  12.014  0.00  0.00    +0.000 C 
BRANCH   9  10
ATOM     10  N   UNL     1      46.101   5.672  10.956  0.00  0.00    +0.000 N 
ATOM     11  C   UNL     1      44.810   5.269  10.675  0.00  0.00    +0.000 C 
ATOM     12  O   UNL     1      43.837   5.701  11.294  0.00  0.00    +0.000 OA
ATOM     13  H   UNL     1      46.874   5.379  10.373  0.00  0.00    +0.000 HD
BRANCH  11  14
ATOM     14  C   UNL     1      44.696   4.287   9.510  0.00  0.00    +0.000 C 
ATOM     15  C   UNL     1      44.744   2.831  10.000  0.00  0.00    +0.000 C 
ATOM     16  C   UNL     1      44.807   1.852   8.834  0.00  0.00    +0.000 C 
ATOM     17  O   UNL     1      45.900   2.159   7.971  0.00  0.00    +0.000 OA
ATOM     18  C   UNL     1      45.783   3.457   7.396  0.00  0.00    +0.000 C 
ATOM     19  C   UNL     1      45.804   4.525   8.479  0.00  0.00    +0.000 C 
ENDBRANCH  11  14
ENDBRANCH   9  10
ENDBRANCH   6   9
ENDBRANCH   2   3
BRANCH   2  20
ATOM     20  N   UNL     1      49.592   4.096  17.209  0.00  0.00    +0.000 N 
ATOM     21  C   UNL     1      50.307   4.320  18.362  0.00  0.00    +0.000 C 
ATOM     22  O   UNL     1      49.802   4.823  19.361  0.00  0.00    +0.000 OA
ATOM     23  H   UNL     1      50.069   3.795  16.366  0.00  0.00    +0.000 HD
BRANCH  21  24
ATOM     24  C   UNL     1      51.706   3.877  18.363  0.00  0.00    +0.000 A 
ATOM     25  C   UNL     1      52.709   4.740  18.785  0.00  0.00    +0.000 A 
ATOM     26  S   UNL     1      54.270   4.052  18.725  0.00  0.00    +0.000 S 
ATOM     27  C   UNL     1      53.665   2.595  18.095  0.00  0.00    +0.000 A 
ATOM     28  N   UNL     1      54.495   1.567  17.777  0.00  0.00    +0.000 NA
ATOM     29  C   UNL     1      53.903   0.534  17.277  0.00  0.00    +0.000 A 
ATOM     30  N   UNL     1      52.550   0.426  17.083  0.00  0.00    +0.000 N 
ATOM     31  C   UNL     1      51.667   1.416  17.441  0.00  0.00    +0.000 A 
ATOM     32  O   UNL     1      50.458   1.244  17.353  0.00  0.00    +0.000 OA
ATOM     33  C   UNL     1      52.287   2.616  17.967  0.00  0.00    +0.000 A 
ATOM     34  H   UNL     1      52.141  -0.417  16.719  0.00  0.00    +0.000 HD
ENDBRANCH  21  24
ENDBRANCH   2  20
TORSDOF 6
ENDMDL
MODEL 6
REMARK VINA RESULT:    -7.549      2.988      4.740
REMARK INTER + INTRA:         -11.284
REMARK INTER:                 -10.062
REMARK INTRA:                  -1.222
REMARK UNBOUND:                -1.086
REMARK  Name = 
REMARK  7 active torsions:
REMARK  status: ('A' for Active; 'I' for Inactive)
REMARK    1  A    between atoms: C_1  and  C_2
REMARK    2  A    between atoms: C_2  and  N_3
REMARK    3  A    between atoms: C_2  and  C_16
REMARK    4  A    between atoms: C_4  and  C_6
REMARK    5  A    between atoms: C_19  and  C_20
REMARK    6  A    between atoms: C_20  and  N_21
REMARK    7  A    between atoms: C_22  and  C_24
REMARK                            x       y       z     vdW  Elec       q    Type
REMARK                         _______ _______ _______ _____ _____    ______ ____
ROOT
ATOM      1  C   UNL     1      47.456   4.368  15.684  0.00  0.00    +0.000 C 
ATOM      2  C   UNL     1      47.286   5.566  14.745  0.00  0.00    +0.000 C 
ENDROOT
BRANCH   2   3
ATOM      3  C   UNL     1      46.504   5.195  13.492  0.00  0.00    +0.000 A 
ATOM      4  C   UNL     1      46.114   6.217  12.614  0.00  0.00    +0.000 A 
ATOM      5  C   UNL     1      45.288   5.955  11.515  0.00  0.00    +0.000 A 
ATOM      6  C   UNL     1      44.832   4.657  11.258  0.00  0.00    +0.000 A 
ATOM      7  C   UNL     1      45.285   3.618  12.081  0.00  0.00    +0.000 A 
ATOM      8  C   UNL     1      46.107   3.880  13.190  0.00  0.00    +0.000 A 
BRANCH   6   9
ATOM      9  C   UNL     1      43.849   4.399  10.146  0.00  0.00    +0.000 C 
BRANCH   9  10
ATOM     10  N   UNL     1      44.356   3.485   9.149  0.00  0.00    +0.000 N 
ATOM     11  C   UNL     1      45.343   3.881   8.270  0.00  0.00    +0.000 C 
ATOM     12  O   UNL     1      45.839   5.008   8.301  0.00  0.00    +0.000 OA
ATOM     13  H   UNL     1      44.032   2.527   9.168  0.00  0.00    +0.000 HD
BRANCH  11  14
ATOM     14  C   UNL     1      45.793   2.793   7.295  0.00  0.00    +0.000 C 
ATOM     15  C   UNL     1      46.443   1.614   8.036  0.00  0.00    +0.000 C 
ATOM     16  C   UNL     1      47.049   0.610   7.062  0.00  0.00    +0.000 C 
ATOM     17  O   UNL     1      47.962   1.251   6.174  0.00  0.00    +0.000 OA
ATOM     18  C   UNL     1      47.329   2.246   5.377  0.00  0.00    +0.000 C 
ATOM     19  C   UNL     1      46.766   3.354   6.253  0.00  0.00    +0.000 C 
ENDBRANCH  11  14
ENDBRANCH   9  10
ENDBRANCH   6   9
ENDBRANCH   2   3
BRANCH   2  20
ATOM     20  N   UNL     1      48.564   6.166  14.430  0.00  0.00    +0.000 N 
ATOM     21  C   UNL     1      48.967   7.361  14.978  0.00  0.00    +0.000 C 
ATOM     22  O   UNL     1      48.247   8.018  15.724  0.00  0.00    +0.000 OA
ATOM     23  H   UNL     1      49.134   5.714  13.724  0.00  0.00    +0.000 HD
BRANCH  21  24
ATOM     24  C   UNL     1      50.334   7.795  14.672  0.00  0.00    +0.000 A 
ATOM     25  C   UNL     1      51.250   7.987  15.699  0.00  0.00    +0.000 A 
ATOM     26  S   UNL     1      52.791   8.483  15.155  0.00  0.00    +0.000 S 
ATOM     27  C   UNL     1      52.276   8.500  13.536  0.00  0.00    +0.000 A 
ATOM     28  N   UNL     1      53.114   8.876  12.535  0.00  0.00    +0.000 NA
ATOM     29  C   UNL     1      52.580   8.873  11.359  0.00  0.00    +0.000 A 
ATOM     30  N   UNL     1      51.287   8.509  11.088  0.00  0.00    +0.000 N 
ATOM     31  C   UNL     1      50.420   8.068  12.060  0.00  0.00    +0.000 A 
ATOM     32  O   UNL     1      49.307   7.650  11.768  0.00  0.00    +0.000 OA
ATOM     33  C   UNL     1      50.958   8.095  13.406  0.00  0.00    +0.000 A 
ATOM     34  H   UNL     1      50.935   8.495  10.146  0.00  0.00    +0.000 HD
ENDBRANCH  21  24
ENDBRANCH   2  20
TORSDOF 6
ENDMDL
MODEL 7
REMARK VINA RESULT:    -7.352      2.828      3.614
REMARK INTER + INTRA:         -11.017
REMARK INTER:                  -9.838
REMARK INTRA:                  -1.179
REMARK UNBOUND:                -1.086
REMARK  Name = 
REMARK  7 active torsions:
REMARK  status: ('A' for Active; 'I' for Inactive)
REMARK    1  A    between atoms: C_1  and  C_2
REMARK    2  A    between atoms: C_2  and  N_3
REMARK    3  A    between atoms: C_2  and  C_16
REMARK    4  A    between atoms: C_4  and  C_6
REMARK    5  A    between atoms: C_19  and  C_20
REMARK    6  A    between atoms: C_20  and  N_21
REMARK    7  A    between atoms: C_22  and  C_24
REMARK                            x       y       z     vdW  Elec       q    Type
REMARK                         _______ _______ _______ _____ _____    ______ ____
ROOT
ATOM      1  C   UNL     1      47.440   4.178  15.940  0.00  0.00    +0.000 C 
ATOM      2  C   UNL     1      47.348   5.410  15.034  0.00  0.00    +0.000 C 
ENDROOT
BRANCH   2   3
ATOM      3  C   UNL     1      46.591   5.109  13.747  0.00  0.00    +0.000 A 
ATOM      4  C   UNL     1      46.167   6.182  12.950  0.00  0.00    +0.000 A 
ATOM      5  C   UNL     1      45.360   5.976  11.824  0.00  0.00    +0.000 A 
ATOM      6  C   UNL     1      44.958   4.686  11.461  0.00  0.00    +0.000 A 
ATOM      7  C   UNL     1      45.446   3.603  12.204  0.00  0.00    +0.000 A 
ATOM      8  C   UNL     1      46.250   3.808  13.338  0.00  0.00    +0.000 A 
BRANCH   6   9
ATOM      9  C   UNL     1      43.994   4.478  10.321  0.00  0.00    +0.000 C 
BRANCH   9  10
ATOM     10  N   UNL     1      44.492   3.560   9.325  0.00  0.00    +0.000 N 
ATOM     11  C   UNL     1      45.422   3.973   8.391  0.00  0.00    +0.000 C 
ATOM     12  O   UNL     1      45.873   5.118   8.373  0.00  0.00    +0.000 OA
ATOM     13  H   UNL     1      44.208   2.591   9.380  0.00  0.00    +0.000 HD
BRANCH  11  14
ATOM     14  C   UNL     1      45.871   2.878   7.423  0.00  0.00    +0.000 C 
ATOM     15  C   UNL     1      46.393   1.645   8.177  0.00  0.00    +0.000 C 
ATOM     16  C   UNL     1      47.003   0.625   7.223  0.00  0.00    +0.000 C 
ATOM     17  O   UNL     1      48.014   1.225   6.416  0.00  0.00    +0.000 OA
ATOM     18  C   UNL     1      47.502   2.275   5.602  0.00  0.00    +0.000 C 
ATOM     19  C   UNL     1      46.948   3.398   6.465  0.00  0.00    +0.000 C 
ENDBRANCH  11  14
ENDBRANCH   9  10
ENDBRANCH   6   9
ENDBRANCH   2   3
BRANCH   2  20
ATOM     20  N   UNL     1      48.660   5.964  14.775  0.00  0.00    +0.000 N 
ATOM     21  C   UNL     1      49.013   7.229  15.181  0.00  0.00    +0.000 C 
ATOM     22  O   UNL     1      48.222   7.986  15.737  0.00  0.00    +0.000 OA
ATOM     23  H   UNL     1      49.299   5.415  14.211  0.00  0.00    +0.000 HD
BRANCH  21  24
ATOM     24  C   UNL     1      50.410   7.621  14.965  0.00  0.00    +0.000 A 
ATOM     25  C   UNL     1      50.725   8.577  14.008  0.00  0.00    +0.000 A 
ATOM     26  S   UNL     1      52.396   8.912  13.902  0.00  0.00    +0.000 S 
ATOM     27  C   UNL     1      52.759   7.763  15.099  0.00  0.00    +0.000 A 
ATOM     28  N   UNL     1      54.043   7.518  15.472  0.00  0.00    +0.000 NA
ATOM     29  C   UNL     1      54.173   6.597  16.368  0.00  0.00    +0.000 A 
ATOM     30  N   UNL     1      53.135   5.909  16.941  0.00  0.00    +0.000 N 
ATOM     31  C   UNL     1      51.819   6.163  16.636  0.00  0.00    +0.000 A 
ATOM     32  O   UNL     1      50.914   5.605  17.244  0.00  0.00    +0.000 OA
ATOM     33  C   UNL     1      51.620   7.159  15.602  0.00  0.00    +0.000 A 
ATOM     34  H   UNL     1      53.296   5.224  17.659  0.00  0.00    +0.000 HD
ENDBRANCH  21  24
ENDBRANCH   2  20
TORSDOF 6
ENDMDL
MODEL 8
REMARK VINA RESULT:    -7.222      2.178      2.912
REMARK INTER + INTRA:         -10.842
REMARK INTER:                  -9.652
REMARK INTRA:                  -1.190
REMARK UNBOUND:                -1.086
REMARK  Name = 
REMARK  7 active torsions:
REMARK  status: ('A' for Active; 'I' for Inactive)
REMARK    1  A    between atoms: C_1  and  C_2
REMARK    2  A    between atoms: C_2  and  N_3
REMARK    3  A    between atoms: C_2  and  C_16
REMARK    4  A    between atoms: C_4  and  C_6
REMARK    5  A    between atoms: C_19  and  C_20
REMARK    6  A    between atoms: C_20  and  N_21
REMARK    7  A    between atoms: C_22  and  C_24
REMARK                            x       y       z     vdW  Elec       q    Type
REMARK                         _______ _______ _______ _____ _____    ______ ____
ROOT
ATOM      1  C   UNL     1      47.881   3.166  16.119  0.00  0.00    +0.000 C 
ATOM      2  C   UNL     1      47.329   4.566  15.837  0.00  0.00    +0.000 C 
ENDROOT
BRANCH   2   3
ATOM      3  C   UNL     1      46.860   4.709  14.394  0.00  0.00    +0.000 A 
ATOM      4  C   UNL     1      47.128   5.906  13.715  0.00  0.00    +0.000 A 
ATOM      5  C   UNL     1      46.615   6.145  12.435  0.00  0.00    +0.000 A 
ATOM      6  C   UNL     1      45.821   5.187  11.793  0.00  0.00    +0.000 A 
ATOM      7  C   UNL     1      45.619   3.956  12.431  0.00  0.00    +0.000 A 
ATOM      8  C   UNL     1      46.126   3.717  13.719  0.00  0.00    +0.000 A 
BRANCH   6   9
ATOM      9  C   UNL     1      45.174   5.495  10.468  0.00  0.00    +0.000 C 
BRANCH   9  10
ATOM     10  N   UNL     1      45.692   4.688   9.389  0.00  0.00    +0.000 N 
ATOM     11  C   UNL     1      45.032   3.544   8.987  0.00  0.00    +0.000 C 
ATOM     12  O   UNL     1      43.983   3.171   9.511  0.00  0.00    +0.000 OA
ATOM     13  H   UNL     1      46.499   5.027   8.882  0.00  0.00    +0.000 HD
BRANCH  11  14
ATOM     14  C   UNL     1      45.690   2.816   7.815  0.00  0.00    +0.000 C 
ATOM     15  C   UNL     1      46.230   1.442   8.242  0.00  0.00    +0.000 C 
ATOM     16  C   UNL     1      47.038   0.789   7.128  0.00  0.00    +0.000 C 
ATOM     17  O   UNL     1      48.079   1.654   6.681  0.00  0.00    +0.000 OA
ATOM     18  C   UNL     1      47.574   2.873   6.145  0.00  0.00    +0.000 C 
ATOM     19  C   UNL     1      46.822   3.654   7.211  0.00  0.00    +0.000 C 
ENDBRANCH  11  14
ENDBRANCH   9  10
ENDBRANCH   6   9
ENDBRANCH   2   3
BRANCH   2  20
ATOM     20  N   UNL     1      48.288   5.587  16.200  0.00  0.00    +0.000 N 
ATOM     21  C   UNL     1      48.358   6.107  17.471  0.00  0.00    +0.000 C 
ATOM     22  O   UNL     1      47.578   5.777  18.360  0.00  0.00    +0.000 OA
ATOM     23  H   UNL     1      48.867   5.971  15.461  0.00  0.00    +0.000 HD
BRANCH  21  24
ATOM     24  C   UNL     1      49.455   7.044  17.736  0.00  0.00    +0.000 A 
ATOM     25  C   UNL     1      49.178   8.344  18.141  0.00  0.00    +0.000 A 
ATOM     26  S   UNL     1      50.574   9.287  18.410  0.00  0.00    +0.000 S 
ATOM     27  C   UNL     1      51.595   8.007  17.956  0.00  0.00    +0.000 A 
ATOM     28  N   UNL     1      52.945   8.159  17.930  0.00  0.00    +0.000 NA
ATOM     29  C   UNL     1      53.594   7.115  17.534  0.00  0.00    +0.000 A 
ATOM     30  N   UNL     1      53.018   5.924  17.178  0.00  0.00    +0.000 N 
ATOM     31  C   UNL     1      51.662   5.706  17.243  0.00  0.00    +0.000 A 
ATOM     32  O   UNL     1      51.191   4.598  17.020  0.00  0.00    +0.000 OA
ATOM     33  C   UNL     1      50.884   6.863  17.640  0.00  0.00    +0.000 A 
ATOM     34  H   UNL     1      53.578   5.134  16.908  0.00  0.00    +0.000 HD
ENDBRANCH  21  24
ENDBRANCH   2  20
TORSDOF 6
ENDMDL
MODEL 9
REMARK VINA RESULT:    -7.166      3.766      9.081
REMARK INTER + INTRA:         -10.765
REMARK INTER:                  -9.622
REMARK INTRA:                  -1.144
REMARK UNBOUND:                -1.086
REMARK  Name = 
REMARK  7 active torsions:
REMARK  status: ('A' for Active; 'I' for Inactive)
REMARK    1  A    between atoms: C_1  and  C_2
REMARK    2  A    between atoms: C_2  and  N_3
REMARK    3  A    between atoms: C_2  and  C_16
REMARK    4  A    between atoms: C_4  and  C_6
REMARK    5  A    between atoms: C_19  and  C_20
REMARK    6  A    between atoms: C_20  and  N_21
REMARK    7  A    between atoms: C_22  and  C_24
REMARK                            x       y       z     vdW  Elec       q    Type
REMARK                         _______ _______ _______ _____ _____    ______ ____
ROOT
ATOM      1  C   UNL     1      49.860   7.753  11.910  0.00  0.00    +0.000 C 
ATOM      2  C   UNL     1      48.587   7.490  12.720  0.00  0.00    +0.000 C 
ENDROOT
BRANCH   2   3
ATOM      3  C   UNL     1      48.902   7.151  14.172  0.00  0.00    +0.000 A 
ATOM      4  C   UNL     1      50.025   7.737  14.771  0.00  0.00    +0.000 A 
ATOM      5  C   UNL     1      50.437   7.370  16.058  0.00  0.00    +0.000 A 
ATOM      6  C   UNL     1      49.730   6.406  16.785  0.00  0.00    +0.000 A 
ATOM      7  C   UNL     1      48.559   5.877  16.226  0.00  0.00    +0.000 A 
ATOM      8  C   UNL     1      48.148   6.239  14.932  0.00  0.00    +0.000 A 
BRANCH   6   9
ATOM      9  C   UNL     1      50.243   5.927  18.119  0.00  0.00    +0.000 C 
BRANCH   9  10
ATOM     10  N   UNL     1      51.331   4.986  17.997  0.00  0.00    +0.000 N 
ATOM     11  C   UNL     1      51.083   3.630  17.926  0.00  0.00    +0.000 C 
ATOM     12  O   UNL     1      49.942   3.168  17.947  0.00  0.00    +0.000 OA
ATOM     13  H   UNL     1      52.268   5.349  17.881  0.00  0.00    +0.000 HD
BRANCH  11  14
ATOM     14  C   UNL     1      52.335   2.768  17.771  0.00  0.00    +0.000 C 
ATOM     15  C   UNL     1      51.973   1.291  17.548  0.00  0.00    +0.000 C 
ATOM     16  C   UNL     1      53.211   0.404  17.568  0.00  0.00    +0.000 C 
ATOM     17  O   UNL     1      53.953   0.594  18.771  0.00  0.00    +0.000 OA
ATOM     18  C   UNL     1      54.420   1.932  18.910  0.00  0.00    +0.000 C 
ATOM     19  C   UNL     1      53.250   2.900  18.993  0.00  0.00    +0.000 C 
ENDBRANCH  11  14
ENDBRANCH   9  10
ENDBRANCH   6   9
ENDBRANCH   2   3
BRANCH   2  20
ATOM     20  N   UNL     1      47.770   6.475  12.091  0.00  0.00    +0.000 N 
ATOM     21  C   UNL     1      46.482   6.724  11.678  0.00  0.00    +0.000 C 
ATOM     22  O   UNL     1      45.929   7.804  11.866  0.00  0.00    +0.000 OA
ATOM     23  H   UNL     1      48.150   5.537  12.029  0.00  0.00    +0.000 HD
BRANCH  21  24
ATOM     24  C   UNL     1      45.809   5.647  10.944  0.00  0.00    +0.000 A 
ATOM     25  C   UNL     1      45.896   5.589   9.558  0.00  0.00    +0.000 A 
ATOM     26  S   UNL     1      45.059   4.266   8.877  0.00  0.00    +0.000 S 
ATOM     27  C   UNL     1      44.517   3.752  10.403  0.00  0.00    +0.000 A 
ATOM     28  N   UNL     1      43.707   2.668  10.533  0.00  0.00    +0.000 NA
ATOM     29  C   UNL     1      43.346   2.412  11.746  0.00  0.00    +0.000 A 
ATOM     30  N   UNL     1      43.736   3.129  12.847  0.00  0.00    +0.000 N 
ATOM     31  C   UNL     1      44.598   4.197  12.770  0.00  0.00    +0.000 A 
ATOM     32  O   UNL     1      45.010   4.748  13.783  0.00  0.00    +0.000 OA
ATOM     33  C   UNL     1      44.999   4.554  11.423  0.00  0.00    +0.000 A 
ATOM     34  H   UNL     1      43.448   2.862  13.772  0.00  0.00    +0.000 HD
ENDBRANCH  21  24
ENDBRANCH   2  20
TORSDOF 6
ENDMDL
