MODEL 1
REMARK VINA RESULT:    -7.530      0.000      0.000
REMARK INTER + INTRA:         -11.531
REMARK INTER:                 -10.611
REMARK INTRA:                  -0.920
REMARK UNBOUND:                -0.920
REMARK  Name = 
REMARK  8 active torsions:
REMARK  status: ('A' for Active; 'I' for Inactive)
REMARK    1  A    between atoms: C_1  and  O_2
REMARK    2  A    between atoms: O_2  and  C_3
REMARK    3  A    between atoms: C_8  and  C_9
REMARK    4  A    between atoms: N_11  and  C_12
REMARK    5  A    between atoms: C_12  and  C_13
REMARK    6  A    between atoms: C_16  and  C_17
REMARK    7  A    between atoms: C_17  and  N_18
REMARK    8  A    between atoms: C_19  and  C_21
REMARK                            x       y       z     vdW  Elec       q    Type
REMARK                         _______ _______ _______ _____ _____    ______ ____
ROOT
ATOM      1  C   UNL     1      45.019   5.316  10.798  0.00  0.00    +0.000 A 
ATOM      2  C   UNL     1      46.157   6.025  10.390  0.00  0.00    +0.000 A 
ATOM      3  C   UNL     1      46.791   6.924  11.258  0.00  0.00    +0.000 A 
ATOM      4  C   UNL     1      46.309   7.117  12.561  0.00  0.00    +0.000 A 
ATOM      5  C   UNL     1      45.169   6.410  12.965  0.00  0.00    +0.000 A 
ATOM      6  C   UNL     1      44.538   5.512  12.099  0.00  0.00    +0.000 A 
ENDROOT
BRANCH   1   7
ATOM      7  C   UNL     1      44.312   4.378   9.854  0.00  0.00    +0.000 C 
BRANCH   7  10
ATOM      8  C   UNL     1      45.396   2.673   8.454  0.00  0.00    +0.000 C 
ATOM      9  O   UNL     1      44.977   1.776   9.177  0.00  0.00    +0.000 OA
ATOM     10  N   UNL     1      45.118   4.006   8.717  0.00  0.00    +0.000 N 
ATOM     11  H   UNL     1      45.504   4.709   8.094  0.00  0.00    +0.000 HD
BRANCH   8  17
ATOM     12  C   UNL     1      46.976   1.245   7.060  0.00  0.00    +0.000 A 
ATOM     13  N   UNL     1      47.736   1.043   5.947  0.00  0.00    +0.000 NA
ATOM     14  C   UNL     1      47.722   2.031   5.028  0.00  0.00    +0.000 A 
ATOM     15  C   UNL     1      46.981   3.189   5.195  0.00  0.00    +0.000 A 
ATOM     16  N   UNL     1      46.225   3.421   6.294  0.00  0.00    +0.000 NA
ATOM     17  C   UNL     1      46.237   2.420   7.235  0.00  0.00    +0.000 A 
BRANCH  12  19
ATOM     18  C   UNL     1      46.705  -1.047   7.494  0.00  0.00    +0.000 C 
ATOM     19  O   UNL     1      46.955   0.254   8.013  0.00  0.00    +0.000 OA
ENDBRANCH  12  19
ENDBRANCH   8  17
ENDBRANCH   7  10
ENDBRANCH   1   7
BRANCH   4  20
ATOM     20  C   UNL     1      46.970   8.092  13.502  0.00  0.00    +0.000 C 
BRANCH  20  21
ATOM     21  N   UNL     1      47.444   7.434  14.695  0.00  0.00    +0.000 N 
ATOM     22  C   UNL     1      48.684   6.847  14.747  0.00  0.00    +0.000 C 
ATOM     23  O   UNL     1      49.467   6.892  13.803  0.00  0.00    +0.000 OA
ATOM     24  H   UNL     1      46.743   7.170  15.379  0.00  0.00    +0.000 HD
BRANCH  22  25
ATOM     25  C   UNL     1      49.052   6.214  16.021  0.00  0.00    +0.000 A 
ATOM     26  C   UNL     1      50.093   6.737  16.779  0.00  0.00    +0.000 A 
ATOM     27  S   UNL     1      50.355   5.910  18.248  0.00  0.00    +0.000 S 
ATOM     28  C   UNL     1      49.120   4.791  17.901  0.00  0.00    +0.000 A 
ATOM     29  N   UNL     1      48.836   3.774  18.759  0.00  0.00    +0.000 NA
ATOM     30  C   UNL     1      47.896   2.985  18.358  0.00  0.00    +0.000 A 
ATOM     31  N   UNL     1      47.209   3.125  17.179  0.00  0.00    +0.000 N 
ATOM     32  C   UNL     1      47.440   4.149  16.295  0.00  0.00    +0.000 A 
ATOM     33  O   UNL     1      46.780   4.268  15.268  0.00  0.00    +0.000 OA
ATOM     34  C   UNL     1      48.501   5.059  16.691  0.00  0.00    +0.000 A 
ATOM     35  H   UNL     1      46.474   2.480  16.929  0.00  0.00    +0.000 HD
ENDBRANCH  22  25
ENDBRANCH  20  21
ENDBRANCH   4  20
TORSDOF 7
ENDMDL
MODEL 2
REMARK VINA RESULT:    -7.304      3.277      9.038
REMARK INTER + INTRA:         -11.212
REMARK INTER:                 -10.053
REMARK INTRA:                  -1.158
REMARK UNBOUND:                -0.920
REMARK  Name = 
REMARK  8 active torsions:
REMARK  status: ('A' for Active; 'I' for Inactive)
REMARK    1  A    between atoms: C_1  and  O_2
REMARK    2  A    between atoms: O_2  and  C_3
REMARK    3  A    between atoms: C_8  and  C_9
REMARK    4  A    between atoms: N_11  and  C_12
REMARK    5  A    between atoms: C_12  and  C_13
REMARK    6  A    between atoms: C_16  and  C_17
REMARK    7  A    between atoms: C_17  and  N_18
REMARK    8  A    between atoms: C_19  and  C_21
REMARK                            x       y       z     vdW  Elec       q    Type
REMARK                         _______ _______ _______ _____ _____    ______ ____
ROOT
ATOM      1  C   UNL     1      50.380   7.275  15.316  0.00  0.00    +0.000 A 
ATOM      2  C   UNL     1      50.759   8.019  14.190  0.00  0.00    +0.000 A 
ATOM      3  C   UNL     1      49.879   8.183  13.112  0.00  0.00    +0.000 A 
ATOM      4  C   UNL     1      48.594   7.623  13.147  0.00  0.00    +0.000 A 
ATOM      5  C   UNL     1      48.219   6.878  14.272  0.00  0.00    +0.000 A 
ATOM      6  C   UNL     1      49.096   6.716  15.349  0.00  0.00    +0.000 A 
ENDROOT
BRANCH   1   7
ATOM      7  C   UNL     1      51.336   7.064  16.461  0.00  0.00    +0.000 C 
BRANCH   7  10
ATOM      8  C   UNL     1      51.193   4.948  17.703  0.00  0.00    +0.000 C 
ATOM      9  O   UNL     1      50.426   5.447  18.517  0.00  0.00    +0.000 OA
ATOM     10  N   UNL     1      51.705   5.681  16.643  0.00  0.00    +0.000 N 
ATOM     11  H   UNL     1      52.351   5.222  16.008  0.00  0.00    +0.000 HD
BRANCH   8  17
ATOM     12  C   UNL     1      50.912   2.464  17.220  0.00  0.00    +0.000 A 
ATOM     13  N   UNL     1      51.344   1.174  17.302  0.00  0.00    +0.000 NA
ATOM     14  C   UNL     1      52.521   0.980  17.934  0.00  0.00    +0.000 A 
ATOM     15  C   UNL     1      53.256   2.023  18.470  0.00  0.00    +0.000 A 
ATOM     16  N   UNL     1      52.847   3.311  18.412  0.00  0.00    +0.000 NA
ATOM     17  C   UNL     1      51.649   3.517  17.773  0.00  0.00    +0.000 A 
BRANCH  12  19
ATOM     18  C   UNL     1      48.579   2.644  17.417  0.00  0.00    +0.000 C 
ATOM     19  O   UNL     1      49.722   2.704  16.572  0.00  0.00    +0.000 OA
ENDBRANCH  12  19
ENDBRANCH   8  17
ENDBRANCH   7  10
ENDBRANCH   1   7
BRANCH   4  20
ATOM     20  C   UNL     1      47.642   7.778  11.988  0.00  0.00    +0.000 C 
BRANCH  20  21
ATOM     21  N   UNL     1      46.916   6.557  11.736  0.00  0.00    +0.000 N 
ATOM     22  C   UNL     1      45.546   6.508  11.806  0.00  0.00    +0.000 C 
ATOM     23  O   UNL     1      44.869   7.504  12.040  0.00  0.00    +0.000 OA
ATOM     24  H   UNL     1      47.445   5.693  11.790  0.00  0.00    +0.000 HD
BRANCH  22  25
ATOM     25  C   UNL     1      44.926   5.206  11.523  0.00  0.00    +0.000 A 
ATOM     26  C   UNL     1      44.190   4.561  12.510  0.00  0.00    +0.000 A 
ATOM     27  S   UNL     1      43.502   3.086  11.997  0.00  0.00    +0.000 S 
ATOM     28  C   UNL     1      44.206   3.231  10.455  0.00  0.00    +0.000 A 
ATOM     29  N   UNL     1      44.031   2.265   9.512  0.00  0.00    +0.000 NA
ATOM     30  C   UNL     1      44.642   2.491   8.397  0.00  0.00    +0.000 A 
ATOM     31  N   UNL     1      45.408   3.598   8.138  0.00  0.00    +0.000 N 
ATOM     32  C   UNL     1      45.592   4.611   9.045  0.00  0.00    +0.000 A 
ATOM     33  O   UNL     1      46.251   5.607   8.767  0.00  0.00    +0.000 OA
ATOM     34  C   UNL     1      44.936   4.400  10.325  0.00  0.00    +0.000 A 
ATOM     35  H   UNL     1      45.851   3.722   7.239  0.00  0.00    +0.000 HD
ENDBRANCH  22  25
ENDBRANCH  20  21
ENDBRANCH   4  20
TORSDOF 7
ENDMDL
MODEL 3
REMARK VINA RESULT:    -7.053      5.340      8.240
REMARK INTER + INTRA:         -10.859
REMARK INTER:                  -9.637
REMARK INTRA:                  -1.222
REMARK UNBOUND:                -0.920
REMARK  Name = 
REMARK  8 active torsions:
REMARK  status: ('A' for Active; 'I' for Inactive)
REMARK    1  A    between atoms: C_1  and  O_2
REMARK    2  A    between atoms: O_2  and  C_3
REMARK    3  A    between atoms: C_8  and  C_9
REMARK    4  A    between atoms: N_11  and  C_12
REMARK    5  A    between atoms: C_12  and  C_13
REMARK    6  A    between atoms: C_16  and  C_17
REMARK    7  A    between atoms: C_17  and  N_18
REMARK    8  A    between atoms: C_19  and  C_21
REMARK                            x       y       z     vdW  Elec       q    Type
REMARK                         _______ _______ _______ _____ _____    ______ ____
ROOT
ATOM      1  C   UNL     1      49.020   7.041  13.898  0.00  0.00    +0.000 A 
ATOM      2  C   UNL     1      50.025   7.736  14.586  0.00  0.00    +0.000 A 
ATOM      3  C   UNL     1      50.960   8.514  13.891  0.00  0.00    +0.000 A 
ATOM      4  C   UNL     1      50.898   8.630  12.496  0.00  0.00    +0.000 A 
ATOM      5  C   UNL     1      49.895   7.933  11.811  0.00  0.00    +0.000 A 
ATOM      6  C   UNL     1      48.959   7.157  12.503  0.00  0.00    +0.000 A 
ENDROOT
BRANCH   1   7
ATOM      7  C   UNL     1      48.036   6.172  14.637  0.00  0.00    +0.000 C 
BRANCH   7  10
ATOM      8  C   UNL     1      46.674   4.514  13.440  0.00  0.00    +0.000 C 
ATOM      9  O   UNL     1      47.459   3.620  13.731  0.00  0.00    +0.000 OA
ATOM     10  N   UNL     1      46.882   5.824  13.844  0.00  0.00    +0.000 N 
ATOM     11  H   UNL     1      46.208   6.528  13.560  0.00  0.00    +0.000 HD
BRANCH   8  17
ATOM     12  C   UNL     1      45.017   5.157  11.618  0.00  0.00    +0.000 A 
ATOM     13  N   UNL     1      43.881   4.928  10.900  0.00  0.00    +0.000 NA
ATOM     14  C   UNL     1      43.194   3.809  11.213  0.00  0.00    +0.000 A 
ATOM     15  C   UNL     1      43.610   2.936  12.204  0.00  0.00    +0.000 A 
ATOM     16  N   UNL     1      44.728   3.144  12.939  0.00  0.00    +0.000 NA
ATOM     17  C   UNL     1      45.430   4.282  12.628  0.00  0.00    +0.000 A 
BRANCH  12  19
ATOM     18  C   UNL     1      45.031   7.501  11.467  0.00  0.00    +0.000 C 
ATOM     19  O   UNL     1      45.751   6.282  11.319  0.00  0.00    +0.000 OA
ENDBRANCH  12  19
ENDBRANCH   8  17
ENDBRANCH   7  10
ENDBRANCH   1   7
BRANCH   4  20
ATOM     20  C   UNL     1      51.906   9.451  11.733  0.00  0.00    +0.000 C 
BRANCH  20  21
ATOM     21  N   UNL     1      52.083   8.954  10.390  0.00  0.00    +0.000 N 
ATOM     22  C   UNL     1      53.324   8.628   9.902  0.00  0.00    +0.000 C 
ATOM     23  O   UNL     1      54.336   8.699  10.593  0.00  0.00    +0.000 OA
ATOM     24  H   UNL     1      51.324   9.122   9.738  0.00  0.00    +0.000 HD
BRANCH  22  25
ATOM     25  C   UNL     1      53.370   8.128   8.521  0.00  0.00    +0.000 A 
ATOM     26  C   UNL     1      53.208   9.010   7.460  0.00  0.00    +0.000 A 
ATOM     27  S   UNL     1      53.337   8.270   5.928  0.00  0.00    +0.000 S 
ATOM     28  C   UNL     1      53.561   6.735   6.628  0.00  0.00    +0.000 A 
ATOM     29  N   UNL     1      53.709   5.627   5.852  0.00  0.00    +0.000 NA
ATOM     30  C   UNL     1      53.844   4.527   6.514  0.00  0.00    +0.000 A 
ATOM     31  N   UNL     1      53.850   4.435   7.882  0.00  0.00    +0.000 N 
ATOM     32  C   UNL     1      53.731   5.525   8.706  0.00  0.00    +0.000 A 
ATOM     33  O   UNL     1      53.780   5.413   9.927  0.00  0.00    +0.000 OA
ATOM     34  C   UNL     1      53.561   6.790   8.012  0.00  0.00    +0.000 A 
ATOM     35  H   UNL     1      53.972   3.543   8.340  0.00  0.00    +0.000 HD
ENDBRANCH  22  25
ENDBRANCH  20  21
ENDBRANCH   4  20
TORSDOF 7
ENDMDL
MODEL 4
REMARK VINA RESULT:    -6.941      5.168      7.612
REMARK INTER + INTRA:         -10.701
REMARK INTER:                  -9.535
REMARK INTRA:                  -1.167
REMARK UNBOUND:                -0.920
REMARK  Name = 
REMARK  8 active torsions:
REMARK  status: ('A' for Active; 'I' for Inactive)
REMARK    1  A    between atoms: C_1  and  O_2
REMARK    2  A    between atoms: O_2  and  C_3
REMARK    3  A    between atoms: C_8  and  C_9
REMARK    4  A    between atoms: N_11  and  C_12
REMARK    5  A    between atoms: C_12  and  C_13
REMARK    6  A    between atoms: C_16  and  C_17
REMARK    7  A    between atoms: C_17  and  N_18
REMARK    8  A    between atoms: C_19  and  C_21
REMARK                            x       y       z     vdW  Elec       q    Type
REMARK                         _______ _______ _______ _____ _____    ______ ____
ROOT
ATOM      1  C   UNL     1      50.617   8.734  11.335  0.00  0.00    +0.000 A 
ATOM      2  C   UNL     1      49.872   9.885  11.626  0.00  0.00    +0.000 A 
ATOM      3  C   UNL     1      48.580   9.786  12.160  0.00  0.00    +0.000 A 
ATOM      4  C   UNL     1      48.015   8.532  12.432  0.00  0.00    +0.000 A 
ATOM      5  C   UNL     1      48.760   7.383  12.138  0.00  0.00    +0.000 A 
ATOM      6  C   UNL     1      50.051   7.482  11.607  0.00  0.00    +0.000 A 
ENDROOT
BRANCH   1   7
ATOM      7  C   UNL     1      51.991   8.836  10.725  0.00  0.00    +0.000 C 
BRANCH   7  10
ATOM      8  C   UNL     1      53.582   7.575   9.341  0.00  0.00    +0.000 C 
ATOM      9  O   UNL     1      54.490   8.341   9.639  0.00  0.00    +0.000 OA
ATOM     10  N   UNL     1      52.296   7.745   9.832  0.00  0.00    +0.000 N 
ATOM     11  H   UNL     1      51.578   7.090   9.538  0.00  0.00    +0.000 HD
BRANCH   8  17
ATOM     12  C   UNL     1      53.088   6.269   7.212  0.00  0.00    +0.000 A 
ATOM     13  N   UNL     1      53.271   5.186   6.404  0.00  0.00    +0.000 NA
ATOM     14  C   UNL     1      54.150   4.259   6.841  0.00  0.00    +0.000 A 
ATOM     15  C   UNL     1      54.832   4.390   8.038  0.00  0.00    +0.000 A 
ATOM     16  N   UNL     1      54.664   5.449   8.864  0.00  0.00    +0.000 NA
ATOM     17  C   UNL     1      53.769   6.395   8.428  0.00  0.00    +0.000 A 
BRANCH  12  19
ATOM     18  C   UNL     1      52.819   8.299   6.062  0.00  0.00    +0.000 C 
ATOM     19  O   UNL     1      52.210   7.242   6.794  0.00  0.00    +0.000 OA
ENDBRANCH  12  19
ENDBRANCH   8  17
ENDBRANCH   7  10
ENDBRANCH   1   7
BRANCH   4  20
ATOM     20  C   UNL     1      46.620   8.408  12.992  0.00  0.00    +0.000 C 
BRANCH  20  21
ATOM     21  N   UNL     1      46.071   7.096  12.752  0.00  0.00    +0.000 N 
ATOM     22  C   UNL     1      45.085   6.888  11.820  0.00  0.00    +0.000 C 
ATOM     23  O   UNL     1      44.655   7.794  11.113  0.00  0.00    +0.000 OA
ATOM     24  H   UNL     1      46.222   6.399  13.475  0.00  0.00    +0.000 HD
BRANCH  22  25
ATOM     25  C   UNL     1      44.615   5.504  11.667  0.00  0.00    +0.000 A 
ATOM     26  C   UNL     1      43.891   4.902  12.690  0.00  0.00    +0.000 A 
ATOM     27  S   UNL     1      43.383   3.315  12.327  0.00  0.00    +0.000 S 
ATOM     28  C   UNL     1      44.157   3.355  10.812  0.00  0.00    +0.000 A 
ATOM     29  N   UNL     1      44.133   2.274   9.984  0.00  0.00    +0.000 NA
ATOM     30  C   UNL     1      44.781   2.434   8.880  0.00  0.00    +0.000 A 
ATOM     31  N   UNL     1      45.447   3.578   8.524  0.00  0.00    +0.000 N 
ATOM     32  C   UNL     1      45.478   4.702   9.311  0.00  0.00    +0.000 A 
ATOM     33  O   UNL     1      46.050   5.724   8.945  0.00  0.00    +0.000 OA
ATOM     34  C   UNL     1      44.774   4.572  10.575  0.00  0.00    +0.000 A 
ATOM     35  H   UNL     1      45.927   3.644   7.638  0.00  0.00    +0.000 HD
ENDBRANCH  22  25
ENDBRANCH  20  21
ENDBRANCH   4  20
TORSDOF 7
ENDMDL
MODEL 5
REMARK VINA RESULT:    -6.929      4.135      5.539
REMARK INTER + INTRA:         -10.685
REMARK INTER:                  -9.219
REMARK INTRA:                  -1.466
REMARK UNBOUND:                -0.920
REMARK  Name = 
REMARK  8 active torsions:
REMARK  status: ('A' for Active; 'I' for Inactive)
REMARK    1  A    between atoms: C_1  and  O_2
REMARK    2  A    between atoms: O_2  and  C_3
REMARK    3  A    between atoms: C_8  and  C_9
REMARK    4  A    between atoms: N_11  and  C_12
REMARK    5  A    between atoms: C_12  and  C_13
REMARK    6  A    between atoms: C_16  and  C_17
REMARK    7  A    between atoms: C_17  and  N_18
REMARK    8  A    between atoms: C_19  and  C_21
REMARK                            x       y       z     vdW  Elec       q    Type
REMARK                         _______ _______ _______ _____ _____    ______ ____
ROOT
ATOM      1  C   UNL     1      48.612   7.872  13.310  0.00  0.00    +0.000 A 
ATOM      2  C   UNL     1      48.580   6.836  14.254  0.00  0.00    +0.000 A 
ATOM      3  C   UNL     1      49.295   6.940  15.456  0.00  0.00    +0.000 A 
ATOM      4  C   UNL     1      50.040   8.092  15.746  0.00  0.00    +0.000 A 
ATOM      5  C   UNL     1      50.072   9.124  14.799  0.00  0.00    +0.000 A 
ATOM      6  C   UNL     1      49.358   9.022  13.601  0.00  0.00    +0.000 A 
ENDROOT
BRANCH   1   7
ATOM      7  C   UNL     1      47.877   7.748  12.001  0.00  0.00    +0.000 C 
BRANCH   7  10
ATOM      8  C   UNL     1      45.651   6.727  12.209  0.00  0.00    +0.000 C 
ATOM      9  O   UNL     1      45.153   7.808  12.500  0.00  0.00    +0.000 OA
ATOM     10  N   UNL     1      47.007   6.598  11.947  0.00  0.00    +0.000 N 
ATOM     11  H   UNL     1      47.369   5.676  11.727  0.00  0.00    +0.000 HD
BRANCH   8  17
ATOM     12  C   UNL     1      45.025   4.389  12.998  0.00  0.00    +0.000 A 
ATOM     13  N   UNL     1      44.295   3.244  12.883  0.00  0.00    +0.000 NA
ATOM     14  C   UNL     1      43.397   3.209  11.876  0.00  0.00    +0.000 A 
ATOM     15  C   UNL     1      43.219   4.270  11.004  0.00  0.00    +0.000 A 
ATOM     16  N   UNL     1      43.937   5.414  11.089  0.00  0.00    +0.000 NA
ATOM     17  C   UNL     1      44.855   5.456  12.110  0.00  0.00    +0.000 A 
BRANCH  12  19
ATOM     18  C   UNL     1      47.011   3.533  13.916  0.00  0.00    +0.000 C 
ATOM     19  O   UNL     1      45.942   4.467  14.021  0.00  0.00    +0.000 OA
ENDBRANCH  12  19
ENDBRANCH   8  17
ENDBRANCH   7  10
ENDBRANCH   1   7
BRANCH   4  20
ATOM     20  C   UNL     1      50.826   8.213  17.027  0.00  0.00    +0.000 C 
BRANCH  20  21
ATOM     21  N   UNL     1      51.563   7.006  17.308  0.00  0.00    +0.000 N 
ATOM     22  C   UNL     1      51.195   6.159  18.324  0.00  0.00    +0.000 C 
ATOM     23  O   UNL     1      50.198   6.360  19.011  0.00  0.00    +0.000 OA
ATOM     24  H   UNL     1      52.505   6.949  16.935  0.00  0.00    +0.000 HD
BRANCH  22  25
ATOM     25  C   UNL     1      52.024   4.960  18.505  0.00  0.00    +0.000 A 
ATOM     26  C   UNL     1      53.249   5.057  19.157  0.00  0.00    +0.000 A 
ATOM     27  S   UNL     1      54.057   3.564  19.322  0.00  0.00    +0.000 S 
ATOM     28  C   UNL     1      52.826   2.742  18.483  0.00  0.00    +0.000 A 
ATOM     29  N   UNL     1      52.912   1.404  18.246  0.00  0.00    +0.000 NA
ATOM     30  C   UNL     1      51.922   0.916  17.578  0.00  0.00    +0.000 A 
ATOM     31  N   UNL     1      50.850   1.643  17.128  0.00  0.00    +0.000 N 
ATOM     32  C   UNL     1      50.704   2.987  17.365  0.00  0.00    +0.000 A 
ATOM     33  O   UNL     1      49.712   3.599  16.983  0.00  0.00    +0.000 OA
ATOM     34  C   UNL     1      51.800   3.591  18.103  0.00  0.00    +0.000 A 
ATOM     35  H   UNL     1      50.100   1.198  16.619  0.00  0.00    +0.000 HD
ENDBRANCH  22  25
ENDBRANCH  20  21
ENDBRANCH   4  20
TORSDOF 7
ENDMDL
MODEL 6
REMARK VINA RESULT:    -6.856      5.070      7.849
REMARK INTER + INTRA:         -10.582
REMARK INTER:                  -9.582
REMARK INTRA:                  -1.000
REMARK UNBOUND:                -0.920
REMARK  Name = 
REMARK  8 active torsions:
REMARK  status: ('A' for Active; 'I' for Inactive)
REMARK    1  A    between atoms: C_1  and  O_2
REMARK    2  A    between atoms: O_2  and  C_3
REMARK    3  A    between atoms: C_8  and  C_9
REMARK    4  A    between atoms: N_11  and  C_12
REMARK    5  A    between atoms: C_12  and  C_13
REMARK    6  A    between atoms: C_16  and  C_17
REMARK    7  A    between atoms: C_17  and  N_18
REMARK    8  A    between atoms: C_19  and  C_21
REMARK                            x       y       z     vdW  Elec       q    Type
REMARK                         _______ _______ _______ _____ _____    ______ ____
ROOT
ATOM      1  C   UNL     1      44.358   8.100  11.409  0.00  0.00    +0.000 A 
ATOM      2  C   UNL     1      45.460   8.217  12.268  0.00  0.00    +0.000 A 
ATOM      3  C   UNL     1      45.990   7.091  12.911  0.00  0.00    +0.000 A 
ATOM      4  C   UNL     1      45.441   5.820  12.692  0.00  0.00    +0.000 A 
ATOM      5  C   UNL     1      44.338   5.705  11.837  0.00  0.00    +0.000 A 
ATOM      6  C   UNL     1      43.810   6.829  11.193  0.00  0.00    +0.000 A 
ENDROOT
BRANCH   1   7
ATOM      7  C   UNL     1      43.761   9.314  10.746  0.00  0.00    +0.000 C 
BRANCH   7  10
ATOM      8  C   UNL     1      41.731  10.690  10.904  0.00  0.00    +0.000 C 
ATOM      9  O   UNL     1      41.737  10.884   9.694  0.00  0.00    +0.000 OA
ATOM     10  N   UNL     1      42.707   9.922  11.521  0.00  0.00    +0.000 N 
ATOM     11  H   UNL     1      42.664   9.808  12.529  0.00  0.00    +0.000 HD
BRANCH   8  17
ATOM     12  C   UNL     1      39.322  10.980  11.674  0.00  0.00    +0.000 A 
ATOM     13  N   UNL     1      38.393  11.513  12.516  0.00  0.00    +0.000 NA
ATOM     14  C   UNL     1      38.866  12.306  13.500  0.00  0.00    +0.000 A 
ATOM     15  C   UNL     1      40.216  12.571  13.655  0.00  0.00    +0.000 A 
ATOM     16  N   UNL     1      41.160  12.064  12.828  0.00  0.00    +0.000 NA
ATOM     17  C   UNL     1      40.685  11.258  11.822  0.00  0.00    +0.000 A 
BRANCH  12  19
ATOM     18  C   UNL     1      37.637   9.517  10.941  0.00  0.00    +0.000 C 
ATOM     19  O   UNL     1      38.879  10.156  10.665  0.00  0.00    +0.000 OA
ENDBRANCH  12  19
ENDBRANCH   8  17
ENDBRANCH   7  10
ENDBRANCH   1   7
BRANCH   4  20
ATOM     20  C   UNL     1      45.990   4.600  13.389  0.00  0.00    +0.000 C 
BRANCH  20  21
ATOM     21  N   UNL     1      46.613   4.945  14.643  0.00  0.00    +0.000 N 
ATOM     22  C   UNL     1      47.395   4.048  15.328  0.00  0.00    +0.000 C 
ATOM     23  O   UNL     1      47.640   2.929  14.889  0.00  0.00    +0.000 OA
ATOM     24  H   UNL     1      46.232   5.746  15.136  0.00  0.00    +0.000 HD
BRANCH  22  25
ATOM     25  C   UNL     1      47.977   4.523  16.591  0.00  0.00    +0.000 A 
ATOM     26  C   UNL     1      47.668   3.876  17.782  0.00  0.00    +0.000 A 
ATOM     27  S   UNL     1      48.465   4.527  19.142  0.00  0.00    +0.000 S 
ATOM     28  C   UNL     1      49.211   5.730  18.197  0.00  0.00    +0.000 A 
ATOM     29  N   UNL     1      50.027   6.660  18.764  0.00  0.00    +0.000 NA
ATOM     30  C   UNL     1      50.504   7.528  17.936  0.00  0.00    +0.000 A 
ATOM     31  N   UNL     1      50.243   7.546  16.590  0.00  0.00    +0.000 N 
ATOM     32  C   UNL     1      49.450   6.615  15.967  0.00  0.00    +0.000 A 
ATOM     33  O   UNL     1      49.270   6.637  14.754  0.00  0.00    +0.000 OA
ATOM     34  C   UNL     1      48.875   5.622  16.858  0.00  0.00    +0.000 A 
ATOM     35  H   UNL     1      50.658   8.247  15.992  0.00  0.00    +0.000 HD
ENDBRANCH  22  25
ENDBRANCH  20  21
ENDBRANCH   4  20
TORSDOF 7
ENDMDL
MODEL 7
REMARK VINA RESULT:    -6.846      1.741      2.204
REMARK INTER + INTRA:         -10.567
REMARK INTER:                  -9.976
REMARK INTRA:                  -0.591
REMARK UNBOUND:                -0.920
REMARK  Name = 
REMARK  8 active torsions:
REMARK  status: ('A' for Active; 'I' for Inactive)
REMARK    1  A    between atoms: C_1  and  O_2
REMARK    2  A    between atoms: O_2  and  C_3
REMARK    3  A    between atoms: C_8  and  C_9
REMARK    4  A    between atoms: N_11  and  C_12
REMARK    5  A    between atoms: C_12  and  C_13
REMARK    6  A    between atoms: C_16  and  C_17
REMARK    7  A    between atoms: C_17  and  N_18
REMARK    8  A    between atoms: C_19  and  C_21
REMARK                            x       y       z     vdW  Elec       q    Type
REMARK                         _______ _______ _______ _____ _____    ______ ____
ROOT
ATOM      1  C   UNL     1      45.452   5.139  11.097  0.00  0.00    +0.000 A 
ATOM      2  C   UNL     1      46.179   6.304  10.818  0.00  0.00    +0.000 A 
ATOM      3  C   UNL     1      46.957   6.917  11.809  0.00  0.00    +0.000 A 
ATOM      4  C   UNL     1      47.039   6.365  13.095  0.00  0.00    +0.000 A 
ATOM      5  C   UNL     1      46.308   5.202  13.372  0.00  0.00    +0.000 A 
ATOM      6  C   UNL     1      45.534   4.589  12.382  0.00  0.00    +0.000 A 
ENDROOT
BRANCH   1   7
ATOM      7  C   UNL     1      44.584   4.499  10.045  0.00  0.00    +0.000 C 
BRANCH   7  10
ATOM      8  C   UNL     1      45.570   2.783   8.587  0.00  0.00    +0.000 C 
ATOM      9  O   UNL     1      45.192   1.891   9.337  0.00  0.00    +0.000 OA
ATOM     10  N   UNL     1      45.317   4.119   8.861  0.00  0.00    +0.000 N 
ATOM     11  H   UNL     1      45.667   4.818   8.214  0.00  0.00    +0.000 HD
BRANCH   8  17
ATOM     12  C   UNL     1      47.002   1.318   7.076  0.00  0.00    +0.000 A 
ATOM     13  N   UNL     1      47.693   1.108   5.920  0.00  0.00    +0.000 NA
ATOM     14  C   UNL     1      47.681   2.120   5.028  0.00  0.00    +0.000 A 
ATOM     15  C   UNL     1      47.009   3.308   5.262  0.00  0.00    +0.000 A 
ATOM     16  N   UNL     1      46.324   3.547   6.404  0.00  0.00    +0.000 NA
ATOM     17  C   UNL     1      46.333   2.522   7.319  0.00  0.00    +0.000 A 
BRANCH  12  19
ATOM     18  C   UNL     1      46.668  -0.975   7.463  0.00  0.00    +0.000 C 
ATOM     19  O   UNL     1      46.980   0.303   8.006  0.00  0.00    +0.000 OA
ENDBRANCH  12  19
ENDBRANCH   8  17
ENDBRANCH   7  10
ENDBRANCH   1   7
BRANCH   4  20
ATOM     20  C   UNL     1      47.859   7.021  14.178  0.00  0.00    +0.000 C 
BRANCH  20  21
ATOM     21  N   UNL     1      47.855   6.238  15.389  0.00  0.00    +0.000 N 
ATOM     22  C   UNL     1      49.007   6.005  16.098  0.00  0.00    +0.000 C 
ATOM     23  O   UNL     1      50.086   6.485  15.766  0.00  0.00    +0.000 OA
ATOM     24  H   UNL     1      47.051   5.639  15.541  0.00  0.00    +0.000 HD
BRANCH  22  25
ATOM     25  C   UNL     1      48.869   5.197  17.318  0.00  0.00    +0.000 A 
ATOM     26  C   UNL     1      48.648   3.828  17.220  0.00  0.00    +0.000 A 
ATOM     27  S   UNL     1      48.559   3.039  18.730  0.00  0.00    +0.000 S 
ATOM     28  C   UNL     1      48.760   4.505  19.570  0.00  0.00    +0.000 A 
ATOM     29  N   UNL     1      48.751   4.540  20.930  0.00  0.00    +0.000 NA
ATOM     30  C   UNL     1      48.887   5.720  21.435  0.00  0.00    +0.000 A 
ATOM     31  N   UNL     1      49.036   6.869  20.702  0.00  0.00    +0.000 N 
ATOM     32  C   UNL     1      49.079   6.883  19.330  0.00  0.00    +0.000 A 
ATOM     33  O   UNL     1      49.254   7.924  18.706  0.00  0.00    +0.000 OA
ATOM     34  C   UNL     1      48.916   5.579  18.710  0.00  0.00    +0.000 A 
ATOM     35  H   UNL     1      49.151   7.763  21.158  0.00  0.00    +0.000 HD
ENDBRANCH  22  25
ENDBRANCH  20  21
ENDBRANCH   4  20
TORSDOF 7
ENDMDL
MODEL 8
REMARK VINA RESULT:    -6.705      3.130      9.624
REMARK INTER + INTRA:         -10.368
REMARK INTER:                  -9.075
REMARK INTRA:                  -1.294
REMARK UNBOUND:                -0.920
REMARK  Name = 
REMARK  8 active torsions:
REMARK  status: ('A' for Active; 'I' for Inactive)
REMARK    1  A    between atoms: C_1  and  O_2
REMARK    2  A    between atoms: O_2  and  C_3
REMARK    3  A    between atoms: C_8  and  C_9
REMARK    4  A    between atoms: N_11  and  C_12
REMARK    5  A    between atoms: C_12  and  C_13
REMARK    6  A    between atoms: C_16  and  C_17
REMARK    7  A    between atoms: C_17  and  N_18
REMARK    8  A    between atoms: C_19  and  C_21
REMARK                            x       y       z     vdW  Elec       q    Type
REMARK                         _______ _______ _______ _____ _____    ______ ____
ROOT
ATOM      1  C   UNL     1      50.558   7.765  14.951  0.00  0.00    +0.000 A 
ATOM      2  C   UNL     1      50.953   8.287  13.712  0.00  0.00    +0.000 A 
ATOM      3  C   UNL     1      50.057   8.332  12.635  0.00  0.00    +0.000 A 
ATOM      4  C   UNL     1      48.740   7.873  12.782  0.00  0.00    +0.000 A 
ATOM      5  C   UNL     1      48.349   7.348  14.021  0.00  0.00    +0.000 A 
ATOM      6  C   UNL     1      49.243   7.305  15.096  0.00  0.00    +0.000 A 
ENDROOT
BRANCH   1   7
ATOM      7  C   UNL     1      51.529   7.679  16.099  0.00  0.00    +0.000 C 
BRANCH   7  10
ATOM      8  C   UNL     1      50.933   5.880  17.664  0.00  0.00    +0.000 C 
ATOM      9  O   UNL     1      51.453   5.041  16.938  0.00  0.00    +0.000 OA
ATOM     10  N   UNL     1      50.918   7.225  17.325  0.00  0.00    +0.000 N 
ATOM     11  H   UNL     1      50.459   7.875  17.955  0.00  0.00    +0.000 HD
BRANCH   8  17
ATOM     12  C   UNL     1      48.883   5.458  19.112  0.00  0.00    +0.000 A 
ATOM     13  N   UNL     1      48.307   5.154  20.309  0.00  0.00    +0.000 NA
ATOM     14  C   UNL     1      49.154   4.926  21.336  0.00  0.00    +0.000 A 
ATOM     15  C   UNL     1      50.529   4.996  21.193  0.00  0.00    +0.000 A 
ATOM     16  N   UNL     1      51.127   5.305  20.019  0.00  0.00    +0.000 NA
ATOM     17  C   UNL     1      50.272   5.540  18.970  0.00  0.00    +0.000 A 
BRANCH  12  19
ATOM     18  C   UNL     1      47.407   4.514  17.547  0.00  0.00    +0.000 C 
ATOM     19  O   UNL     1      48.053   5.684  18.038  0.00  0.00    +0.000 OA
ENDBRANCH  12  19
ENDBRANCH   8  17
ENDBRANCH   7  10
ENDBRANCH   1   7
BRANCH   4  20
ATOM     20  C   UNL     1      47.769   7.899  11.629  0.00  0.00    +0.000 C 
BRANCH  20  21
ATOM     21  N   UNL     1      47.034   6.662  11.530  0.00  0.00    +0.000 N 
ATOM     22  C   UNL     1      45.667   6.626  11.653  0.00  0.00    +0.000 C 
ATOM     23  O   UNL     1      44.999   7.643  11.806  0.00  0.00    +0.000 OA
ATOM     24  H   UNL     1      47.565   5.806  11.655  0.00  0.00    +0.000 HD
BRANCH  22  25
ATOM     25  C   UNL     1      45.037   5.304  11.527  0.00  0.00    +0.000 A 
ATOM     26  C   UNL     1      44.380   4.744  12.617  0.00  0.00    +0.000 A 
ATOM     27  S   UNL     1      43.667   3.231  12.284  0.00  0.00    +0.000 S 
ATOM     28  C   UNL     1      44.254   3.245  10.687  0.00  0.00    +0.000 A 
ATOM     29  N   UNL     1      44.017   2.202   9.845  0.00  0.00    +0.000 NA
ATOM     30  C   UNL     1      44.543   2.333   8.673  0.00  0.00    +0.000 A 
ATOM     31  N   UNL     1      45.280   3.414   8.265  0.00  0.00    +0.000 N 
ATOM     32  C   UNL     1      45.523   4.501   9.067  0.00  0.00    +0.000 A 
ATOM     33  O   UNL     1      46.154   5.470   8.657  0.00  0.00    +0.000 OA
ATOM     34  C   UNL     1      44.965   4.399  10.404  0.00  0.00    +0.000 A 
ATOM     35  H   UNL     1      45.655   3.461   7.328  0.00  0.00    +0.000 HD
ENDBRANCH  22  25
ENDBRANCH  20  21
ENDBRANCH   4  20
TORSDOF 7
ENDMDL
MODEL 9
REMARK VINA RESULT:    -6.683      4.601     11.184
REMARK INTER + INTRA:         -10.337
REMARK INTER:                  -9.052
REMARK INTRA:                  -1.285
REMARK UNBOUND:                -0.920
REMARK  Name = 
REMARK  8 active torsions:
REMARK  status: ('A' for Active; 'I' for Inactive)
REMARK    1  A    between atoms: C_1  and  O_2
REMARK    2  A    between atoms: O_2  and  C_3
REMARK    3  A    between atoms: C_8  and  C_9
REMARK    4  A    between atoms: N_11  and  C_12
REMARK    5  A    between atoms: C_12  and  C_13
REMARK    6  A    between atoms: C_16  and  C_17
REMARK    7  A    between atoms: C_17  and  N_18
REMARK    8  A    between atoms: C_19  and  C_21
REMARK                            x       y       z     vdW  Elec       q    Type
REMARK                         _______ _______ _______ _____ _____    ______ ____
ROOT
ATOM      1  C   UNL     1      51.529   3.685  17.690  0.00  0.00    +0.000 A 
ATOM      2  C   UNL     1      50.960   2.445  17.367  0.00  0.00    +0.000 A 
ATOM      3  C   UNL     1      49.592   2.338  17.084  0.00  0.00    +0.000 A 
ATOM      4  C   UNL     1      48.769   3.472  17.098  0.00  0.00    +0.000 A 
ATOM      5  C   UNL     1      49.339   4.710  17.424  0.00  0.00    +0.000 A 
ATOM      6  C   UNL     1      50.705   4.818  17.704  0.00  0.00    +0.000 A 
ENDROOT
BRANCH   1   7
ATOM      7  C   UNL     1      52.992   3.799  18.032  0.00  0.00    +0.000 C 
BRANCH   7  10
ATOM      8  C   UNL     1      53.344   4.876  20.213  0.00  0.00    +0.000 C 
ATOM      9  O   UNL     1      53.120   3.823  20.799  0.00  0.00    +0.000 OA
ATOM     10  N   UNL     1      53.298   4.962  18.830  0.00  0.00    +0.000 N 
ATOM     11  H   UNL     1      53.475   5.863  18.398  0.00  0.00    +0.000 HD
BRANCH   8  17
ATOM     12  C   UNL     1      52.862   7.287  20.873  0.00  0.00    +0.000 A 
ATOM     13  N   UNL     1      53.195   8.438  21.522  0.00  0.00    +0.000 NA
ATOM     14  C   UNL     1      54.349   8.414  22.222  0.00  0.00    +0.000 A 
ATOM     15  C   UNL     1      55.156   7.291  22.284  0.00  0.00    +0.000 A 
ATOM     16  N   UNL     1      54.855   6.138  21.642  0.00  0.00    +0.000 NA
ATOM     17  C   UNL     1      53.683   6.155  20.925  0.00  0.00    +0.000 A 
BRANCH  12  19
ATOM     18  C   UNL     1      50.528   7.033  20.952  0.00  0.00    +0.000 C 
ATOM     19  O   UNL     1      51.686   7.268  20.159  0.00  0.00    +0.000 OA
ENDBRANCH  12  19
ENDBRANCH   8  17
ENDBRANCH   7  10
ENDBRANCH   1   7
BRANCH   4  20
ATOM     20  C   UNL     1      47.292   3.371  16.811  0.00  0.00    +0.000 C 
BRANCH  20  21
ATOM     21  N   UNL     1      46.872   4.363  15.852  0.00  0.00    +0.000 N 
ATOM     22  C   UNL     1      46.893   4.113  14.502  0.00  0.00    +0.000 C 
ATOM     23  O   UNL     1      47.223   3.022  14.046  0.00  0.00    +0.000 OA
ATOM     24  H   UNL     1      46.839   5.324  16.175  0.00  0.00    +0.000 HD
BRANCH  22  25
ATOM     25  C   UNL     1      46.435   5.203  13.630  0.00  0.00    +0.000 A 
ATOM     26  C   UNL     1      47.262   6.296  13.397  0.00  0.00    +0.000 A 
ATOM     27  S   UNL     1      46.596   7.444  12.326  0.00  0.00    +0.000 S 
ATOM     28  C   UNL     1      45.157   6.549  12.175  0.00  0.00    +0.000 A 
ATOM     29  N   UNL     1      44.129   6.998  11.404  0.00  0.00    +0.000 NA
ATOM     30  C   UNL     1      43.090   6.233  11.401  0.00  0.00    +0.000 A 
ATOM     31  N   UNL     1      42.986   5.055  12.095  0.00  0.00    +0.000 N 
ATOM     32  C   UNL     1      44.003   4.547  12.864  0.00  0.00    +0.000 A 
ATOM     33  O   UNL     1      43.891   3.469  13.440  0.00  0.00    +0.000 OA
ATOM     34  C   UNL     1      45.194   5.377  12.914  0.00  0.00    +0.000 A 
ATOM     35  H   UNL     1      42.147   4.495  12.041  0.00  0.00    +0.000 HD
ENDBRANCH  22  25
ENDBRANCH  20  21
ENDBRANCH   4  20
TORSDOF 7
ENDMDL
