MODEL 1
REMARK VINA RESULT:    -7.327      0.000      0.000
REMARK INTER + INTRA:         -10.542
REMARK INTER:                  -9.683
REMARK INTRA:                  -0.859
REMARK UNBOUND:                -0.859
REMARK  Name = 
REMARK  7 active torsions:
REMARK  status: ('A' for Active; 'I' for Inactive)
REMARK    1  A    between atoms: C_1  and  C_2
REMARK    2  A    between atoms: C_2  and  O_3
REMARK    3  A    between atoms: C_2  and  C_23
REMARK    4  A    between atoms: O_3  and  C_4
REMARK    5  A    between atoms: C_9  and  C_10
REMARK    6  A    between atoms: C_14  and  N_15
REMARK    7  A    between atoms: C_23  and  O_25
REMARK                            x       y       z     vdW  Elec       q    Type
REMARK                         _______ _______ _______ _____ _____    ______ ____
ROOT
ATOM      1  C   UNL     1      47.945   5.635  14.929  0.00  0.00    +0.000 A 
ATOM      2  C   UNL     1      48.347   6.913  14.600  0.00  0.00    +0.000 A 
ATOM      3  C   UNL     1      47.718   7.546  13.532  0.00  0.00    +0.000 A 
ATOM      4  C   UNL     1      46.746   6.861  12.813  0.00  0.00    +0.000 A 
ATOM      5  F   UNL     1      46.179   7.471  11.765  0.00  0.00    +0.000 F 
ATOM      6  C   UNL     1      46.401   5.564  13.190  0.00  0.00    +0.000 A 
ATOM      7  N   UNL     1      46.979   4.967  14.274  0.00  0.00    +0.000 NA
ENDROOT
BRANCH   6   8
ATOM      8  C   UNL     1      45.430   4.718  12.467  0.00  0.00    +0.000 A 
ATOM      9  C   UNL     1      44.197   4.389  13.051  0.00  0.00    +0.000 A 
ATOM     10  C   UNL     1      43.271   3.600  12.374  0.00  0.00    +0.000 A 
ATOM     11  C   UNL     1      43.560   3.138  11.091  0.00  0.00    +0.000 A 
ATOM     12  C   UNL     1      44.764   3.449  10.447  0.00  0.00    +0.000 A 
ATOM     13  C   UNL     1      45.683   4.233  11.169  0.00  0.00    +0.000 A 
BRANCH  12  14
ATOM     14  N   UNL     1      45.028   3.031   9.159  0.00  0.00    +0.000 N 
ATOM     15  C   UNL     1      45.114   1.616   8.778  0.00  0.00    +0.000 C 
ATOM     16  C   UNL     1      46.437   1.344   8.026  0.00  0.00    +0.000 C 
ATOM     17  N   UNL     1      46.628   2.223   6.853  0.00  0.00    +0.000 NA
ATOM     18  C   UNL     1      46.552   3.630   7.298  0.00  0.00    +0.000 C 
ATOM     19  C   UNL     1      45.252   3.986   8.064  0.00  0.00    +0.000 C 
ATOM     20  H   UNL     1      45.853   2.057   6.211  0.00  0.00    +0.000 HD
ENDBRANCH  12  14
ENDBRANCH   6   8
BRANCH   1  21
ATOM     21  O   UNL     1      48.548   5.033  16.010  0.00  0.00    +0.000 OA
BRANCH  21  23
ATOM     22  C   UNL     1      49.246   2.884  16.809  0.00  0.00    +0.000 C 
ATOM     23  C   UNL     1      48.059   3.733  16.351  0.00  0.00    +0.000 C 
BRANCH  23  24
ATOM     24  C   UNL     1      47.032   3.859  17.481  0.00  0.00    +0.000 C 
ATOM     25  O   UNL     1      46.792   4.883  18.106  0.00  0.00    +0.000 OA
BRANCH  24  26
ATOM     26  O   UNL     1      46.398   2.693  17.762  0.00  0.00    +0.000 OA
ATOM     27  H   UNL     1      45.478   2.828  18.064  0.00  0.00    +0.000 HD
ENDBRANCH  24  26
ENDBRANCH  23  24
ENDBRANCH  21  23
ENDBRANCH   1  21
TORSDOF 6
ENDMDL
MODEL 2
REMARK VINA RESULT:    -7.178      4.516      5.761
REMARK INTER + INTRA:         -10.344
REMARK INTER:                  -9.353
REMARK INTRA:                  -0.991
REMARK UNBOUND:                -0.859
REMARK  Name = 
REMARK  7 active torsions:
REMARK  status: ('A' for Active; 'I' for Inactive)
REMARK    1  A    between atoms: C_1  and  C_2
REMARK    2  A    between atoms: C_2  and  O_3
REMARK    3  A    between atoms: C_2  and  C_23
REMARK    4  A    between atoms: O_3  and  C_4
REMARK    5  A    between atoms: C_9  and  C_10
REMARK    6  A    between atoms: C_14  and  N_15
REMARK    7  A    between atoms: C_23  and  O_25
REMARK                            x       y       z     vdW  Elec       q    Type
REMARK                         _______ _______ _______ _____ _____    ______ ____
ROOT
ATOM      1  C   UNL     1      44.392   9.260  11.354  0.00  0.00    +0.000 A 
ATOM      2  C   UNL     1      45.305   9.741  12.270  0.00  0.00    +0.000 A 
ATOM      3  C   UNL     1      46.076   8.821  12.975  0.00  0.00    +0.000 A 
ATOM      4  C   UNL     1      45.872   7.463  12.767  0.00  0.00    +0.000 A 
ATOM      5  F   UNL     1      46.595   6.592  13.482  0.00  0.00    +0.000 F 
ATOM      6  C   UNL     1      44.919   7.046  11.839  0.00  0.00    +0.000 A 
ATOM      7  N   UNL     1      44.205   7.951  11.106  0.00  0.00    +0.000 NA
ENDROOT
BRANCH   6   8
ATOM      8  C   UNL     1      44.573   5.634  11.579  0.00  0.00    +0.000 A 
ATOM      9  C   UNL     1      43.816   4.902  12.508  0.00  0.00    +0.000 A 
ATOM     10  C   UNL     1      43.476   3.574  12.268  0.00  0.00    +0.000 A 
ATOM     11  C   UNL     1      43.878   2.959  11.083  0.00  0.00    +0.000 A 
ATOM     12  C   UNL     1      44.617   3.642  10.109  0.00  0.00    +0.000 A 
ATOM     13  C   UNL     1      44.957   4.977  10.395  0.00  0.00    +0.000 A 
BRANCH  12  14
ATOM     14  N   UNL     1      44.972   3.046   8.917  0.00  0.00    +0.000 N 
ATOM     15  C   UNL     1      44.998   1.590   8.725  0.00  0.00    +0.000 C 
ATOM     16  C   UNL     1      46.364   1.150   8.152  0.00  0.00    +0.000 C 
ATOM     17  N   UNL     1      46.724   1.856   6.905  0.00  0.00    +0.000 NA
ATOM     18  C   UNL     1      46.702   3.311   7.162  0.00  0.00    +0.000 C 
ATOM     19  C   UNL     1      45.363   3.836   7.740  0.00  0.00    +0.000 C 
ATOM     20  H   UNL     1      46.004   1.652   6.212  0.00  0.00    +0.000 HD
ENDBRANCH  12  14
ENDBRANCH   6   8
BRANCH   1  21
ATOM     21  O   UNL     1      43.661  10.179  10.637  0.00  0.00    +0.000 OA
BRANCH  21  23
ATOM     22  C   UNL     1      42.712  12.331  11.103  0.00  0.00    +0.000 C 
ATOM     23  C   UNL     1      42.602  10.826  11.350  0.00  0.00    +0.000 C 
BRANCH  23  24
ATOM     24  C   UNL     1      41.256  10.302  10.839  0.00  0.00    +0.000 C 
ATOM     25  O   UNL     1      40.552  10.856  10.006  0.00  0.00    +0.000 OA
BRANCH  24  26
ATOM     26  O   UNL     1      40.877   9.138  11.424  0.00  0.00    +0.000 OA
ATOM     27  H   UNL     1      41.314   8.990  12.286  0.00  0.00    +0.000 HD
ENDBRANCH  24  26
ENDBRANCH  23  24
ENDBRANCH  21  23
ENDBRANCH   1  21
TORSDOF 6
ENDMDL
MODEL 3
REMARK VINA RESULT:    -7.025      2.540      3.902
REMARK INTER + INTRA:         -10.142
REMARK INTER:                  -9.352
REMARK INTRA:                  -0.789
REMARK UNBOUND:                -0.859
REMARK  Name = 
REMARK  7 active torsions:
REMARK  status: ('A' for Active; 'I' for Inactive)
REMARK    1  A    between atoms: C_1  and  C_2
REMARK    2  A    between atoms: C_2  and  O_3
REMARK    3  A    between atoms: C_2  and  C_23
REMARK    4  A    between atoms: O_3  and  C_4
REMARK    5  A    between atoms: C_9  and  C_10
REMARK    6  A    between atoms: C_14  and  N_15
REMARK    7  A    between atoms: C_23  and  O_25
REMARK                            x       y       z     vdW  Elec       q    Type
REMARK                         _______ _______ _______ _____ _____    ______ ____
ROOT
ATOM      1  C   UNL     1      49.690   5.748  16.985  0.00  0.00    +0.000 A 
ATOM      2  C   UNL     1      50.352   6.870  17.441  0.00  0.00    +0.000 A 
ATOM      3  C   UNL     1      50.221   8.051  16.715  0.00  0.00    +0.000 A 
ATOM      4  C   UNL     1      49.471   8.051  15.546  0.00  0.00    +0.000 A 
ATOM      5  F   UNL     1      49.387   9.185  14.842  0.00  0.00    +0.000 F 
ATOM      6  C   UNL     1      48.843   6.876  15.135  0.00  0.00    +0.000 A 
ATOM      7  N   UNL     1      48.925   5.733  15.879  0.00  0.00    +0.000 NA
ENDROOT
BRANCH   6   8
ATOM      8  C   UNL     1      48.073   6.740  13.882  0.00  0.00    +0.000 A 
ATOM      9  C   UNL     1      48.490   7.396  12.713  0.00  0.00    +0.000 A 
ATOM     10  C   UNL     1      47.776   7.267  11.525  0.00  0.00    +0.000 A 
ATOM     11  C   UNL     1      46.637   6.464  11.484  0.00  0.00    +0.000 A 
ATOM     12  C   UNL     1      46.183   5.769  12.611  0.00  0.00    +0.000 A 
ATOM     13  C   UNL     1      46.919   5.938  13.798  0.00  0.00    +0.000 A 
BRANCH  12  14
ATOM     14  N   UNL     1      45.083   4.937  12.556  0.00  0.00    +0.000 N 
ATOM     15  C   UNL     1      45.169   3.518  12.187  0.00  0.00    +0.000 C 
ATOM     16  C   UNL     1      44.166   3.199  11.055  0.00  0.00    +0.000 C 
ATOM     17  N   UNL     1      42.777   3.578  11.388  0.00  0.00    +0.000 NA
ATOM     18  C   UNL     1      42.748   5.015  11.730  0.00  0.00    +0.000 C 
ATOM     19  C   UNL     1      43.728   5.421  12.860  0.00  0.00    +0.000 C 
ATOM     20  H   UNL     1      42.502   3.054  12.219  0.00  0.00    +0.000 HD
ENDBRANCH  12  14
ENDBRANCH   6   8
BRANCH   1  21
ATOM     21  O   UNL     1      49.797   4.596  17.729  0.00  0.00    +0.000 OA
BRANCH  21  23
ATOM     22  C   UNL     1      50.184   2.278  17.254  0.00  0.00    +0.000 C 
ATOM     23  C   UNL     1      49.184   3.432  17.167  0.00  0.00    +0.000 C 
BRANCH  23  24
ATOM     24  C   UNL     1      47.917   3.095  17.960  0.00  0.00    +0.000 C 
ATOM     25  O   UNL     1      46.796   2.984  17.486  0.00  0.00    +0.000 OA
BRANCH  24  26
ATOM     26  O   UNL     1      48.142   2.946  19.290  0.00  0.00    +0.000 OA
ATOM     27  H   UNL     1      47.411   2.482  19.745  0.00  0.00    +0.000 HD
ENDBRANCH  24  26
ENDBRANCH  23  24
ENDBRANCH  21  23
ENDBRANCH   1  21
TORSDOF 6
ENDMDL
MODEL 4
REMARK VINA RESULT:    -6.987      4.776      7.582
REMARK INTER + INTRA:         -10.092
REMARK INTER:                  -9.096
REMARK INTRA:                  -0.996
REMARK UNBOUND:                -0.859
REMARK  Name = 
REMARK  7 active torsions:
REMARK  status: ('A' for Active; 'I' for Inactive)
REMARK    1  A    between atoms: C_1  and  C_2
REMARK    2  A    between atoms: C_2  and  O_3
REMARK    3  A    between atoms: C_2  and  C_23
REMARK    4  A    between atoms: O_3  and  C_4
REMARK    5  A    between atoms: C_9  and  C_10
REMARK    6  A    between atoms: C_14  and  N_15
REMARK    7  A    between atoms: C_23  and  O_25
REMARK                            x       y       z     vdW  Elec       q    Type
REMARK                         _______ _______ _______ _____ _____    ______ ____
ROOT
ATOM      1  C   UNL     1      44.513   3.325   9.736  0.00  0.00    +0.000 A 
ATOM      2  C   UNL     1      43.817   2.451  10.546  0.00  0.00    +0.000 A 
ATOM      3  C   UNL     1      43.493   2.864  11.835  0.00  0.00    +0.000 A 
ATOM      4  C   UNL     1      43.915   4.113  12.274  0.00  0.00    +0.000 A 
ATOM      5  F   UNL     1      43.627   4.479  13.529  0.00  0.00    +0.000 F 
ATOM      6  C   UNL     1      44.631   4.938  11.408  0.00  0.00    +0.000 A 
ATOM      7  N   UNL     1      44.897   4.553  10.125  0.00  0.00    +0.000 NA
ENDROOT
BRANCH   6   8
ATOM      8  C   UNL     1      45.183   6.256  11.782  0.00  0.00    +0.000 A 
ATOM      9  C   UNL     1      46.390   6.349  12.492  0.00  0.00    +0.000 A 
ATOM     10  C   UNL     1      46.924   7.586  12.841  0.00  0.00    +0.000 A 
ATOM     11  C   UNL     1      46.262   8.756  12.471  0.00  0.00    +0.000 A 
ATOM     12  C   UNL     1      45.064   8.729  11.745  0.00  0.00    +0.000 A 
ATOM     13  C   UNL     1      44.547   7.461  11.426  0.00  0.00    +0.000 A 
BRANCH  12  14
ATOM     14  N   UNL     1      44.436   9.888  11.339  0.00  0.00    +0.000 N 
ATOM     15  C   UNL     1      43.079   9.910  10.777  0.00  0.00    +0.000 C 
ATOM     16  C   UNL     1      43.070  10.667   9.430  0.00  0.00    +0.000 C 
ATOM     17  N   UNL     1      43.625  12.032   9.529  0.00  0.00    +0.000 NA
ATOM     18  C   UNL     1      44.995  11.948  10.078  0.00  0.00    +0.000 C 
ATOM     19  C   UNL     1      45.092  11.201  11.432  0.00  0.00    +0.000 C 
ATOM     20  H   UNL     1      43.054  12.554  10.194  0.00  0.00    +0.000 HD
ENDBRANCH  12  14
ENDBRANCH   6   8
BRANCH   1  21
ATOM     21  O   UNL     1      44.796   2.919   8.452  0.00  0.00    +0.000 OA
BRANCH  21  23
ATOM     22  C   UNL     1      46.306   1.108   8.017  0.00  0.00    +0.000 C 
ATOM     23  C   UNL     1      46.170   2.622   8.182  0.00  0.00    +0.000 C 
BRANCH  23  24
ATOM     24  C   UNL     1      46.596   3.335   6.895  0.00  0.00    +0.000 C 
ATOM     25  O   UNL     1      46.610   2.832   5.780  0.00  0.00    +0.000 OA
BRANCH  24  26
ATOM     26  O   UNL     1      46.997   4.615   7.098  0.00  0.00    +0.000 OA
ATOM     27  H   UNL     1      46.815   5.193   6.331  0.00  0.00    +0.000 HD
ENDBRANCH  24  26
ENDBRANCH  23  24
ENDBRANCH  21  23
ENDBRANCH   1  21
TORSDOF 6
ENDMDL
MODEL 5
REMARK VINA RESULT:    -6.965      4.086      7.448
REMARK INTER + INTRA:         -10.063
REMARK INTER:                  -8.962
REMARK INTRA:                  -1.101
REMARK UNBOUND:                -0.859
REMARK  Name = 
REMARK  7 active torsions:
REMARK  status: ('A' for Active; 'I' for Inactive)
REMARK    1  A    between atoms: C_1  and  C_2
REMARK    2  A    between atoms: C_2  and  O_3
REMARK    3  A    between atoms: C_2  and  C_23
REMARK    4  A    between atoms: O_3  and  C_4
REMARK    5  A    between atoms: C_9  and  C_10
REMARK    6  A    between atoms: C_14  and  N_15
REMARK    7  A    between atoms: C_23  and  O_25
REMARK                            x       y       z     vdW  Elec       q    Type
REMARK                         _______ _______ _______ _____ _____    ______ ____
ROOT
ATOM      1  C   UNL     1      44.563   3.358   9.840  0.00  0.00    +0.000 A 
ATOM      2  C   UNL     1      43.780   2.632  10.713  0.00  0.00    +0.000 A 
ATOM      3  C   UNL     1      43.522   3.172  11.970  0.00  0.00    +0.000 A 
ATOM      4  C   UNL     1      44.093   4.391  12.316  0.00  0.00    +0.000 A 
ATOM      5  F   UNL     1      43.865   4.877  13.542  0.00  0.00    +0.000 F 
ATOM      6  C   UNL     1      44.889   5.063  11.390  0.00  0.00    +0.000 A 
ATOM      7  N   UNL     1      45.093   4.558  10.136  0.00  0.00    +0.000 NA
ENDROOT
BRANCH   6   8
ATOM      8  C   UNL     1      45.595   6.330  11.665  0.00  0.00    +0.000 A 
ATOM      9  C   UNL     1      44.892   7.545  11.700  0.00  0.00    +0.000 A 
ATOM     10  C   UNL     1      45.547   8.744  11.967  0.00  0.00    +0.000 A 
ATOM     11  C   UNL     1      46.918   8.745  12.218  0.00  0.00    +0.000 A 
ATOM     12  C   UNL     1      47.670   7.564  12.217  0.00  0.00    +0.000 A 
ATOM     13  C   UNL     1      46.978   6.374  11.925  0.00  0.00    +0.000 A 
BRANCH  12  14
ATOM     14  N   UNL     1      49.017   7.561  12.513  0.00  0.00    +0.000 N 
ATOM     15  C   UNL     1      49.539   7.376  13.873  0.00  0.00    +0.000 C 
ATOM     16  C   UNL     1      50.525   8.512  14.227  0.00  0.00    +0.000 C 
ATOM     17  N   UNL     1      51.626   8.649  13.251  0.00  0.00    +0.000 NA
ATOM     18  C   UNL     1      51.044   8.852  11.907  0.00  0.00    +0.000 C 
ATOM     19  C   UNL     1      50.041   7.753  11.475  0.00  0.00    +0.000 C 
ATOM     20  H   UNL     1      52.141   7.768  13.237  0.00  0.00    +0.000 HD
ENDBRANCH  12  14
ENDBRANCH   6   8
BRANCH   1  21
ATOM     21  O   UNL     1      44.781   2.831   8.588  0.00  0.00    +0.000 OA
BRANCH  21  23
ATOM     22  C   UNL     1      46.262   1.050   7.971  0.00  0.00    +0.000 C 
ATOM     23  C   UNL     1      46.145   2.546   8.260  0.00  0.00    +0.000 C 
BRANCH  23  24
ATOM     24  C   UNL     1      46.548   3.357   7.025  0.00  0.00    +0.000 C 
ATOM     25  O   UNL     1      46.600   2.925   5.882  0.00  0.00    +0.000 OA
BRANCH  24  26
ATOM     26  O   UNL     1      46.879   4.642   7.311  0.00  0.00    +0.000 OA
ATOM     27  H   UNL     1      47.017   4.790   8.268  0.00  0.00    +0.000 HD
ENDBRANCH  24  26
ENDBRANCH  23  24
ENDBRANCH  21  23
ENDBRANCH   1  21
TORSDOF 6
ENDMDL
MODEL 6
REMARK VINA RESULT:    -6.939      1.961      3.248
REMARK INTER + INTRA:         -10.029
REMARK INTER:                  -9.020
REMARK INTRA:                  -1.010
REMARK UNBOUND:                -0.859
REMARK  Name = 
REMARK  7 active torsions:
REMARK  status: ('A' for Active; 'I' for Inactive)
REMARK    1  A    between atoms: C_1  and  C_2
REMARK    2  A    between atoms: C_2  and  O_3
REMARK    3  A    between atoms: C_2  and  C_23
REMARK    4  A    between atoms: O_3  and  C_4
REMARK    5  A    between atoms: C_9  and  C_10
REMARK    6  A    between atoms: C_14  and  N_15
REMARK    7  A    between atoms: C_23  and  O_25
REMARK                            x       y       z     vdW  Elec       q    Type
REMARK                         _______ _______ _______ _____ _____    ______ ____
ROOT
ATOM      1  C   UNL     1      48.902   6.393  15.823  0.00  0.00    +0.000 A 
ATOM      2  C   UNL     1      50.163   6.868  15.527  0.00  0.00    +0.000 A 
ATOM      3  C   UNL     1      50.327   7.623  14.369  0.00  0.00    +0.000 A 
ATOM      4  C   UNL     1      49.236   7.834  13.535  0.00  0.00    +0.000 A 
ATOM      5  F   UNL     1      49.420   8.529  12.407  0.00  0.00    +0.000 F 
ATOM      6  C   UNL     1      47.993   7.309  13.886  0.00  0.00    +0.000 A 
ATOM      7  N   UNL     1      47.822   6.618  15.053  0.00  0.00    +0.000 NA
ENDROOT
BRANCH   6   8
ATOM      8  C   UNL     1      46.779   7.415  13.052  0.00  0.00    +0.000 A 
ATOM      9  C   UNL     1      46.314   8.670  12.626  0.00  0.00    +0.000 A 
ATOM     10  C   UNL     1      45.176   8.781  11.832  0.00  0.00    +0.000 A 
ATOM     11  C   UNL     1      44.492   7.632  11.437  0.00  0.00    +0.000 A 
ATOM     12  C   UNL     1      44.918   6.352  11.813  0.00  0.00    +0.000 A 
ATOM     13  C   UNL     1      46.060   6.281  12.630  0.00  0.00    +0.000 A 
BRANCH  12  14
ATOM     14  N   UNL     1      44.266   5.215  11.382  0.00  0.00    +0.000 N 
ATOM     15  C   UNL     1      43.235   4.533  12.174  0.00  0.00    +0.000 C 
ATOM     16  C   UNL     1      43.572   3.030  12.310  0.00  0.00    +0.000 C 
ATOM     17  N   UNL     1      43.770   2.362  11.007  0.00  0.00    +0.000 NA
ATOM     18  C   UNL     1      44.829   3.076  10.263  0.00  0.00    +0.000 C 
ATOM     19  C   UNL     1      44.567   4.593  10.084  0.00  0.00    +0.000 C 
ATOM     20  H   UNL     1      42.903   2.450  10.476  0.00  0.00    +0.000 HD
ENDBRANCH  12  14
ENDBRANCH   6   8
BRANCH   1  21
ATOM     21  O   UNL     1      48.744   5.679  16.988  0.00  0.00    +0.000 OA
BRANCH  21  23
ATOM     22  C   UNL     1      49.585   3.491  17.490  0.00  0.00    +0.000 C 
ATOM     23  C   UNL     1      48.457   4.286  16.832  0.00  0.00    +0.000 C 
BRANCH  23  24
ATOM     24  C   UNL     1      47.120   3.967  17.508  0.00  0.00    +0.000 C 
ATOM     25  O   UNL     1      46.537   2.894  17.449  0.00  0.00    +0.000 OA
BRANCH  24  26
ATOM     26  O   UNL     1      46.598   5.019  18.186  0.00  0.00    +0.000 OA
ATOM     27  H   UNL     1      46.801   4.988  19.143  0.00  0.00    +0.000 HD
ENDBRANCH  24  26
ENDBRANCH  23  24
ENDBRANCH  21  23
ENDBRANCH   1  21
TORSDOF 6
ENDMDL
MODEL 7
REMARK VINA RESULT:    -6.748      3.676      5.179
REMARK INTER + INTRA:          -9.776
REMARK INTER:                  -8.828
REMARK INTRA:                  -0.948
REMARK UNBOUND:                -0.859
REMARK  Name = 
REMARK  7 active torsions:
REMARK  status: ('A' for Active; 'I' for Inactive)
REMARK    1  A    between atoms: C_1  and  C_2
REMARK    2  A    between atoms: C_2  and  O_3
REMARK    3  A    between atoms: C_2  and  C_23
REMARK    4  A    between atoms: O_3  and  C_4
REMARK    5  A    between atoms: C_9  and  C_10
REMARK    6  A    between atoms: C_14  and  N_15
REMARK    7  A    between atoms: C_23  and  O_25
REMARK                            x       y       z     vdW  Elec       q    Type
REMARK                         _______ _______ _______ _____ _____    ______ ____
ROOT
ATOM      1  C   UNL     1      45.503   8.795  12.758  0.00  0.00    +0.000 A 
ATOM      2  C   UNL     1      46.696   8.918  13.439  0.00  0.00    +0.000 A 
ATOM      3  C   UNL     1      47.456   7.771  13.650  0.00  0.00    +0.000 A 
ATOM      4  C   UNL     1      46.971   6.546  13.209  0.00  0.00    +0.000 A 
ATOM      5  F   UNL     1      47.696   5.447  13.454  0.00  0.00    +0.000 F 
ATOM      6  C   UNL     1      45.748   6.491  12.543  0.00  0.00    +0.000 A 
ATOM      7  N   UNL     1      45.032   7.626  12.287  0.00  0.00    +0.000 NA
ENDROOT
BRANCH   6   8
ATOM      8  C   UNL     1      45.105   5.243  12.085  0.00  0.00    +0.000 A 
ATOM      9  C   UNL     1      44.177   4.577  12.902  0.00  0.00    +0.000 A 
ATOM     10  C   UNL     1      43.559   3.405  12.476  0.00  0.00    +0.000 A 
ATOM     11  C   UNL     1      43.849   2.886  11.214  0.00  0.00    +0.000 A 
ATOM     12  C   UNL     1      44.751   3.515  10.347  0.00  0.00    +0.000 A 
ATOM     13  C   UNL     1      45.369   4.687  10.819  0.00  0.00    +0.000 A 
BRANCH  12  14
ATOM     14  N   UNL     1      45.001   3.027   9.081  0.00  0.00    +0.000 N 
ATOM     15  C   UNL     1      45.102   1.593   8.781  0.00  0.00    +0.000 C 
ATOM     16  C   UNL     1      46.417   1.296   8.025  0.00  0.00    +0.000 C 
ATOM     17  N   UNL     1      46.576   2.107   6.800  0.00  0.00    +0.000 NA
ATOM     18  C   UNL     1      46.486   3.537   7.164  0.00  0.00    +0.000 C 
ATOM     19  C   UNL     1      45.193   3.919   7.928  0.00  0.00    +0.000 C 
ATOM     20  H   UNL     1      45.794   1.894   6.181  0.00  0.00    +0.000 HD
ENDBRANCH  12  14
ENDBRANCH   6   8
BRANCH   1  21
ATOM     21  O   UNL     1      44.778   9.941  12.524  0.00  0.00    +0.000 OA
BRANCH  21  23
ATOM     22  C   UNL     1      43.394  10.438  10.631  0.00  0.00    +0.000 C 
ATOM     23  C   UNL     1      44.820  10.441  11.184  0.00  0.00    +0.000 C 
BRANCH  23  24
ATOM     24  C   UNL     1      45.381  11.866  11.193  0.00  0.00    +0.000 C 
ATOM     25  O   UNL     1      45.987  12.394  10.271  0.00  0.00    +0.000 OA
BRANCH  24  26
ATOM     26  O   UNL     1      45.164  12.519  12.363  0.00  0.00    +0.000 OA
ATOM     27  H   UNL     1      45.084  13.487  12.244  0.00  0.00    +0.000 HD
ENDBRANCH  24  26
ENDBRANCH  23  24
ENDBRANCH  21  23
ENDBRANCH   1  21
TORSDOF 6
ENDMDL
MODEL 8
REMARK VINA RESULT:    -6.650      2.997      7.537
REMARK INTER + INTRA:          -9.647
REMARK INTER:                  -8.753
REMARK INTRA:                  -0.894
REMARK UNBOUND:                -0.859
REMARK  Name = 
REMARK  7 active torsions:
REMARK  status: ('A' for Active; 'I' for Inactive)
REMARK    1  A    between atoms: C_1  and  C_2
REMARK    2  A    between atoms: C_2  and  O_3
REMARK    3  A    between atoms: C_2  and  C_23
REMARK    4  A    between atoms: O_3  and  C_4
REMARK    5  A    between atoms: C_9  and  C_10
REMARK    6  A    between atoms: C_14  and  N_15
REMARK    7  A    between atoms: C_23  and  O_25
REMARK                            x       y       z     vdW  Elec       q    Type
REMARK                         _______ _______ _______ _____ _____    ______ ____
ROOT
ATOM      1  C   UNL     1      45.880   5.407  12.068  0.00  0.00    +0.000 A 
ATOM      2  C   UNL     1      45.011   6.441  11.786  0.00  0.00    +0.000 A 
ATOM      3  C   UNL     1      45.288   7.698  12.316  0.00  0.00    +0.000 A 
ATOM      4  C   UNL     1      46.396   7.858  13.139  0.00  0.00    +0.000 A 
ATOM      5  F   UNL     1      46.627   9.065  13.670  0.00  0.00    +0.000 F 
ATOM      6  C   UNL     1      47.223   6.766  13.397  0.00  0.00    +0.000 A 
ATOM      7  N   UNL     1      46.981   5.547  12.828  0.00  0.00    +0.000 NA
ENDROOT
BRANCH   6   8
ATOM      8  C   UNL     1      48.390   6.801  14.302  0.00  0.00    +0.000 A 
ATOM      9  C   UNL     1      49.482   7.639  14.024  0.00  0.00    +0.000 A 
ATOM     10  C   UNL     1      50.583   7.686  14.875  0.00  0.00    +0.000 A 
ATOM     11  C   UNL     1      50.601   6.905  16.030  0.00  0.00    +0.000 A 
ATOM     12  C   UNL     1      49.533   6.065  16.370  0.00  0.00    +0.000 A 
ATOM     13  C   UNL     1      48.447   6.030  15.477  0.00  0.00    +0.000 A 
BRANCH  12  14
ATOM     14  N   UNL     1      49.533   5.329  17.537  0.00  0.00    +0.000 N 
ATOM     15  C   UNL     1      49.707   3.871  17.565  0.00  0.00    +0.000 C 
ATOM     16  C   UNL     1      48.567   3.212  18.375  0.00  0.00    +0.000 C 
ATOM     17  N   UNL     1      48.438   3.757  19.742  0.00  0.00    +0.000 NA
ATOM     18  C   UNL     1      48.246   5.220  19.653  0.00  0.00    +0.000 C 
ATOM     19  C   UNL     1      49.349   5.959  18.853  0.00  0.00    +0.000 C 
ATOM     20  H   UNL     1      49.319   3.588  20.230  0.00  0.00    +0.000 HD
ENDBRANCH  12  14
ENDBRANCH   6   8
BRANCH   1  21
ATOM     21  O   UNL     1      45.616   4.178  11.509  0.00  0.00    +0.000 OA
BRANCH  21  23
ATOM     22  C   UNL     1      44.272   3.251   9.753  0.00  0.00    +0.000 C 
ATOM     23  C   UNL     1      44.259   3.955  11.111  0.00  0.00    +0.000 C 
BRANCH  23  24
ATOM     24  C   UNL     1      43.564   3.076  12.156  0.00  0.00    +0.000 C 
ATOM     25  O   UNL     1      43.599   3.255  13.365  0.00  0.00    +0.000 OA
BRANCH  24  26
ATOM     26  O   UNL     1      42.897   2.026  11.615  0.00  0.00    +0.000 OA
ATOM     27  H   UNL     1      42.691   2.159  10.668  0.00  0.00    +0.000 HD
ENDBRANCH  24  26
ENDBRANCH  23  24
ENDBRANCH  21  23
ENDBRANCH   1  21
TORSDOF 6
ENDMDL
MODEL 9
REMARK VINA RESULT:    -6.192      4.568      7.119
REMARK INTER + INTRA:          -9.041
REMARK INTER:                  -8.142
REMARK INTRA:                  -0.899
REMARK UNBOUND:                -0.859
REMARK  Name = 
REMARK  7 active torsions:
REMARK  status: ('A' for Active; 'I' for Inactive)
REMARK    1  A    between atoms: C_1  and  C_2
REMARK    2  A    between atoms: C_2  and  O_3
REMARK    3  A    between atoms: C_2  and  C_23
REMARK    4  A    between atoms: O_3  and  C_4
REMARK    5  A    between atoms: C_9  and  C_10
REMARK    6  A    between atoms: C_14  and  N_15
REMARK    7  A    between atoms: C_23  and  O_25
REMARK                            x       y       z     vdW  Elec       q    Type
REMARK                         _______ _______ _______ _____ _____    ______ ____
ROOT
ATOM      1  C   UNL     1      45.862   5.418  12.101  0.00  0.00    +0.000 A 
ATOM      2  C   UNL     1      46.002   4.720  13.283  0.00  0.00    +0.000 A 
ATOM      3  C   UNL     1      46.993   5.124  14.173  0.00  0.00    +0.000 A 
ATOM      4  C   UNL     1      47.828   6.180  13.827  0.00  0.00    +0.000 A 
ATOM      5  F   UNL     1      48.799   6.531  14.678  0.00  0.00    +0.000 F 
ATOM      6  C   UNL     1      47.641   6.830  12.608  0.00  0.00    +0.000 A 
ATOM      7  N   UNL     1      46.631   6.468  11.762  0.00  0.00    +0.000 NA
ENDROOT
BRANCH   6   8
ATOM      8  C   UNL     1      48.502   7.921  12.107  0.00  0.00    +0.000 A 
ATOM      9  C   UNL     1      48.013   9.234  12.024  0.00  0.00    +0.000 A 
ATOM     10  C   UNL     1      48.818  10.271  11.562  0.00  0.00    +0.000 A 
ATOM     11  C   UNL     1      50.136  10.011  11.188  0.00  0.00    +0.000 A 
ATOM     12  C   UNL     1      50.687   8.726  11.266  0.00  0.00    +0.000 A 
ATOM     13  C   UNL     1      49.837   7.701  11.721  0.00  0.00    +0.000 A 
BRANCH  12  14
ATOM     14  N   UNL     1      52.005   8.480  10.940  0.00  0.00    +0.000 N 
ATOM     15  C   UNL     1      52.409   7.739   9.739  0.00  0.00    +0.000 C 
ATOM     16  C   UNL     1      53.374   6.593  10.116  0.00  0.00    +0.000 C 
ATOM     17  N   UNL     1      54.554   7.056  10.876  0.00  0.00    +0.000 NA
ATOM     18  C   UNL     1      54.089   7.774  12.081  0.00  0.00    +0.000 C 
ATOM     19  C   UNL     1      53.113   8.943  11.789  0.00  0.00    +0.000 C 
ATOM     20  H   UNL     1      55.059   7.722  10.292  0.00  0.00    +0.000 HD
ENDBRANCH  12  14
ENDBRANCH   6   8
BRANCH   1  21
ATOM     21  O   UNL     1      44.856   5.032  11.246  0.00  0.00    +0.000 OA
BRANCH  21  23
ATOM     22  C   UNL     1      42.525   5.138  11.795  0.00  0.00    +0.000 C 
ATOM     23  C   UNL     1      43.791   4.281  11.836  0.00  0.00    +0.000 C 
BRANCH  23  24
ATOM     24  C   UNL     1      43.582   2.989  11.040  0.00  0.00    +0.000 C 
ATOM     25  O   UNL     1      43.928   2.810   9.881  0.00  0.00    +0.000 OA
BRANCH  24  26
ATOM     26  O   UNL     1      42.936   2.025  11.743  0.00  0.00    +0.000 OA
ATOM     27  H   UNL     1      42.953   1.157  11.294  0.00  0.00    +0.000 HD
ENDBRANCH  24  26
ENDBRANCH  23  24
ENDBRANCH  21  23
ENDBRANCH   1  21
TORSDOF 6
ENDMDL
