MODEL 1
REMARK VINA RESULT:    -8.351      0.000      0.000
REMARK INTER + INTRA:         -13.578
REMARK INTER:                 -12.257
REMARK INTRA:                  -1.321
REMARK UNBOUND:                -1.321
REMARK  Name = 
REMARK  10 active torsions:
REMARK  status: ('A' for Active; 'I' for Inactive)
REMARK    1  A    between atoms: C_1  and  O_2
REMARK    2  A    between atoms: O_2  and  C_3
REMARK    3  A    between atoms: C_5  and  O_6
REMARK    4  A    between atoms: O_6  and  C_7
REMARK    5  A    between atoms: C_12  and  C_13
REMARK    6  A    between atoms: C_13  and  C_14
REMARK    7  A    between atoms: C_13  and  C_15
REMARK    8  A    between atoms: C_15  and  O_16
REMARK    9  A    between atoms: O_16  and  C_17
REMARK   10  A    between atoms: C_20  and  C_21
REMARK                            x       y       z     vdW  Elec       q    Type
REMARK                         _______ _______ _______ _____ _____    ______ ____
ROOT
ATOM      1  C   UNL     1      43.518   4.437  12.695  0.00  0.00    +0.000 C 
ATOM      2  C   UNL     1      42.488   5.422  12.124  0.00  0.00    +0.000 C 
ENDROOT
BRANCH   1   7
ATOM      3  C   UNL     1      46.368   7.014  12.604  0.00  0.00    +0.000 A 
ATOM      4  C   UNL     1      47.289   6.433  13.476  0.00  0.00    +0.000 A 
ATOM      5  C   UNL     1      47.043   5.165  13.998  0.00  0.00    +0.000 A 
ATOM      6  C   UNL     1      45.841   4.511  13.708  0.00  0.00    +0.000 A 
ATOM      7  C   UNL     1      44.867   5.112  12.895  0.00  0.00    +0.000 A 
ATOM      8  C   UNL     1      45.163   6.359  12.321  0.00  0.00    +0.000 A 
BRANCH   3  10
ATOM      9  C   UNL     1      45.447   9.163  12.252  0.00  0.00    +0.000 C 
ATOM     10  O   UNL     1      46.513   8.248  12.021  0.00  0.00    +0.000 OA
ENDBRANCH   3  10
BRANCH   5  11
ATOM     11  O   UNL     1      47.893   4.497  14.851  0.00  0.00    +0.000 OA
BRANCH  11  12
ATOM     12  C   UNL     1      47.349   3.854  16.028  0.00  0.00    +0.000 C 
ATOM     13  C   UNL     1      47.467   4.621  17.365  0.00  0.00    +0.000 C 
ATOM     14  C   UNL     1      48.061   3.371  18.024  0.00  0.00    +0.000 C 
ATOM     15  C   UNL     1      48.259   2.757  16.633  0.00  0.00    +0.000 C 
ENDBRANCH  11  12
ENDBRANCH   5  11
ENDBRANCH   1   7
BRANCH   1  16
ATOM     16  C   UNL     1      43.627   3.172  11.831  0.00  0.00    +0.000 C 
BRANCH  16  17
ATOM     17  O   UNL     1      43.374   3.496  10.455  0.00  0.00    +0.000 OA
BRANCH  17  18
ATOM     18  C   UNL     1      44.372   3.190   9.569  0.00  0.00    +0.000 A 
ATOM     19  C   UNL     1      44.842   1.905   9.301  0.00  0.00    +0.000 A 
ATOM     20  C   UNL     1      45.851   1.708   8.357  0.00  0.00    +0.000 A 
ATOM     21  C   UNL     1      46.398   2.788   7.665  0.00  0.00    +0.000 A 
ATOM     22  C   UNL     1      45.949   4.086   7.947  0.00  0.00    +0.000 A 
ATOM     23  C   UNL     1      44.941   4.280   8.897  0.00  0.00    +0.000 A 
BRANCH  21  24
ATOM     24  C   UNL     1      47.464   2.506   6.669  0.00  0.00    +0.000 C 
ATOM     25  N   UNL     1      47.409   3.163   5.474  0.00  0.00    +0.000 N 
ATOM     26  O   UNL     1      48.341   1.673   6.883  0.00  0.00    +0.000 OA
ATOM     27  H   UNL     1      46.601   3.687   5.169  0.00  0.00    +0.000 HD
ATOM     28  H   UNL     1      48.076   2.871   4.771  0.00  0.00    +0.000 HD
ENDBRANCH  21  24
ENDBRANCH  17  18
ENDBRANCH  16  17
ENDBRANCH   1  16
TORSDOF 8
ENDMDL
MODEL 2
REMARK VINA RESULT:    -7.889      0.848      4.225
REMARK INTER + INTRA:         -12.900
REMARK INTER:                 -11.807
REMARK INTRA:                  -1.092
REMARK UNBOUND:                -1.321
REMARK  Name = 
REMARK  10 active torsions:
REMARK  status: ('A' for Active; 'I' for Inactive)
REMARK    1  A    between atoms: C_1  and  O_2
REMARK    2  A    between atoms: O_2  and  C_3
REMARK    3  A    between atoms: C_5  and  O_6
REMARK    4  A    between atoms: O_6  and  C_7
REMARK    5  A    between atoms: C_12  and  C_13
REMARK    6  A    between atoms: C_13  and  C_14
REMARK    7  A    between atoms: C_13  and  C_15
REMARK    8  A    between atoms: C_15  and  O_16
REMARK    9  A    between atoms: O_16  and  C_17
REMARK   10  A    between atoms: C_20  and  C_21
REMARK                            x       y       z     vdW  Elec       q    Type
REMARK                         _______ _______ _______ _____ _____    ______ ____
ROOT
ATOM      1  C   UNL     1      43.625   4.305  12.457  0.00  0.00    +0.000 C 
ATOM      2  C   UNL     1      42.580   5.252  11.850  0.00  0.00    +0.000 C 
ENDROOT
BRANCH   1   7
ATOM      3  C   UNL     1      47.026   5.184  14.017  0.00  0.00    +0.000 A 
ATOM      4  C   UNL     1      47.308   6.398  13.390  0.00  0.00    +0.000 A 
ATOM      5  C   UNL     1      46.356   6.986  12.559  0.00  0.00    +0.000 A 
ATOM      6  C   UNL     1      45.154   6.321  12.295  0.00  0.00    +0.000 A 
ATOM      7  C   UNL     1      44.884   5.063  12.855  0.00  0.00    +0.000 A 
ATOM      8  C   UNL     1      45.824   4.520  13.746  0.00  0.00    +0.000 A 
BRANCH   3  10
ATOM      9  C   UNL     1      47.348   4.210  16.147  0.00  0.00    +0.000 C 
ATOM     10  O   UNL     1      47.881   4.524  14.864  0.00  0.00    +0.000 OA
ENDBRANCH   3  10
BRANCH   5  11
ATOM     11  O   UNL     1      46.527   8.187  11.908  0.00  0.00    +0.000 OA
BRANCH  11  12
ATOM     12  C   UNL     1      45.738   9.329  12.315  0.00  0.00    +0.000 C 
ATOM     13  C   UNL     1      44.523   9.694  11.431  0.00  0.00    +0.000 C 
ATOM     14  C   UNL     1      45.006  11.148  11.377  0.00  0.00    +0.000 C 
ATOM     15  C   UNL     1      46.358  10.698  11.945  0.00  0.00    +0.000 C 
ENDBRANCH  11  12
ENDBRANCH   5  11
ENDBRANCH   1   7
BRANCH   1  16
ATOM     16  C   UNL     1      43.932   3.128  11.517  0.00  0.00    +0.000 C 
BRANCH  16  17
ATOM     17  O   UNL     1      43.612   3.487  10.165  0.00  0.00    +0.000 OA
BRANCH  17  18
ATOM     18  C   UNL     1      44.555   3.181   9.220  0.00  0.00    +0.000 A 
ATOM     19  C   UNL     1      45.074   4.076   8.285  0.00  0.00    +0.000 A 
ATOM     20  C   UNL     1      46.051   3.660   7.380  0.00  0.00    +0.000 A 
ATOM     21  C   UNL     1      46.529   2.350   7.403  0.00  0.00    +0.000 A 
ATOM     22  C   UNL     1      45.995   1.437   8.323  0.00  0.00    +0.000 A 
ATOM     23  C   UNL     1      45.010   1.857   9.224  0.00  0.00    +0.000 A 
BRANCH  21  24
ATOM     24  C   UNL     1      47.576   1.976   6.416  0.00  0.00    +0.000 C 
ATOM     25  N   UNL     1      48.757   2.659   6.452  0.00  0.00    +0.000 N 
ATOM     26  O   UNL     1      47.377   1.118   5.560  0.00  0.00    +0.000 OA
ATOM     27  H   UNL     1      48.888   3.507   6.986  0.00  0.00    +0.000 HD
ATOM     28  H   UNL     1      49.407   2.468   5.701  0.00  0.00    +0.000 HD
ENDBRANCH  21  24
ENDBRANCH  17  18
ENDBRANCH  16  17
ENDBRANCH   1  16
TORSDOF 8
ENDMDL
MODEL 3
REMARK VINA RESULT:    -7.345      1.174      1.616
REMARK INTER + INTRA:         -12.101
REMARK INTER:                 -10.962
REMARK INTRA:                  -1.139
REMARK UNBOUND:                -1.321
REMARK  Name = 
REMARK  10 active torsions:
REMARK  status: ('A' for Active; 'I' for Inactive)
REMARK    1  A    between atoms: C_1  and  O_2
REMARK    2  A    between atoms: O_2  and  C_3
REMARK    3  A    between atoms: C_5  and  O_6
REMARK    4  A    between atoms: O_6  and  C_7
REMARK    5  A    between atoms: C_12  and  C_13
REMARK    6  A    between atoms: C_13  and  C_14
REMARK    7  A    between atoms: C_13  and  C_15
REMARK    8  A    between atoms: C_15  and  O_16
REMARK    9  A    between atoms: O_16  and  C_17
REMARK   10  A    between atoms: C_20  and  C_21
REMARK                            x       y       z     vdW  Elec       q    Type
REMARK                         _______ _______ _______ _____ _____    ______ ____
ROOT
ATOM      1  C   UNL     1      44.621   4.502  12.098  0.00  0.00    +0.000 C 
ATOM      2  C   UNL     1      43.504   4.238  13.117  0.00  0.00    +0.000 C 
ENDROOT
BRANCH   1   7
ATOM      3  C   UNL     1      47.373   7.020  13.024  0.00  0.00    +0.000 A 
ATOM      4  C   UNL     1      47.913   6.427  14.166  0.00  0.00    +0.000 A 
ATOM      5  C   UNL     1      47.471   5.169  14.567  0.00  0.00    +0.000 A 
ATOM      6  C   UNL     1      46.435   4.537  13.870  0.00  0.00    +0.000 A 
ATOM      7  C   UNL     1      45.826   5.151  12.764  0.00  0.00    +0.000 A 
ATOM      8  C   UNL     1      46.334   6.387  12.332  0.00  0.00    +0.000 A 
BRANCH   3  10
ATOM      9  C   UNL     1      46.677   9.165  12.315  0.00  0.00    +0.000 C 
ATOM     10  O   UNL     1      47.743   8.246  12.530  0.00  0.00    +0.000 OA
ENDBRANCH   3  10
BRANCH   5  11
ATOM     11  O   UNL     1      47.948   4.490  15.666  0.00  0.00    +0.000 OA
BRANCH  11  12
ATOM     12  C   UNL     1      48.197   5.218  16.891  0.00  0.00    +0.000 C 
ATOM     13  C   UNL     1      49.412   4.774  17.738  0.00  0.00    +0.000 C 
ATOM     14  C   UNL     1      48.516   4.714  18.981  0.00  0.00    +0.000 C 
ATOM     15  C   UNL     1      47.285   4.809  18.073  0.00  0.00    +0.000 C 
ENDBRANCH  11  12
ENDBRANCH   5  11
ENDBRANCH   1   7
BRANCH   1  16
ATOM     16  C   UNL     1      44.111   5.319  10.902  0.00  0.00    +0.000 C 
BRANCH  16  17
ATOM     17  O   UNL     1      43.669   4.437   9.860  0.00  0.00    +0.000 OA
BRANCH  17  18
ATOM     18  C   UNL     1      44.652   3.844   9.113  0.00  0.00    +0.000 A 
ATOM     19  C   UNL     1      45.591   4.523   8.338  0.00  0.00    +0.000 A 
ATOM     20  C   UNL     1      46.566   3.815   7.633  0.00  0.00    +0.000 A 
ATOM     21  C   UNL     1      46.620   2.423   7.699  0.00  0.00    +0.000 A 
ATOM     22  C   UNL     1      45.665   1.731   8.456  0.00  0.00    +0.000 A 
ATOM     23  C   UNL     1      44.686   2.444   9.157  0.00  0.00    +0.000 A 
BRANCH  21  24
ATOM     24  C   UNL     1      47.689   1.733   6.930  0.00  0.00    +0.000 C 
ATOM     25  N   UNL     1      48.633   2.507   6.319  0.00  0.00    +0.000 N 
ATOM     26  O   UNL     1      47.702   0.512   6.799  0.00  0.00    +0.000 OA
ATOM     27  H   UNL     1      48.545   3.508   6.216  0.00  0.00    +0.000 HD
ATOM     28  H   UNL     1      49.280   2.024   5.709  0.00  0.00    +0.000 HD
ENDBRANCH  21  24
ENDBRANCH  17  18
ENDBRANCH  16  17
ENDBRANCH   1  16
TORSDOF 8
ENDMDL
MODEL 4
REMARK VINA RESULT:    -7.138      2.460      4.884
REMARK INTER + INTRA:         -11.797
REMARK INTER:                 -10.807
REMARK INTRA:                  -0.990
REMARK UNBOUND:                -1.321
REMARK  Name = 
REMARK  10 active torsions:
REMARK  status: ('A' for Active; 'I' for Inactive)
REMARK    1  A    between atoms: C_1  and  O_2
REMARK    2  A    between atoms: O_2  and  C_3
REMARK    3  A    between atoms: C_5  and  O_6
REMARK    4  A    between atoms: O_6  and  C_7
REMARK    5  A    between atoms: C_12  and  C_13
REMARK    6  A    between atoms: C_13  and  C_14
REMARK    7  A    between atoms: C_13  and  C_15
REMARK    8  A    between atoms: C_15  and  O_16
REMARK    9  A    between atoms: O_16  and  C_17
REMARK   10  A    between atoms: C_20  and  C_21
REMARK                            x       y       z     vdW  Elec       q    Type
REMARK                         _______ _______ _______ _____ _____    ______ ____
ROOT
ATOM      1  C   UNL     1      45.355   5.051  11.620  0.00  0.00    +0.000 C 
ATOM      2  C   UNL     1      45.105   4.173  12.854  0.00  0.00    +0.000 C 
ENDROOT
BRANCH   1   7
ATOM      3  C   UNL     1      47.883   7.812  12.487  0.00  0.00    +0.000 A 
ATOM      4  C   UNL     1      47.057   8.936  12.524  0.00  0.00    +0.000 A 
ATOM      5  C   UNL     1      45.680   8.788  12.386  0.00  0.00    +0.000 A 
ATOM      6  C   UNL     1      45.135   7.524  12.134  0.00  0.00    +0.000 A 
ATOM      7  C   UNL     1      45.957   6.392  12.016  0.00  0.00    +0.000 A 
ATOM      8  C   UNL     1      47.336   6.550  12.229  0.00  0.00    +0.000 A 
BRANCH   3  10
ATOM      9  C   UNL     1      49.987   7.855  11.408  0.00  0.00    +0.000 C 
ATOM     10  O   UNL     1      49.249   7.840  12.626  0.00  0.00    +0.000 OA
ENDBRANCH   3  10
BRANCH   5  11
ATOM     11  O   UNL     1      44.777   9.827  12.425  0.00  0.00    +0.000 OA
BRANCH  11  12
ATOM     12  C   UNL     1      44.515  10.579  11.217  0.00  0.00    +0.000 C 
ATOM     13  C   UNL     1      43.601  11.820  11.346  0.00  0.00    +0.000 C 
ATOM     14  C   UNL     1      42.754  11.311  10.174  0.00  0.00    +0.000 C 
ATOM     15  C   UNL     1      43.445   9.948  10.293  0.00  0.00    +0.000 C 
ENDBRANCH  11  12
ENDBRANCH   5  11
ENDBRANCH   1   7
BRANCH   1  16
ATOM     16  C   UNL     1      44.081   5.214  10.777  0.00  0.00    +0.000 C 
BRANCH  16  17
ATOM     17  O   UNL     1      43.765   3.976  10.124  0.00  0.00    +0.000 OA
BRANCH  17  18
ATOM     18  C   UNL     1      44.692   3.510   9.230  0.00  0.00    +0.000 A 
ATOM     19  C   UNL     1      45.425   4.302   8.348  0.00  0.00    +0.000 A 
ATOM     20  C   UNL     1      46.363   3.721   7.493  0.00  0.00    +0.000 A 
ATOM     21  C   UNL     1      46.587   2.344   7.515  0.00  0.00    +0.000 A 
ATOM     22  C   UNL     1      45.836   1.537   8.382  0.00  0.00    +0.000 A 
ATOM     23  C   UNL     1      44.893   2.124   9.232  0.00  0.00    +0.000 A 
BRANCH  21  24
ATOM     24  C   UNL     1      47.606   1.792   6.585  0.00  0.00    +0.000 C 
ATOM     25  N   UNL     1      48.699   2.562   6.309  0.00  0.00    +0.000 N 
ATOM     26  O   UNL     1      47.454   0.704   6.036  0.00  0.00    +0.000 OA
ATOM     27  H   UNL     1      48.765   3.538   6.560  0.00  0.00    +0.000 HD
ATOM     28  H   UNL     1      49.319   2.216   5.588  0.00  0.00    +0.000 HD
ENDBRANCH  21  24
ENDBRANCH  17  18
ENDBRANCH  16  17
ENDBRANCH   1  16
TORSDOF 8
ENDMDL
MODEL 5
REMARK VINA RESULT:    -6.680      3.140      8.004
REMARK INTER + INTRA:         -11.126
REMARK INTER:                 -10.351
REMARK INTRA:                  -0.775
REMARK UNBOUND:                -1.321
REMARK  Name = 
REMARK  10 active torsions:
REMARK  status: ('A' for Active; 'I' for Inactive)
REMARK    1  A    between atoms: C_1  and  O_2
REMARK    2  A    between atoms: O_2  and  C_3
REMARK    3  A    between atoms: C_5  and  O_6
REMARK    4  A    between atoms: O_6  and  C_7
REMARK    5  A    between atoms: C_12  and  C_13
REMARK    6  A    between atoms: C_13  and  C_14
REMARK    7  A    between atoms: C_13  and  C_15
REMARK    8  A    between atoms: C_15  and  O_16
REMARK    9  A    between atoms: O_16  and  C_17
REMARK   10  A    between atoms: C_20  and  C_21
REMARK                            x       y       z     vdW  Elec       q    Type
REMARK                         _______ _______ _______ _____ _____    ______ ____
ROOT
ATOM      1  C   UNL     1      46.147   7.054  11.273  0.00  0.00    +0.000 C 
ATOM      2  C   UNL     1      45.077   7.848  12.034  0.00  0.00    +0.000 C 
ENDROOT
BRANCH   1   7
ATOM      3  C   UNL     1      43.927   3.995  10.576  0.00  0.00    +0.000 A 
ATOM      4  C   UNL     1      44.300   3.680   9.269  0.00  0.00    +0.000 A 
ATOM      5  C   UNL     1      45.341   4.375   8.659  0.00  0.00    +0.000 A 
ATOM      6  C   UNL     1      45.958   5.437   9.329  0.00  0.00    +0.000 A 
ATOM      7  C   UNL     1      45.546   5.820  10.615  0.00  0.00    +0.000 A 
ATOM      8  C   UNL     1      44.543   5.062  11.241  0.00  0.00    +0.000 A 
BRANCH   3  10
ATOM      9  C   UNL     1      43.315   2.181  11.964  0.00  0.00    +0.000 C 
ATOM     10  O   UNL     1      42.928   3.367  11.277  0.00  0.00    +0.000 OA
ENDBRANCH   3  10
BRANCH   5  11
ATOM     11  O   UNL     1      45.798   4.131   7.383  0.00  0.00    +0.000 OA
BRANCH  11  12
ATOM     12  C   UNL     1      46.954   3.281   7.198  0.00  0.00    +0.000 C 
ATOM     13  C   UNL     1      47.268   2.828   5.753  0.00  0.00    +0.000 C 
ATOM     14  C   UNL     1      47.364   1.376   6.236  0.00  0.00    +0.000 C 
ATOM     15  C   UNL     1      46.717   1.795   7.561  0.00  0.00    +0.000 C 
ENDBRANCH  11  12
ENDBRANCH   5  11
ENDBRANCH   1   7
BRANCH   1  16
ATOM     16  C   UNL     1      47.339   6.705  12.177  0.00  0.00    +0.000 C 
BRANCH  16  17
ATOM     17  O   UNL     1      47.102   5.453  12.837  0.00  0.00    +0.000 OA
BRANCH  17  18
ATOM     18  C   UNL     1      47.484   5.380  14.150  0.00  0.00    +0.000 A 
ATOM     19  C   UNL     1      48.307   6.300  14.798  0.00  0.00    +0.000 A 
ATOM     20  C   UNL     1      48.614   6.138  16.150  0.00  0.00    +0.000 A 
ATOM     21  C   UNL     1      48.097   5.062  16.872  0.00  0.00    +0.000 A 
ATOM     22  C   UNL     1      47.290   4.119  16.222  0.00  0.00    +0.000 A 
ATOM     23  C   UNL     1      46.989   4.282  14.865  0.00  0.00    +0.000 A 
BRANCH  21  24
ATOM     24  C   UNL     1      48.458   4.954  18.310  0.00  0.00    +0.000 C 
ATOM     25  N   UNL     1      48.069   3.831  18.982  0.00  0.00    +0.000 N 
ATOM     26  O   UNL     1      49.042   5.862  18.897  0.00  0.00    +0.000 OA
ATOM     27  H   UNL     1      47.409   3.164  18.607  0.00  0.00    +0.000 HD
ATOM     28  H   UNL     1      48.224   3.832  19.981  0.00  0.00    +0.000 HD
ENDBRANCH  21  24
ENDBRANCH  17  18
ENDBRANCH  16  17
ENDBRANCH   1  16
TORSDOF 8
ENDMDL
MODEL 6
REMARK VINA RESULT:    -6.407      1.759      2.242
REMARK INTER + INTRA:         -10.724
REMARK INTER:                 -10.529
REMARK INTRA:                  -0.195
REMARK UNBOUND:                -1.321
REMARK  Name = 
REMARK  10 active torsions:
REMARK  status: ('A' for Active; 'I' for Inactive)
REMARK    1  A    between atoms: C_1  and  O_2
REMARK    2  A    between atoms: O_2  and  C_3
REMARK    3  A    between atoms: C_5  and  O_6
REMARK    4  A    between atoms: O_6  and  C_7
REMARK    5  A    between atoms: C_12  and  C_13
REMARK    6  A    between atoms: C_13  and  C_14
REMARK    7  A    between atoms: C_13  and  C_15
REMARK    8  A    between atoms: C_15  and  O_16
REMARK    9  A    between atoms: O_16  and  C_17
REMARK   10  A    between atoms: C_20  and  C_21
REMARK                            x       y       z     vdW  Elec       q    Type
REMARK                         _______ _______ _______ _____ _____    ______ ____
ROOT
ATOM      1  C   UNL     1      45.654   5.274  12.282  0.00  0.00    +0.000 C 
ATOM      2  C   UNL     1      46.183   6.197  11.176  0.00  0.00    +0.000 C 
ENDROOT
BRANCH   1   7
ATOM      3  C   UNL     1      48.446   6.237  14.742  0.00  0.00    +0.000 A 
ATOM      4  C   UNL     1      48.125   5.442  15.843  0.00  0.00    +0.000 A 
ATOM      5  C   UNL     1      47.087   4.518  15.751  0.00  0.00    +0.000 A 
ATOM      6  C   UNL     1      46.320   4.443  14.583  0.00  0.00    +0.000 A 
ATOM      7  C   UNL     1      46.577   5.288  13.493  0.00  0.00    +0.000 A 
ATOM      8  C   UNL     1      47.673   6.163  13.578  0.00  0.00    +0.000 A 
BRANCH   3  10
ATOM      9  C   UNL     1      49.758   7.704  13.433  0.00  0.00    +0.000 C 
ATOM     10  O   UNL     1      49.455   7.167  14.717  0.00  0.00    +0.000 OA
ENDBRANCH   3  10
BRANCH   5  11
ATOM     11  O   UNL     1      46.701   3.676  16.770  0.00  0.00    +0.000 OA
BRANCH  11  12
ATOM     12  C   UNL     1      47.673   2.768  17.340  0.00  0.00    +0.000 C 
ATOM     13  C   UNL     1      48.808   3.392  18.185  0.00  0.00    +0.000 C 
ATOM     14  C   UNL     1      49.840   2.602  17.371  0.00  0.00    +0.000 C 
ATOM     15  C   UNL     1      48.750   2.278  16.343  0.00  0.00    +0.000 C 
ENDBRANCH  11  12
ENDBRANCH   5  11
ENDBRANCH   1   7
BRANCH   1  16
ATOM     16  C   UNL     1      45.407   3.851  11.759  0.00  0.00    +0.000 C 
BRANCH  16  17
ATOM     17  O   UNL     1      44.660   3.904  10.534  0.00  0.00    +0.000 OA
BRANCH  17  18
ATOM     18  C   UNL     1      45.290   3.415   9.420  0.00  0.00    +0.000 A 
ATOM     19  C   UNL     1      45.516   2.066   9.153  0.00  0.00    +0.000 A 
ATOM     20  C   UNL     1      46.150   1.679   7.971  0.00  0.00    +0.000 A 
ATOM     21  C   UNL     1      46.557   2.634   7.039  0.00  0.00    +0.000 A 
ATOM     22  C   UNL     1      46.355   3.994   7.311  0.00  0.00    +0.000 A 
ATOM     23  C   UNL     1      45.725   4.377   8.500  0.00  0.00    +0.000 A 
BRANCH  21  24
ATOM     24  C   UNL     1      47.219   2.152   5.798  0.00  0.00    +0.000 C 
ATOM     25  N   UNL     1      48.538   1.810   5.872  0.00  0.00    +0.000 N 
ATOM     26  O   UNL     1      46.622   2.109   4.725  0.00  0.00    +0.000 OA
ATOM     27  H   UNL     1      49.121   2.029   6.667  0.00  0.00    +0.000 HD
ATOM     28  H   UNL     1      48.994   1.596   4.995  0.00  0.00    +0.000 HD
ENDBRANCH  21  24
ENDBRANCH  17  18
ENDBRANCH  16  17
ENDBRANCH   1  16
TORSDOF 8
ENDMDL
MODEL 7
REMARK VINA RESULT:    -6.141      2.781      4.848
REMARK INTER + INTRA:         -10.333
REMARK INTER:                  -8.926
REMARK INTRA:                  -1.407
REMARK UNBOUND:                -1.321
REMARK  Name = 
REMARK  10 active torsions:
REMARK  status: ('A' for Active; 'I' for Inactive)
REMARK    1  A    between atoms: C_1  and  O_2
REMARK    2  A    between atoms: O_2  and  C_3
REMARK    3  A    between atoms: C_5  and  O_6
REMARK    4  A    between atoms: O_6  and  C_7
REMARK    5  A    between atoms: C_12  and  C_13
REMARK    6  A    between atoms: C_13  and  C_14
REMARK    7  A    between atoms: C_13  and  C_15
REMARK    8  A    between atoms: C_15  and  O_16
REMARK    9  A    between atoms: O_16  and  C_17
REMARK   10  A    between atoms: C_20  and  C_21
REMARK                            x       y       z     vdW  Elec       q    Type
REMARK                         _______ _______ _______ _____ _____    ______ ____
ROOT
ATOM      1  C   UNL     1      48.606   8.584  12.736  0.00  0.00    +0.000 C 
ATOM      2  C   UNL     1      49.449   7.617  11.892  0.00  0.00    +0.000 C 
ENDROOT
BRANCH   1   7
ATOM      3  C   UNL     1      48.575   8.956  16.561  0.00  0.00    +0.000 A 
ATOM      4  C   UNL     1      48.835   7.646  16.965  0.00  0.00    +0.000 A 
ATOM      5  C   UNL     1      49.133   6.674  16.013  0.00  0.00    +0.000 A 
ATOM      6  C   UNL     1      49.096   6.996  14.652  0.00  0.00    +0.000 A 
ATOM      7  C   UNL     1      48.761   8.289  14.222  0.00  0.00    +0.000 A 
ATOM      8  C   UNL     1      48.534   9.273  15.198  0.00  0.00    +0.000 A 
BRANCH   3  10
ATOM      9  C   UNL     1      48.661  11.287  16.948  0.00  0.00    +0.000 C 
ATOM     10  O   UNL     1      48.285   9.994  17.412  0.00  0.00    +0.000 OA
ENDBRANCH   3  10
BRANCH   5  11
ATOM     11  O   UNL     1      49.420   5.360  16.306  0.00  0.00    +0.000 OA
BRANCH  11  12
ATOM     12  C   UNL     1      48.657   4.683  17.332  0.00  0.00    +0.000 C 
ATOM     13  C   UNL     1      48.986   3.193  17.584  0.00  0.00    +0.000 C 
ATOM     14  C   UNL     1      47.495   2.852  17.476  0.00  0.00    +0.000 C 
ATOM     15  C   UNL     1      47.239   4.246  16.889  0.00  0.00    +0.000 C 
ENDBRANCH  11  12
ENDBRANCH   5  11
ENDBRANCH   1   7
BRANCH   1  16
ATOM     16  C   UNL     1      47.135   8.579  12.296  0.00  0.00    +0.000 C 
BRANCH  16  17
ATOM     17  O   UNL     1      46.357   7.779  13.198  0.00  0.00    +0.000 OA
BRANCH  17  18
ATOM     18  C   UNL     1      45.885   6.593  12.701  0.00  0.00    +0.000 A 
ATOM     19  C   UNL     1      45.821   5.394  13.410  0.00  0.00    +0.000 A 
ATOM     20  C   UNL     1      45.298   4.248  12.809  0.00  0.00    +0.000 A 
ATOM     21  C   UNL     1      44.825   4.287  11.497  0.00  0.00    +0.000 A 
ATOM     22  C   UNL     1      44.909   5.482  10.769  0.00  0.00    +0.000 A 
ATOM     23  C   UNL     1      45.439   6.627  11.374  0.00  0.00    +0.000 A 
BRANCH  21  24
ATOM     24  C   UNL     1      44.275   3.032  10.921  0.00  0.00    +0.000 C 
ATOM     25  N   UNL     1      45.015   2.390   9.971  0.00  0.00    +0.000 N 
ATOM     26  O   UNL     1      43.169   2.607  11.245  0.00  0.00    +0.000 OA
ATOM     27  H   UNL     1      45.817   2.807   9.521  0.00  0.00    +0.000 HD
ATOM     28  H   UNL     1      44.570   1.605   9.513  0.00  0.00    +0.000 HD
ENDBRANCH  21  24
ENDBRANCH  17  18
ENDBRANCH  16  17
ENDBRANCH   1  16
TORSDOF 8
ENDMDL
MODEL 8
REMARK VINA RESULT:    -6.101      3.922      7.367
REMARK INTER + INTRA:         -10.275
REMARK INTER:                  -8.925
REMARK INTRA:                  -1.350
REMARK UNBOUND:                -1.321
REMARK  Name = 
REMARK  10 active torsions:
REMARK  status: ('A' for Active; 'I' for Inactive)
REMARK    1  A    between atoms: C_1  and  O_2
REMARK    2  A    between atoms: O_2  and  C_3
REMARK    3  A    between atoms: C_5  and  O_6
REMARK    4  A    between atoms: O_6  and  C_7
REMARK    5  A    between atoms: C_12  and  C_13
REMARK    6  A    between atoms: C_13  and  C_14
REMARK    7  A    between atoms: C_13  and  C_15
REMARK    8  A    between atoms: C_15  and  O_16
REMARK    9  A    between atoms: O_16  and  C_17
REMARK   10  A    between atoms: C_20  and  C_21
REMARK                            x       y       z     vdW  Elec       q    Type
REMARK                         _______ _______ _______ _____ _____    ______ ____
ROOT
ATOM      1  C   UNL     1      48.944   8.542  12.282  0.00  0.00    +0.000 C 
ATOM      2  C   UNL     1      49.274   9.923  12.866  0.00  0.00    +0.000 C 
ENDROOT
BRANCH   1   7
ATOM      3  C   UNL     1      45.177   9.265  12.046  0.00  0.00    +0.000 A 
ATOM      4  C   UNL     1      44.689   8.032  11.611  0.00  0.00    +0.000 A 
ATOM      5  C   UNL     1      45.552   6.944  11.507  0.00  0.00    +0.000 A 
ATOM      6  C   UNL     1      46.918   7.109  11.764  0.00  0.00    +0.000 A 
ATOM      7  C   UNL     1      47.441   8.359  12.128  0.00  0.00    +0.000 A 
ATOM      8  C   UNL     1      46.544   9.427  12.297  0.00  0.00    +0.000 A 
BRANCH   3  10
ATOM      9  C   UNL     1      44.822  11.516  11.417  0.00  0.00    +0.000 C 
ATOM     10  O   UNL     1      44.416  10.397  12.199  0.00  0.00    +0.000 OA
ENDBRANCH   3  10
BRANCH   5  11
ATOM     11  O   UNL     1      45.171   5.683  11.105  0.00  0.00    +0.000 OA
BRANCH  11  12
ATOM     12  C   UNL     1      44.396   4.860  12.008  0.00  0.00    +0.000 C 
ATOM     13  C   UNL     1      44.878   3.407  12.223  0.00  0.00    +0.000 C 
ATOM     14  C   UNL     1      43.460   2.899  11.934  0.00  0.00    +0.000 C 
ATOM     15  C   UNL     1      43.097   4.286  11.392  0.00  0.00    +0.000 C 
ENDBRANCH  11  12
ENDBRANCH   5  11
ENDBRANCH   1   7
BRANCH   1  16
ATOM     16  C   UNL     1      49.583   7.414  13.106  0.00  0.00    +0.000 C 
BRANCH  16  17
ATOM     17  O   UNL     1      49.418   7.679  14.507  0.00  0.00    +0.000 OA
BRANCH  17  18
ATOM     18  C   UNL     1      48.918   6.651  15.262  0.00  0.00    +0.000 A 
ATOM     19  C   UNL     1      47.909   5.777  14.859  0.00  0.00    +0.000 A 
ATOM     20  C   UNL     1      47.492   4.748  15.704  0.00  0.00    +0.000 A 
ATOM     21  C   UNL     1      48.083   4.573  16.956  0.00  0.00    +0.000 A 
ATOM     22  C   UNL     1      49.080   5.462  17.378  0.00  0.00    +0.000 A 
ATOM     23  C   UNL     1      49.491   6.497  16.530  0.00  0.00    +0.000 A 
BRANCH  21  24
ATOM     24  C   UNL     1      47.596   3.452  17.802  0.00  0.00    +0.000 C 
ATOM     25  N   UNL     1      48.333   3.118  18.902  0.00  0.00    +0.000 N 
ATOM     26  O   UNL     1      46.595   2.807  17.503  0.00  0.00    +0.000 OA
ATOM     27  H   UNL     1      49.265   3.469  19.069  0.00  0.00    +0.000 HD
ATOM     28  H   UNL     1      48.047   2.282  19.395  0.00  0.00    +0.000 HD
ENDBRANCH  21  24
ENDBRANCH  17  18
ENDBRANCH  16  17
ENDBRANCH   1  16
TORSDOF 8
ENDMDL
MODEL 9
REMARK VINA RESULT:    -6.093      4.049      7.729
REMARK INTER + INTRA:         -10.263
REMARK INTER:                  -8.070
REMARK INTRA:                  -2.193
REMARK UNBOUND:                -1.321
REMARK  Name = 
REMARK  10 active torsions:
REMARK  status: ('A' for Active; 'I' for Inactive)
REMARK    1  A    between atoms: C_1  and  O_2
REMARK    2  A    between atoms: O_2  and  C_3
REMARK    3  A    between atoms: C_5  and  O_6
REMARK    4  A    between atoms: O_6  and  C_7
REMARK    5  A    between atoms: C_12  and  C_13
REMARK    6  A    between atoms: C_13  and  C_14
REMARK    7  A    between atoms: C_13  and  C_15
REMARK    8  A    between atoms: C_15  and  O_16
REMARK    9  A    between atoms: O_16  and  C_17
REMARK   10  A    between atoms: C_20  and  C_21
REMARK                            x       y       z     vdW  Elec       q    Type
REMARK                         _______ _______ _______ _____ _____    ______ ____
ROOT
ATOM      1  C   UNL     1      47.878   7.721  13.055  0.00  0.00    +0.000 C 
ATOM      2  C   UNL     1      46.981   8.904  13.445  0.00  0.00    +0.000 C 
ENDROOT
BRANCH   1   7
ATOM      3  C   UNL     1      45.354   4.972  12.136  0.00  0.00    +0.000 A 
ATOM      4  C   UNL     1      45.808   3.912  12.921  0.00  0.00    +0.000 A 
ATOM      5  C   UNL     1      46.847   4.115  13.825  0.00  0.00    +0.000 A 
ATOM      6  C   UNL     1      47.483   5.360  13.890  0.00  0.00    +0.000 A 
ATOM      7  C   UNL     1      47.092   6.417  13.054  0.00  0.00    +0.000 A 
ATOM      8  C   UNL     1      45.996   6.214  12.199  0.00  0.00    +0.000 A 
BRANCH   3  10
ATOM      9  C   UNL     1      43.423   3.810  11.423  0.00  0.00    +0.000 C 
ATOM     10  O   UNL     1      44.331   4.889  11.224  0.00  0.00    +0.000 OA
ENDBRANCH   3  10
BRANCH   5  11
ATOM     11  O   UNL     1      47.357   3.143  14.656  0.00  0.00    +0.000 OA
BRANCH  11  12
ATOM     12  C   UNL     1      47.979   3.535  15.902  0.00  0.00    +0.000 C 
ATOM     13  C   UNL     1      48.722   2.433  16.694  0.00  0.00    +0.000 C 
ATOM     14  C   UNL     1      47.955   2.835  17.959  0.00  0.00    +0.000 C 
ATOM     15  C   UNL     1      46.999   3.663  17.093  0.00  0.00    +0.000 C 
ENDBRANCH  11  12
ENDBRANCH   5  11
ENDBRANCH   1   7
BRANCH   1  16
ATOM     16  C   UNL     1      49.127   7.643  13.947  0.00  0.00    +0.000 C 
BRANCH  16  17
ATOM     17  O   UNL     1      48.808   8.087  15.274  0.00  0.00    +0.000 OA
BRANCH  17  18
ATOM     18  C   UNL     1      49.229   7.281  16.298  0.00  0.00    +0.000 A 
ATOM     19  C   UNL     1      50.317   6.412  16.240  0.00  0.00    +0.000 A 
ATOM     20  C   UNL     1      50.670   5.652  17.357  0.00  0.00    +0.000 A 
ATOM     21  C   UNL     1      49.948   5.756  18.545  0.00  0.00    +0.000 A 
ATOM     22  C   UNL     1      48.837   6.609  18.604  0.00  0.00    +0.000 A 
ATOM     23  C   UNL     1      48.483   7.365  17.481  0.00  0.00    +0.000 A 
BRANCH  21  24
ATOM     24  C   UNL     1      50.383   4.924  19.697  0.00  0.00    +0.000 C 
ATOM     25  N   UNL     1      51.523   4.186  19.554  0.00  0.00    +0.000 N 
ATOM     26  O   UNL     1      49.720   4.855  20.728  0.00  0.00    +0.000 OA
ATOM     27  H   UNL     1      51.979   4.042  18.665  0.00  0.00    +0.000 HD
ATOM     28  H   UNL     1      51.735   3.543  20.305  0.00  0.00    +0.000 HD
ENDBRANCH  21  24
ENDBRANCH  17  18
ENDBRANCH  16  17
ENDBRANCH   1  16
TORSDOF 8
ENDMDL
