MODEL 1
REMARK VINA RESULT:    -8.222      0.000      0.000
REMARK INTER + INTRA:         -12.398
REMARK INTER:                 -12.068
REMARK INTRA:                  -0.330
REMARK UNBOUND:                -0.330
REMARK  Name = 
REMARK  10 active torsions:
REMARK  status: ('A' for Active; 'I' for Inactive)
REMARK    1  A    between atoms: C_1  and  C_2
REMARK    2  A    between atoms: C_2  and  C_3
REMARK    3  A    between atoms: C_2  and  N_10
REMARK    4  A    between atoms: C_3  and  C_4
REMARK    5  A    between atoms: N_10  and  C_11
REMARK    6  A    between atoms: N_10  and  C_12
REMARK    7  A    between atoms: C_12  and  C_13
REMARK    8  A    between atoms: C_16  and  C_17
REMARK    9  A    between atoms: C_17  and  N_18
REMARK   10  A    between atoms: C_19  and  C_21
REMARK                            x       y       z     vdW  Elec       q    Type
REMARK                         _______ _______ _______ _____ _____    ______ ____
ROOT
ATOM      1  C   UNL     1      46.501   4.792  13.619  0.00  0.00    +0.000 A 
ATOM      2  C   UNL     1      47.201   5.956  13.301  0.00  0.00    +0.000 A 
ATOM      3  C   UNL     1      48.114   6.485  14.201  0.00  0.00    +0.000 A 
ATOM      4  C   UNL     1      48.238   5.913  15.461  0.00  0.00    +0.000 A 
ATOM      5  C   UNL     1      47.516   4.755  15.711  0.00  0.00    +0.000 A 
ATOM      6  N   UNL     1      46.667   4.184  14.823  0.00  0.00    +0.000 NA
ENDROOT
BRANCH   1   7
ATOM      7  C   UNL     1      45.407   4.238  12.708  0.00  0.00    +0.000 C 
BRANCH   7   8
ATOM      8  N   UNL     1      45.527   4.429  11.232  0.00  0.00    +0.000 NA
ATOM      9  C   UNL     1      45.715   5.840  10.885  0.00  0.00    +0.000 C 
BRANCH   8  11
ATOM     10  C   UNL     1      43.085   3.749  11.379  0.00  0.00    +0.000 C 
ATOM     11  C   UNL     1      44.353   3.847  10.505  0.00  0.00    +0.000 C 
BRANCH  11  12
ATOM     12  C   UNL     1      44.608   2.444   9.866  0.00  0.00    +0.000 C 
BRANCH  12  13
ATOM     13  C   UNL     1      45.500   2.442   8.648  0.00  0.00    +0.000 A 
ATOM     14  C   UNL     1      45.655   3.575   7.851  0.00  0.00    +0.000 A 
ATOM     15  C   UNL     1      46.568   3.551   6.803  0.00  0.00    +0.000 A 
ATOM     16  C   UNL     1      47.280   2.386   6.554  0.00  0.00    +0.000 A 
ATOM     17  C   UNL     1      47.035   1.289   7.361  0.00  0.00    +0.000 A 
ATOM     18  N   UNL     1      46.168   1.291   8.396  0.00  0.00    +0.000 NA
ENDBRANCH  12  13
ENDBRANCH  11  12
ENDBRANCH   8  11
ENDBRANCH   7   8
ENDBRANCH   1   7
BRANCH   4  19
ATOM     19  C   UNL     1      49.109   6.539  16.501  0.00  0.00    +0.000 C 
BRANCH  19  20
ATOM     20  N   UNL     1      50.184   5.666  16.878  0.00  0.00    +0.000 N 
ATOM     21  C   UNL     1      50.500   5.476  18.195  0.00  0.00    +0.000 C 
ATOM     22  O   UNL     1      49.869   6.017  19.101  0.00  0.00    +0.000 OA
ATOM     23  H   UNL     1      50.859   5.420  16.159  0.00  0.00    +0.000 HD
BRANCH  21  24
ATOM     24  C   UNL     1      51.591   4.540  18.467  0.00  0.00    +0.000 A 
ATOM     25  C   UNL     1      52.687   4.963  19.212  0.00  0.00    +0.000 A 
ATOM     26  S   UNL     1      53.835   3.737  19.486  0.00  0.00    +0.000 S 
ATOM     27  C   UNL     1      52.934   2.610  18.584  0.00  0.00    +0.000 A 
ATOM     28  N   UNL     1      53.380   1.339  18.403  0.00  0.00    +0.000 NA
ATOM     29  C   UNL     1      52.607   0.598  17.682  0.00  0.00    +0.000 A 
ATOM     30  N   UNL     1      51.424   1.012  17.126  0.00  0.00    +0.000 N 
ATOM     31  C   UNL     1      50.922   2.281  17.296  0.00  0.00    +0.000 A 
ATOM     32  O   UNL     1      49.847   2.610  16.810  0.00  0.00    +0.000 OA
ATOM     33  C   UNL     1      51.761   3.158  18.095  0.00  0.00    +0.000 A 
ATOM     34  H   UNL     1      50.860   0.379  16.580  0.00  0.00    +0.000 HD
ENDBRANCH  21  24
ENDBRANCH  19  20
ENDBRANCH   4  19
TORSDOF 8
ENDMDL
MODEL 2
REMARK VINA RESULT:    -7.769      4.060     10.249
REMARK INTER + INTRA:         -11.733
REMARK INTER:                  -9.698
REMARK INTRA:                  -2.035
REMARK UNBOUND:                -0.330
REMARK  Name = 
REMARK  10 active torsions:
REMARK  status: ('A' for Active; 'I' for Inactive)
REMARK    1  A    between atoms: C_1  and  C_2
REMARK    2  A    between atoms: C_2  and  C_3
REMARK    3  A    between atoms: C_2  and  N_10
REMARK    4  A    between atoms: C_3  and  C_4
REMARK    5  A    between atoms: N_10  and  C_11
REMARK    6  A    between atoms: N_10  and  C_12
REMARK    7  A    between atoms: C_12  and  C_13
REMARK    8  A    between atoms: C_16  and  C_17
REMARK    9  A    between atoms: C_17  and  N_18
REMARK   10  A    between atoms: C_19  and  C_21
REMARK                            x       y       z     vdW  Elec       q    Type
REMARK                         _______ _______ _______ _____ _____    ______ ____
ROOT
ATOM      1  C   UNL     1      51.336   4.434  17.689  0.00  0.00    +0.000 A 
ATOM      2  C   UNL     1      50.891   3.112  17.719  0.00  0.00    +0.000 A 
ATOM      3  C   UNL     1      49.605   2.803  17.301  0.00  0.00    +0.000 A 
ATOM      4  C   UNL     1      48.733   3.830  16.964  0.00  0.00    +0.000 A 
ATOM      5  C   UNL     1      49.241   5.121  16.951  0.00  0.00    +0.000 A 
ATOM      6  N   UNL     1      50.512   5.440  17.293  0.00  0.00    +0.000 NA
ENDROOT
BRANCH   1   7
ATOM      7  C   UNL     1      52.702   4.835  18.244  0.00  0.00    +0.000 C 
BRANCH   7   8
ATOM      8  N   UNL     1      52.789   5.979  19.200  0.00  0.00    +0.000 NA
ATOM      9  C   UNL     1      53.806   6.949  18.788  0.00  0.00    +0.000 C 
BRANCH   8  11
ATOM     10  C   UNL     1      53.264   3.985  20.699  0.00  0.00    +0.000 C 
ATOM     11  C   UNL     1      53.028   5.507  20.602  0.00  0.00    +0.000 C 
BRANCH  11  12
ATOM     12  C   UNL     1      51.907   5.887  21.622  0.00  0.00    +0.000 C 
BRANCH  12  13
ATOM     13  C   UNL     1      50.507   5.923  21.057  0.00  0.00    +0.000 A 
ATOM     14  C   UNL     1      49.703   4.786  21.015  0.00  0.00    +0.000 A 
ATOM     15  C   UNL     1      48.388   4.897  20.581  0.00  0.00    +0.000 A 
ATOM     16  C   UNL     1      47.915   6.134  20.167  0.00  0.00    +0.000 A 
ATOM     17  C   UNL     1      48.789   7.206  20.193  0.00  0.00    +0.000 A 
ATOM     18  N   UNL     1      50.065   7.130  20.626  0.00  0.00    +0.000 NA
ENDBRANCH  12  13
ENDBRANCH  11  12
ENDBRANCH   8  11
ENDBRANCH   7   8
ENDBRANCH   1   7
BRANCH   4  19
ATOM     19  C   UNL     1      47.303   3.542  16.642  0.00  0.00    +0.000 C 
BRANCH  19  20
ATOM     20  N   UNL     1      46.778   4.490  15.700  0.00  0.00    +0.000 N 
ATOM     21  C   UNL     1      46.764   4.208  14.361  0.00  0.00    +0.000 C 
ATOM     22  O   UNL     1      47.169   3.137  13.916  0.00  0.00    +0.000 OA
ATOM     23  H   UNL     1      46.680   5.452  16.012  0.00  0.00    +0.000 HD
BRANCH  21  24
ATOM     24  C   UNL     1      46.176   5.231  13.495  0.00  0.00    +0.000 A 
ATOM     25  C   UNL     1      46.902   6.381  13.203  0.00  0.00    +0.000 A 
ATOM     26  S   UNL     1      46.100   7.438  12.137  0.00  0.00    +0.000 S 
ATOM     27  C   UNL     1      44.737   6.421  12.063  0.00  0.00    +0.000 A 
ATOM     28  N   UNL     1      43.649   6.760  11.322  0.00  0.00    +0.000 NA
ATOM     29  C   UNL     1      42.681   5.908  11.371  0.00  0.00    +0.000 A 
ATOM     30  N   UNL     1      42.701   4.743  12.095  0.00  0.00    +0.000 N 
ATOM     31  C   UNL     1      43.784   4.349  12.845  0.00  0.00    +0.000 A 
ATOM     32  O   UNL     1      43.782   3.288  13.457  0.00  0.00    +0.000 OA
ATOM     33  C   UNL     1      44.900   5.280  12.827  0.00  0.00    +0.000 A 
ATOM     34  H   UNL     1      41.914   4.113  12.083  0.00  0.00    +0.000 HD
ENDBRANCH  21  24
ENDBRANCH  19  20
ENDBRANCH   4  19
TORSDOF 8
ENDMDL
MODEL 3
REMARK VINA RESULT:    -7.721      3.827      9.167
REMARK INTER + INTRA:         -11.661
REMARK INTER:                  -9.882
REMARK INTRA:                  -1.779
REMARK UNBOUND:                -0.330
REMARK  Name = 
REMARK  10 active torsions:
REMARK  status: ('A' for Active; 'I' for Inactive)
REMARK    1  A    between atoms: C_1  and  C_2
REMARK    2  A    between atoms: C_2  and  C_3
REMARK    3  A    between atoms: C_2  and  N_10
REMARK    4  A    between atoms: C_3  and  C_4
REMARK    5  A    between atoms: N_10  and  C_11
REMARK    6  A    between atoms: N_10  and  C_12
REMARK    7  A    between atoms: C_12  and  C_13
REMARK    8  A    between atoms: C_16  and  C_17
REMARK    9  A    between atoms: C_17  and  N_18
REMARK   10  A    between atoms: C_19  and  C_21
REMARK                            x       y       z     vdW  Elec       q    Type
REMARK                         _______ _______ _______ _____ _____    ______ ____
ROOT
ATOM      1  C   UNL     1      48.840   8.110  16.467  0.00  0.00    +0.000 A 
ATOM      2  C   UNL     1      49.309   7.031  15.719  0.00  0.00    +0.000 A 
ATOM      3  C   UNL     1      49.048   6.964  14.358  0.00  0.00    +0.000 A 
ATOM      4  C   UNL     1      48.223   7.918  13.775  0.00  0.00    +0.000 A 
ATOM      5  C   UNL     1      47.794   8.967  14.576  0.00  0.00    +0.000 A 
ATOM      6  N   UNL     1      48.090   9.087  15.892  0.00  0.00    +0.000 NA
ENDROOT
BRANCH   1   7
ATOM      7  C   UNL     1      49.007   8.168  17.985  0.00  0.00    +0.000 C 
BRANCH   7   8
ATOM      8  N   UNL     1      47.809   7.969  18.854  0.00  0.00    +0.000 NA
ATOM      9  C   UNL     1      47.764   8.947  19.943  0.00  0.00    +0.000 C 
BRANCH   8  11
ATOM     10  C   UNL     1      47.336   6.501  20.872  0.00  0.00    +0.000 C 
ATOM     11  C   UNL     1      47.740   6.569  19.384  0.00  0.00    +0.000 C 
BRANCH  11  12
ATOM     12  C   UNL     1      49.049   5.734  19.202  0.00  0.00    +0.000 C 
BRANCH  12  13
ATOM     13  C   UNL     1      48.915   4.507  18.333  0.00  0.00    +0.000 A 
ATOM     14  C   UNL     1      47.742   4.226  17.635  0.00  0.00    +0.000 A 
ATOM     15  C   UNL     1      47.708   3.140  16.768  0.00  0.00    +0.000 A 
ATOM     16  C   UNL     1      48.834   2.339  16.644  0.00  0.00    +0.000 A 
ATOM     17  C   UNL     1      49.944   2.656  17.406  0.00  0.00    +0.000 A 
ATOM     18  N   UNL     1      50.011   3.714  18.241  0.00  0.00    +0.000 NA
ENDBRANCH  12  13
ENDBRANCH  11  12
ENDBRANCH   8  11
ENDBRANCH   7   8
ENDBRANCH   1   7
BRANCH   4  19
ATOM     19  C   UNL     1      47.811   7.799  12.345  0.00  0.00    +0.000 C 
BRANCH  19  20
ATOM     20  N   UNL     1      47.082   6.585  12.110  0.00  0.00    +0.000 N 
ATOM     21  C   UNL     1      45.713   6.578  12.130  0.00  0.00    +0.000 C 
ATOM     22  O   UNL     1      45.059   7.601  12.320  0.00  0.00    +0.000 OA
ATOM     23  H   UNL     1      47.590   5.710  12.204  0.00  0.00    +0.000 HD
BRANCH  21  24
ATOM     24  C   UNL     1      45.073   5.294  11.845  0.00  0.00    +0.000 A 
ATOM     25  C   UNL     1      44.389   4.630  12.859  0.00  0.00    +0.000 A 
ATOM     26  S   UNL     1      43.654   3.183  12.347  0.00  0.00    +0.000 S 
ATOM     27  C   UNL     1      44.258   3.367  10.767  0.00  0.00    +0.000 A 
ATOM     28  N   UNL     1      44.008   2.437   9.808  0.00  0.00    +0.000 NA
ATOM     29  C   UNL     1      44.543   2.693   8.662  0.00  0.00    +0.000 A 
ATOM     30  N   UNL     1      45.306   3.798   8.384  0.00  0.00    +0.000 N 
ATOM     31  C   UNL     1      45.572   4.774   9.315  0.00  0.00    +0.000 A 
ATOM     32  O   UNL     1      46.233   5.764   9.027  0.00  0.00    +0.000 OA
ATOM     33  C   UNL     1      44.996   4.528  10.627  0.00  0.00    +0.000 A 
ATOM     34  H   UNL     1      45.688   3.945   7.463  0.00  0.00    +0.000 HD
ENDBRANCH  21  24
ENDBRANCH  19  20
ENDBRANCH   4  19
TORSDOF 8
ENDMDL
MODEL 4
REMARK VINA RESULT:    -7.698      4.505      9.638
REMARK INTER + INTRA:         -11.629
REMARK INTER:                  -9.339
REMARK INTRA:                  -2.290
REMARK UNBOUND:                -0.330
REMARK  Name = 
REMARK  10 active torsions:
REMARK  status: ('A' for Active; 'I' for Inactive)
REMARK    1  A    between atoms: C_1  and  C_2
REMARK    2  A    between atoms: C_2  and  C_3
REMARK    3  A    between atoms: C_2  and  N_10
REMARK    4  A    between atoms: C_3  and  C_4
REMARK    5  A    between atoms: N_10  and  C_11
REMARK    6  A    between atoms: N_10  and  C_12
REMARK    7  A    between atoms: C_12  and  C_13
REMARK    8  A    between atoms: C_16  and  C_17
REMARK    9  A    between atoms: C_17  and  N_18
REMARK   10  A    between atoms: C_19  and  C_21
REMARK                            x       y       z     vdW  Elec       q    Type
REMARK                         _______ _______ _______ _____ _____    ______ ____
ROOT
ATOM      1  C   UNL     1      48.164   5.442  20.428  0.00  0.00    +0.000 A 
ATOM      2  C   UNL     1      48.862   4.300  20.036  0.00  0.00    +0.000 A 
ATOM      3  C   UNL     1      48.631   3.739  18.789  0.00  0.00    +0.000 A 
ATOM      4  C   UNL     1      47.622   4.255  17.986  0.00  0.00    +0.000 A 
ATOM      5  C   UNL     1      46.968   5.394  18.435  0.00  0.00    +0.000 A 
ATOM      6  N   UNL     1      47.221   5.997  19.621  0.00  0.00    +0.000 NA
ENDROOT
BRANCH   1   7
ATOM      7  C   UNL     1      48.303   6.026  21.833  0.00  0.00    +0.000 C 
BRANCH   7   8
ATOM      8  N   UNL     1      49.078   7.289  22.020  0.00  0.00    +0.000 NA
ATOM      9  C   UNL     1      48.206   8.465  21.993  0.00  0.00    +0.000 C 
BRANCH   8  11
ATOM     10  C   UNL     1      51.549   7.741  21.646  0.00  0.00    +0.000 C 
ATOM     11  C   UNL     1      50.180   7.412  21.012  0.00  0.00    +0.000 C 
BRANCH  11  12
ATOM     12  C   UNL     1      49.915   8.448  19.873  0.00  0.00    +0.000 C 
BRANCH  12  13
ATOM     13  C   UNL     1      49.891   7.878  18.475  0.00  0.00    +0.000 A 
ATOM     14  C   UNL     1      50.730   6.833  18.094  0.00  0.00    +0.000 A 
ATOM     15  C   UNL     1      50.594   6.277  16.828  0.00  0.00    +0.000 A 
ATOM     16  C   UNL     1      49.647   6.798  15.959  0.00  0.00    +0.000 A 
ATOM     17  C   UNL     1      48.884   7.867  16.394  0.00  0.00    +0.000 A 
ATOM     18  N   UNL     1      48.983   8.415  17.624  0.00  0.00    +0.000 NA
ENDBRANCH  12  13
ENDBRANCH  11  12
ENDBRANCH   8  11
ENDBRANCH   7   8
ENDBRANCH   1   7
BRANCH   4  19
ATOM     19  C   UNL     1      47.256   3.592  16.699  0.00  0.00    +0.000 C 
BRANCH  19  20
ATOM     20  N   UNL     1      46.789   4.545  15.733  0.00  0.00    +0.000 N 
ATOM     21  C   UNL     1      46.836   4.263  14.395  0.00  0.00    +0.000 C 
ATOM     22  O   UNL     1      47.248   3.186  13.970  0.00  0.00    +0.000 OA
ATOM     23  H   UNL     1      46.689   5.509  16.040  0.00  0.00    +0.000 HD
BRANCH  21  24
ATOM     24  C   UNL     1      46.304   5.293  13.502  0.00  0.00    +0.000 A 
ATOM     25  C   UNL     1      47.093   6.392  13.177  0.00  0.00    +0.000 A 
ATOM     26  S   UNL     1      46.348   7.462  12.084  0.00  0.00    +0.000 S 
ATOM     27  C   UNL     1      44.931   6.522  12.038  0.00  0.00    +0.000 A 
ATOM     28  N   UNL     1      43.862   6.901  11.288  0.00  0.00    +0.000 NA
ATOM     29  C   UNL     1      42.848   6.105  11.362  0.00  0.00    +0.000 A 
ATOM     30  N   UNL     1      42.805   4.962  12.116  0.00  0.00    +0.000 N 
ATOM     31  C   UNL     1      43.866   4.528  12.877  0.00  0.00    +0.000 A 
ATOM     32  O   UNL     1      43.806   3.486  13.517  0.00  0.00    +0.000 OA
ATOM     33  C   UNL     1      45.032   5.395  12.833  0.00  0.00    +0.000 A 
ATOM     34  H   UNL     1      41.984   4.377  12.123  0.00  0.00    +0.000 HD
ENDBRANCH  21  24
ENDBRANCH  19  20
ENDBRANCH   4  19
TORSDOF 8
ENDMDL
MODEL 5
REMARK VINA RESULT:    -7.485      3.377      5.285
REMARK INTER + INTRA:         -11.315
REMARK INTER:                 -10.832
REMARK INTRA:                  -0.483
REMARK UNBOUND:                -0.330
REMARK  Name = 
REMARK  10 active torsions:
REMARK  status: ('A' for Active; 'I' for Inactive)
REMARK    1  A    between atoms: C_1  and  C_2
REMARK    2  A    between atoms: C_2  and  C_3
REMARK    3  A    between atoms: C_2  and  N_10
REMARK    4  A    between atoms: C_3  and  C_4
REMARK    5  A    between atoms: N_10  and  C_11
REMARK    6  A    between atoms: N_10  and  C_12
REMARK    7  A    between atoms: C_12  and  C_13
REMARK    8  A    between atoms: C_16  and  C_17
REMARK    9  A    between atoms: C_17  and  N_18
REMARK   10  A    between atoms: C_19  and  C_21
REMARK                            x       y       z     vdW  Elec       q    Type
REMARK                         _______ _______ _______ _____ _____    ______ ____
ROOT
ATOM      1  C   UNL     1      46.304   4.772  13.648  0.00  0.00    +0.000 A 
ATOM      2  C   UNL     1      47.000   5.978  13.558  0.00  0.00    +0.000 A 
ATOM      3  C   UNL     1      47.921   6.322  14.537  0.00  0.00    +0.000 A 
ATOM      4  C   UNL     1      48.058   5.512  15.658  0.00  0.00    +0.000 A 
ATOM      5  C   UNL     1      47.339   4.326  15.681  0.00  0.00    +0.000 A 
ATOM      6  N   UNL     1      46.482   3.938  14.707  0.00  0.00    +0.000 NA
ENDROOT
BRANCH   1   7
ATOM      7  C   UNL     1      45.202   4.405  12.655  0.00  0.00    +0.000 C 
BRANCH   7   8
ATOM      8  N   UNL     1      45.499   4.448  11.192  0.00  0.00    +0.000 NA
ATOM      9  C   UNL     1      45.828   5.804  10.749  0.00  0.00    +0.000 C 
BRANCH   8  11
ATOM     10  C   UNL     1      43.036   3.833  11.152  0.00  0.00    +0.000 C 
ATOM     11  C   UNL     1      44.374   3.874  10.385  0.00  0.00    +0.000 C 
BRANCH  11  12
ATOM     12  C   UNL     1      44.643   2.447   9.808  0.00  0.00    +0.000 C 
BRANCH  12  13
ATOM     13  C   UNL     1      45.538   2.401   8.593  0.00  0.00    +0.000 A 
ATOM     14  C   UNL     1      45.717   3.512   7.772  0.00  0.00    +0.000 A 
ATOM     15  C   UNL     1      46.632   3.447   6.727  0.00  0.00    +0.000 A 
ATOM     16  C   UNL     1      47.321   2.264   6.505  0.00  0.00    +0.000 A 
ATOM     17  C   UNL     1      47.052   1.190   7.335  0.00  0.00    +0.000 A 
ATOM     18  N   UNL     1      46.183   1.231   8.367  0.00  0.00    +0.000 NA
ENDBRANCH  12  13
ENDBRANCH  11  12
ENDBRANCH   8  11
ENDBRANCH   7   8
ENDBRANCH   1   7
BRANCH   4  19
ATOM     19  C   UNL     1      48.938   5.923  16.792  0.00  0.00    +0.000 C 
BRANCH  19  20
ATOM     20  N   UNL     1      48.332   6.963  17.574  0.00  0.00    +0.000 N 
ATOM     21  C   UNL     1      48.690   7.153  18.881  0.00  0.00    +0.000 C 
ATOM     22  O   UNL     1      49.553   6.469  19.426  0.00  0.00    +0.000 OA
ATOM     23  H   UNL     1      47.462   7.359  17.230  0.00  0.00    +0.000 HD
BRANCH  21  24
ATOM     24  C   UNL     1      48.034   8.262  19.574  0.00  0.00    +0.000 A 
ATOM     25  C   UNL     1      47.623   8.100  20.893  0.00  0.00    +0.000 A 
ATOM     26  S   UNL     1      46.933   9.501  21.567  0.00  0.00    +0.000 S 
ATOM     27  C   UNL     1      47.116  10.362  20.111  0.00  0.00    +0.000 A 
ATOM     28  N   UNL     1      46.694  11.649  20.000  0.00  0.00    +0.000 NA
ATOM     29  C   UNL     1      46.877  12.174  18.835  0.00  0.00    +0.000 A 
ATOM     30  N   UNL     1      47.446  11.528  17.767  0.00  0.00    +0.000 N 
ATOM     31  C   UNL     1      47.903  10.233  17.836  0.00  0.00    +0.000 A 
ATOM     32  O   UNL     1      48.434   9.694  16.872  0.00  0.00    +0.000 OA
ATOM     33  C   UNL     1      47.714   9.594  19.128  0.00  0.00    +0.000 A 
ATOM     34  H   UNL     1      47.569  11.998  16.884  0.00  0.00    +0.000 HD
ENDBRANCH  21  24
ENDBRANCH  19  20
ENDBRANCH   4  19
TORSDOF 8
ENDMDL
MODEL 6
REMARK VINA RESULT:    -7.461      3.891      9.378
REMARK INTER + INTRA:         -11.280
REMARK INTER:                  -9.805
REMARK INTRA:                  -1.475
REMARK UNBOUND:                -0.330
REMARK  Name = 
REMARK  10 active torsions:
REMARK  status: ('A' for Active; 'I' for Inactive)
REMARK    1  A    between atoms: C_1  and  C_2
REMARK    2  A    between atoms: C_2  and  C_3
REMARK    3  A    between atoms: C_2  and  N_10
REMARK    4  A    between atoms: C_3  and  C_4
REMARK    5  A    between atoms: N_10  and  C_11
REMARK    6  A    between atoms: N_10  and  C_12
REMARK    7  A    between atoms: C_12  and  C_13
REMARK    8  A    between atoms: C_16  and  C_17
REMARK    9  A    between atoms: C_17  and  N_18
REMARK   10  A    between atoms: C_19  and  C_21
REMARK                            x       y       z     vdW  Elec       q    Type
REMARK                         _______ _______ _______ _____ _____    ______ ____
ROOT
ATOM      1  C   UNL     1      50.363   7.695  14.725  0.00  0.00    +0.000 A 
ATOM      2  C   UNL     1      50.436   8.692  13.752  0.00  0.00    +0.000 A 
ATOM      3  C   UNL     1      49.424   8.821  12.812  0.00  0.00    +0.000 A 
ATOM      4  C   UNL     1      48.402   7.882  12.779  0.00  0.00    +0.000 A 
ATOM      5  C   UNL     1      48.386   6.919  13.778  0.00  0.00    +0.000 A 
ATOM      6  N   UNL     1      49.329   6.812  14.744  0.00  0.00    +0.000 NA
ENDROOT
BRANCH   1   7
ATOM      7  C   UNL     1      51.506   7.445  15.707  0.00  0.00    +0.000 C 
BRANCH   7   8
ATOM      8  N   UNL     1      51.374   7.933  17.113  0.00  0.00    +0.000 NA
ATOM      9  C   UNL     1      52.625   8.517  17.600  0.00  0.00    +0.000 C 
BRANCH   8  11
ATOM     10  C   UNL     1      51.490   6.941  19.447  0.00  0.00    +0.000 C 
ATOM     11  C   UNL     1      50.892   6.848  18.028  0.00  0.00    +0.000 C 
BRANCH  11  12
ATOM     12  C   UNL     1      51.123   5.396  17.502  0.00  0.00    +0.000 C 
BRANCH  12  13
ATOM     13  C   UNL     1      49.894   4.519  17.467  0.00  0.00    +0.000 A 
ATOM     14  C   UNL     1      48.626   5.021  17.758  0.00  0.00    +0.000 A 
ATOM     15  C   UNL     1      47.517   4.197  17.610  0.00  0.00    +0.000 A 
ATOM     16  C   UNL     1      47.701   2.882  17.209  0.00  0.00    +0.000 A 
ATOM     17  C   UNL     1      48.994   2.445  16.985  0.00  0.00    +0.000 A 
ATOM     18  N   UNL     1      50.088   3.228  17.104  0.00  0.00    +0.000 NA
ENDBRANCH  12  13
ENDBRANCH  11  12
ENDBRANCH   8  11
ENDBRANCH   7   8
ENDBRANCH   1   7
BRANCH   4  19
ATOM     19  C   UNL     1      47.373   7.911  11.697  0.00  0.00    +0.000 C 
BRANCH  19  20
ATOM     20  N   UNL     1      46.735   6.634  11.546  0.00  0.00    +0.000 N 
ATOM     21  C   UNL     1      45.371   6.532  11.536  0.00  0.00    +0.000 C 
ATOM     22  O   UNL     1      44.643   7.518  11.627  0.00  0.00    +0.000 OA
ATOM     23  H   UNL     1      47.299   5.808  11.723  0.00  0.00    +0.000 HD
BRANCH  21  24
ATOM     24  C   UNL     1      44.828   5.187  11.343  0.00  0.00    +0.000 A 
ATOM     25  C   UNL     1      44.093   4.592  12.364  0.00  0.00    +0.000 A 
ATOM     26  S   UNL     1      43.485   3.056  11.957  0.00  0.00    +0.000 S 
ATOM     27  C   UNL     1      44.217   3.109  10.421  0.00  0.00    +0.000 A 
ATOM     28  N   UNL     1      44.104   2.069   9.554  0.00  0.00    +0.000 NA
ATOM     29  C   UNL     1      44.724   2.235   8.435  0.00  0.00    +0.000 A 
ATOM     30  N   UNL     1      45.449   3.351   8.101  0.00  0.00    +0.000 N 
ATOM     31  C   UNL     1      45.578   4.435   8.937  0.00  0.00    +0.000 A 
ATOM     32  O   UNL     1      46.208   5.429   8.597  0.00  0.00    +0.000 OA
ATOM     33  C   UNL     1      44.902   4.294  10.215  0.00  0.00    +0.000 A 
ATOM     34  H   UNL     1      45.903   3.423   7.204  0.00  0.00    +0.000 HD
ENDBRANCH  21  24
ENDBRANCH  19  20
ENDBRANCH   4  19
TORSDOF 8
ENDMDL
MODEL 7
REMARK VINA RESULT:    -7.201      4.048      9.169
REMARK INTER + INTRA:         -10.898
REMARK INTER:                  -9.608
REMARK INTRA:                  -1.290
REMARK UNBOUND:                -0.330
REMARK  Name = 
REMARK  10 active torsions:
REMARK  status: ('A' for Active; 'I' for Inactive)
REMARK    1  A    between atoms: C_1  and  C_2
REMARK    2  A    between atoms: C_2  and  C_3
REMARK    3  A    between atoms: C_2  and  N_10
REMARK    4  A    between atoms: C_3  and  C_4
REMARK    5  A    between atoms: N_10  and  C_11
REMARK    6  A    between atoms: N_10  and  C_12
REMARK    7  A    between atoms: C_12  and  C_13
REMARK    8  A    between atoms: C_16  and  C_17
REMARK    9  A    between atoms: C_17  and  N_18
REMARK   10  A    between atoms: C_19  and  C_21
REMARK                            x       y       z     vdW  Elec       q    Type
REMARK                         _______ _______ _______ _____ _____    ______ ____
ROOT
ATOM      1  C   UNL     1      50.359   6.994  15.684  0.00  0.00    +0.000 A 
ATOM      2  C   UNL     1      50.685   8.142  14.962  0.00  0.00    +0.000 A 
ATOM      3  C   UNL     1      49.862   8.569  13.930  0.00  0.00    +0.000 A 
ATOM      4  C   UNL     1      48.781   7.783  13.551  0.00  0.00    +0.000 A 
ATOM      5  C   UNL     1      48.512   6.656  14.314  0.00  0.00    +0.000 A 
ATOM      6  N   UNL     1      49.264   6.254  15.366  0.00  0.00    +0.000 NA
ENDROOT
BRANCH   1   7
ATOM      7  C   UNL     1      51.293   6.425  16.752  0.00  0.00    +0.000 C 
BRANCH   7   8
ATOM      8  N   UNL     1      51.225   6.972  18.140  0.00  0.00    +0.000 NA
ATOM      9  C   UNL     1      52.151   6.279  19.038  0.00  0.00    +0.000 C 
BRANCH   8  11
ATOM     10  C   UNL     1      49.538   8.070  19.688  0.00  0.00    +0.000 C 
ATOM     11  C   UNL     1      49.826   6.940  18.677  0.00  0.00    +0.000 C 
BRANCH  11  12
ATOM     12  C   UNL     1      49.408   5.586  19.334  0.00  0.00    +0.000 C 
BRANCH  12  13
ATOM     13  C   UNL     1      48.941   4.520  18.373  0.00  0.00    +0.000 A 
ATOM     14  C   UNL     1      49.795   3.518  17.917  0.00  0.00    +0.000 A 
ATOM     15  C   UNL     1      49.287   2.502  17.116  0.00  0.00    +0.000 A 
ATOM     16  C   UNL     1      47.946   2.527  16.760  0.00  0.00    +0.000 A 
ATOM     17  C   UNL     1      47.174   3.581  17.214  0.00  0.00    +0.000 A 
ATOM     18  N   UNL     1      47.636   4.571  18.008  0.00  0.00    +0.000 NA
ENDBRANCH  12  13
ENDBRANCH  11  12
ENDBRANCH   8  11
ENDBRANCH   7   8
ENDBRANCH   1   7
BRANCH   4  19
ATOM     19  C   UNL     1      47.958   8.142  12.358  0.00  0.00    +0.000 C 
BRANCH  19  20
ATOM     20  N   UNL     1      47.336   6.983  11.783  0.00  0.00    +0.000 N 
ATOM     21  C   UNL     1      46.015   7.003  11.428  0.00  0.00    +0.000 C 
ATOM     22  O   UNL     1      45.320   8.008  11.560  0.00  0.00    +0.000 OA
ATOM     23  H   UNL     1      47.811   6.092  11.901  0.00  0.00    +0.000 HD
BRANCH  21  24
ATOM     24  C   UNL     1      45.493   5.778  10.821  0.00  0.00    +0.000 A 
ATOM     25  C   UNL     1      45.722   5.531   9.470  0.00  0.00    +0.000 A 
ATOM     26  S   UNL     1      45.101   4.040   8.938  0.00  0.00    +0.000 S 
ATOM     27  C   UNL     1      44.465   3.689  10.477  0.00  0.00    +0.000 A 
ATOM     28  N   UNL     1      43.773   2.541  10.705  0.00  0.00    +0.000 NA
ATOM     29  C   UNL     1      43.332   2.413  11.911  0.00  0.00    +0.000 A 
ATOM     30  N   UNL     1      43.520   3.329  12.914  0.00  0.00    +0.000 N 
ATOM     31  C   UNL     1      44.227   4.496  12.737  0.00  0.00    +0.000 A 
ATOM     32  O   UNL     1      44.402   5.280  13.661  0.00  0.00    +0.000 OA
ATOM     33  C   UNL     1      44.740   4.690  11.391  0.00  0.00    +0.000 A 
ATOM     34  H   UNL     1      43.156   3.165  13.840  0.00  0.00    +0.000 HD
ENDBRANCH  21  24
ENDBRANCH  19  20
ENDBRANCH   4  19
TORSDOF 8
ENDMDL
MODEL 8
REMARK VINA RESULT:    -7.132      4.314      8.900
REMARK INTER + INTRA:         -10.797
REMARK INTER:                  -8.940
REMARK INTRA:                  -1.857
REMARK UNBOUND:                -0.330
REMARK  Name = 
REMARK  10 active torsions:
REMARK  status: ('A' for Active; 'I' for Inactive)
REMARK    1  A    between atoms: C_1  and  C_2
REMARK    2  A    between atoms: C_2  and  C_3
REMARK    3  A    between atoms: C_2  and  N_10
REMARK    4  A    between atoms: C_3  and  C_4
REMARK    5  A    between atoms: N_10  and  C_11
REMARK    6  A    between atoms: N_10  and  C_12
REMARK    7  A    between atoms: C_12  and  C_13
REMARK    8  A    between atoms: C_16  and  C_17
REMARK    9  A    between atoms: C_17  and  N_18
REMARK   10  A    between atoms: C_19  and  C_21
REMARK                            x       y       z     vdW  Elec       q    Type
REMARK                         _______ _______ _______ _____ _____    ______ ____
ROOT
ATOM      1  C   UNL     1      49.721   7.619  17.606  0.00  0.00    +0.000 A 
ATOM      2  C   UNL     1      49.225   8.922  17.564  0.00  0.00    +0.000 A 
ATOM      3  C   UNL     1      48.551   9.373  16.439  0.00  0.00    +0.000 A 
ATOM      4  C   UNL     1      48.477   8.557  15.317  0.00  0.00    +0.000 A 
ATOM      5  C   UNL     1      48.988   7.271  15.427  0.00  0.00    +0.000 A 
ATOM      6  N   UNL     1      49.593   6.788  16.538  0.00  0.00    +0.000 NA
ENDROOT
BRANCH   1   7
ATOM      7  C   UNL     1      50.565   7.118  18.777  0.00  0.00    +0.000 C 
BRANCH   7   8
ATOM      8  N   UNL     1      49.923   6.949  20.114  0.00  0.00    +0.000 NA
ATOM      9  C   UNL     1      50.754   6.147  21.014  0.00  0.00    +0.000 C 
BRANCH   8  11
ATOM     10  C   UNL     1      47.567   6.903  21.062  0.00  0.00    +0.000 C 
ATOM     11  C   UNL     1      48.545   6.371  19.993  0.00  0.00    +0.000 C 
BRANCH  11  12
ATOM     12  C   UNL     1      48.485   4.810  20.019  0.00  0.00    +0.000 C 
BRANCH  12  13
ATOM     13  C   UNL     1      48.392   4.146  18.667  0.00  0.00    +0.000 A 
ATOM     14  C   UNL     1      49.347   3.227  18.233  0.00  0.00    +0.000 A 
ATOM     15  C   UNL     1      49.158   2.568  17.025  0.00  0.00    +0.000 A 
ATOM     16  C   UNL     1      48.040   2.865  16.260  0.00  0.00    +0.000 A 
ATOM     17  C   UNL     1      47.162   3.823  16.736  0.00  0.00    +0.000 A 
ATOM     18  N   UNL     1      47.312   4.465  17.914  0.00  0.00    +0.000 NA
ENDBRANCH  12  13
ENDBRANCH  11  12
ENDBRANCH   8  11
ENDBRANCH   7   8
ENDBRANCH   1   7
BRANCH   4  19
ATOM     19  C   UNL     1      47.880   9.061  14.044  0.00  0.00    +0.000 C 
BRANCH  19  20
ATOM     20  N   UNL     1      46.759   8.262  13.639  0.00  0.00    +0.000 N 
ATOM     21  C   UNL     1      46.813   7.513  12.495  0.00  0.00    +0.000 C 
ATOM     22  O   UNL     1      47.818   7.473  11.789  0.00  0.00    +0.000 OA
ATOM     23  H   UNL     1      45.858   8.476  14.057  0.00  0.00    +0.000 HD
BRANCH  21  24
ATOM     24  C   UNL     1      45.626   6.711  12.195  0.00  0.00    +0.000 A 
ATOM     25  C   UNL     1      44.500   7.328  11.659  0.00  0.00    +0.000 A 
ATOM     26  S   UNL     1      43.233   6.245  11.315  0.00  0.00    +0.000 S 
ATOM     27  C   UNL     1      44.123   4.922  11.909  0.00  0.00    +0.000 A 
ATOM     28  N   UNL     1      43.594   3.671  11.925  0.00  0.00    +0.000 NA
ATOM     29  C   UNL     1      44.371   2.767  12.420  0.00  0.00    +0.000 A 
ATOM     30  N   UNL     1      45.634   3.000  12.900  0.00  0.00    +0.000 N 
ATOM     31  C   UNL     1      46.219   4.244  12.890  0.00  0.00    +0.000 A 
ATOM     32  O   UNL     1      47.361   4.414  13.300  0.00  0.00    +0.000 OA
ATOM     33  C   UNL     1      45.380   5.300  12.348  0.00  0.00    +0.000 A 
ATOM     34  H   UNL     1      46.195   2.246  13.266  0.00  0.00    +0.000 HD
ENDBRANCH  21  24
ENDBRANCH  19  20
ENDBRANCH   4  19
TORSDOF 8
ENDMDL
MODEL 9
REMARK VINA RESULT:    -7.067      5.229      6.318
REMARK INTER + INTRA:         -10.702
REMARK INTER:                  -9.682
REMARK INTRA:                  -1.020
REMARK UNBOUND:                -0.330
REMARK  Name = 
REMARK  10 active torsions:
REMARK  status: ('A' for Active; 'I' for Inactive)
REMARK    1  A    between atoms: C_1  and  C_2
REMARK    2  A    between atoms: C_2  and  C_3
REMARK    3  A    between atoms: C_2  and  N_10
REMARK    4  A    between atoms: C_3  and  C_4
REMARK    5  A    between atoms: N_10  and  C_11
REMARK    6  A    between atoms: N_10  and  C_12
REMARK    7  A    between atoms: C_12  and  C_13
REMARK    8  A    between atoms: C_16  and  C_17
REMARK    9  A    between atoms: C_17  and  N_18
REMARK   10  A    between atoms: C_19  and  C_21
REMARK                            x       y       z     vdW  Elec       q    Type
REMARK                         _______ _______ _______ _____ _____    ______ ____
ROOT
ATOM      1  C   UNL     1      46.117   6.057  12.922  0.00  0.00    +0.000 A 
ATOM      2  C   UNL     1      47.444   5.921  13.330  0.00  0.00    +0.000 A 
ATOM      3  C   UNL     1      48.156   7.031  13.760  0.00  0.00    +0.000 A 
ATOM      4  C   UNL     1      47.574   8.290  13.670  0.00  0.00    +0.000 A 
ATOM      5  C   UNL     1      46.250   8.354  13.260  0.00  0.00    +0.000 A 
ATOM      6  N   UNL     1      45.515   7.276  12.897  0.00  0.00    +0.000 NA
ENDROOT
BRANCH   1   7
ATOM      7  C   UNL     1      45.331   4.885  12.337  0.00  0.00    +0.000 C 
BRANCH   7   8
ATOM      8  N   UNL     1      45.469   4.573  10.883  0.00  0.00    +0.000 NA
ATOM      9  C   UNL     1      45.834   5.762  10.110  0.00  0.00    +0.000 C 
BRANCH   8  11
ATOM     10  C   UNL     1      43.076   3.871  11.363  0.00  0.00    +0.000 C 
ATOM     11  C   UNL     1      44.228   3.934  10.338  0.00  0.00    +0.000 C 
BRANCH  11  12
ATOM     12  C   UNL     1      44.432   2.499   9.754  0.00  0.00    +0.000 C 
BRANCH  12  13
ATOM     13  C   UNL     1      45.349   2.415   8.557  0.00  0.00    +0.000 A 
ATOM     14  C   UNL     1      45.436   3.446   7.624  0.00  0.00    +0.000 A 
ATOM     15  C   UNL     1      46.371   3.362   6.600  0.00  0.00    +0.000 A 
ATOM     16  C   UNL     1      47.175   2.235   6.510  0.00  0.00    +0.000 A 
ATOM     17  C   UNL     1      46.997   1.233   7.446  0.00  0.00    +0.000 A 
ATOM     18  N   UNL     1      46.109   1.296   8.462  0.00  0.00    +0.000 NA
ENDBRANCH  12  13
ENDBRANCH  11  12
ENDBRANCH   8  11
ENDBRANCH   7   8
ENDBRANCH   1   7
BRANCH   4  19
ATOM     19  C   UNL     1      48.360   9.518  13.994  0.00  0.00    +0.000 C 
BRANCH  19  20
ATOM     20  N   UNL     1      49.536   9.616  13.178  0.00  0.00    +0.000 N 
ATOM     21  C   UNL     1      49.507  10.296  11.990  0.00  0.00    +0.000 C 
ATOM     22  O   UNL     1      48.495  10.866  11.590  0.00  0.00    +0.000 OA
ATOM     23  H   UNL     1      50.287   8.956  13.360  0.00  0.00    +0.000 HD
BRANCH  21  24
ATOM     24  C   UNL     1      50.771  10.361  11.255  0.00  0.00    +0.000 A 
ATOM     25  C   UNL     1      51.343  11.601  10.984  0.00  0.00    +0.000 A 
ATOM     26  S   UNL     1      52.836  11.497  10.176  0.00  0.00    +0.000 S 
ATOM     27  C   UNL     1      52.753   9.799  10.118  0.00  0.00    +0.000 A 
ATOM     28  N   UNL     1      53.733   9.069   9.522  0.00  0.00    +0.000 NA
ATOM     29  C   UNL     1      53.533   7.794   9.534  0.00  0.00    +0.000 A 
ATOM     30  N   UNL     1      52.440   7.179  10.089  0.00  0.00    +0.000 N 
ATOM     31  C   UNL     1      51.432   7.873  10.717  0.00  0.00    +0.000 A 
ATOM     32  O   UNL     1      50.483   7.291  11.229  0.00  0.00    +0.000 OA
ATOM     33  C   UNL     1      51.608   9.316  10.725  0.00  0.00    +0.000 A 
ATOM     34  H   UNL     1      52.347   6.175  10.073  0.00  0.00    +0.000 HD
ENDBRANCH  21  24
ENDBRANCH  19  20
ENDBRANCH   4  19
TORSDOF 8
ENDMDL
