MODEL 1
REMARK VINA RESULT:    -8.147      0.000      0.000
REMARK INTER + INTRA:         -15.009
REMARK INTER:                 -13.385
REMARK INTRA:                  -1.624
REMARK UNBOUND:                -1.624
REMARK  Name = 
REMARK  13 active torsions:
REMARK  status: ('A' for Active; 'I' for Inactive)
REMARK    1  A    between atoms: C_1  and  C_2
REMARK    2  A    between atoms: C_2  and  O_3
REMARK    3  A    between atoms: O_3  and  C_4
REMARK    4  A    between atoms: C_6  and  C_7
REMARK    5  A    between atoms: C_7  and  C_8
REMARK    6  A    between atoms: C_8  and  N_9
REMARK    7  A    between atoms: N_9  and  C_10
REMARK    8  A    between atoms: C_13  and  C_14
REMARK    9  A    between atoms: C_20  and  C_21
REMARK   10  A    between atoms: C_25  and  C_26
REMARK   11  A    between atoms: C_26  and  C_27
REMARK   12  A    between atoms: C_27  and  O_28
REMARK   13  A    between atoms: O_28  and  C_29
REMARK                            x       y       z     vdW  Elec       q    Type
REMARK                         _______ _______ _______ _____ _____    ______ ____
ROOT
ATOM      1  C   UNL     1      46.812   4.641  14.004  0.00  0.00    +0.000 A 
ATOM      2  C   UNL     1      45.479   4.452  13.611  0.00  0.00    +0.000 A 
ATOM      3  C   UNL     1      44.881   5.335  12.704  0.00  0.00    +0.000 A 
ATOM      4  C   UNL     1      45.646   6.399  12.217  0.00  0.00    +0.000 A 
ATOM      5  C   UNL     1      46.945   6.669  12.665  0.00  0.00    +0.000 A 
ATOM      6  C   UNL     1      47.532   5.733  13.524  0.00  0.00    +0.000 A 
ENDROOT
BRANCH   5   7
ATOM      7  C   UNL     1      47.572   7.972  12.372  0.00  0.00    +0.000 A 
ATOM      8  C   UNL     1      48.930   8.037  12.001  0.00  0.00    +0.000 A 
ATOM      9  C   UNL     1      49.514   9.223  11.572  0.00  0.00    +0.000 A 
ATOM     10  C   UNL     1      48.737  10.370  11.470  0.00  0.00    +0.000 A 
ATOM     11  C   UNL     1      47.379  10.341  11.817  0.00  0.00    +0.000 A 
ATOM     12  C   UNL     1      46.824   9.154  12.315  0.00  0.00    +0.000 A 
BRANCH  11  13
ATOM     13  C   UNL     1      46.484  11.531  11.573  0.00  0.00    +0.000 C 
BRANCH  13  14
ATOM     14  C   UNL     1      45.123  11.091  11.031  0.00  0.00    +0.000 C 
BRANCH  14  15
ATOM     15  O   UNL     1      44.102  11.351  11.993  0.00  0.00    +0.000 OA
ATOM     16  C   UNL     1      42.816  11.094  11.439  0.00  0.00    +0.000 C 
ENDBRANCH  14  15
ENDBRANCH  13  14
ENDBRANCH  11  13
ENDBRANCH   5   7
BRANCH   1  17
ATOM     17  O   UNL     1      47.497   3.859  14.894  0.00  0.00    +0.000 OA
BRANCH  17  19
ATOM     18  C   UNL     1      47.725   3.085  17.140  0.00  0.00    +0.000 C 
ATOM     19  C   UNL     1      47.478   4.286  16.251  0.00  0.00    +0.000 C 
ENDBRANCH  17  19
ENDBRANCH   1  17
BRANCH   3  20
ATOM     20  C   UNL     1      43.410   5.180  12.345  0.00  0.00    +0.000 C 
BRANCH  20  21
ATOM     21  C   UNL     1      43.187   4.194  11.193  0.00  0.00    +0.000 C 
BRANCH  21  22
ATOM     22  N   UNL     1      43.607   4.682   9.892  0.00  0.00    +0.000 N 
ATOM     23  H   UNL     1      42.870   4.990   9.265  0.00  0.00    +0.000 HD
BRANCH  22  24
ATOM     24  C   UNL     1      44.655   3.999   9.259  0.00  0.00    +0.000 A 
ATOM     25  C   UNL     1      45.593   4.620   8.417  0.00  0.00    +0.000 A 
ATOM     26  C   UNL     1      46.520   3.879   7.680  0.00  0.00    +0.000 A 
ATOM     27  C   UNL     1      46.526   2.488   7.761  0.00  0.00    +0.000 A 
ATOM     28  C   UNL     1      45.605   1.847   8.596  0.00  0.00    +0.000 A 
ATOM     29  C   UNL     1      44.682   2.602   9.336  0.00  0.00    +0.000 A 
BRANCH  27  30
ATOM     30  C   UNL     1      47.476   1.745   6.895  0.00  0.00    +0.000 C 
ATOM     31  N   UNL     1      48.483   2.455   6.309  0.00  0.00    +0.000 N 
ATOM     32  O   UNL     1      47.342   0.546   6.677  0.00  0.00    +0.000 OA
ATOM     33  H   UNL     1      48.549   3.460   6.335  0.00  0.00    +0.000 HD
ATOM     34  H   UNL     1      49.075   1.950   5.661  0.00  0.00    +0.000 HD
ENDBRANCH  27  30
ENDBRANCH  22  24
ENDBRANCH  21  22
ENDBRANCH  20  21
ENDBRANCH   3  20
TORSDOF 11
ENDMDL
MODEL 2
REMARK VINA RESULT:    -7.979      2.086      3.647
REMARK INTER + INTRA:         -14.733
REMARK INTER:                 -13.048
REMARK INTRA:                  -1.685
REMARK UNBOUND:                -1.624
REMARK  Name = 
REMARK  13 active torsions:
REMARK  status: ('A' for Active; 'I' for Inactive)
REMARK    1  A    between atoms: C_1  and  C_2
REMARK    2  A    between atoms: C_2  and  O_3
REMARK    3  A    between atoms: O_3  and  C_4
REMARK    4  A    between atoms: C_6  and  C_7
REMARK    5  A    between atoms: C_7  and  C_8
REMARK    6  A    between atoms: C_8  and  N_9
REMARK    7  A    between atoms: N_9  and  C_10
REMARK    8  A    between atoms: C_13  and  C_14
REMARK    9  A    between atoms: C_20  and  C_21
REMARK   10  A    between atoms: C_25  and  C_26
REMARK   11  A    between atoms: C_26  and  C_27
REMARK   12  A    between atoms: C_27  and  O_28
REMARK   13  A    between atoms: O_28  and  C_29
REMARK                            x       y       z     vdW  Elec       q    Type
REMARK                         _______ _______ _______ _____ _____    ______ ____
ROOT
ATOM      1  C   UNL     1      46.761   4.620  13.919  0.00  0.00    +0.000 A 
ATOM      2  C   UNL     1      45.410   4.612  13.544  0.00  0.00    +0.000 A 
ATOM      3  C   UNL     1      44.945   5.499  12.566  0.00  0.00    +0.000 A 
ATOM      4  C   UNL     1      45.861   6.385  11.990  0.00  0.00    +0.000 A 
ATOM      5  C   UNL     1      47.192   6.484  12.414  0.00  0.00    +0.000 A 
ATOM      6  C   UNL     1      47.637   5.541  13.348  0.00  0.00    +0.000 A 
ENDROOT
BRANCH   5   7
ATOM      7  C   UNL     1      48.011   7.643  12.011  0.00  0.00    +0.000 A 
ATOM      8  C   UNL     1      47.513   8.953  12.173  0.00  0.00    +0.000 A 
ATOM      9  C   UNL     1      48.309  10.069  11.948  0.00  0.00    +0.000 A 
ATOM     10  C   UNL     1      49.641   9.899  11.591  0.00  0.00    +0.000 A 
ATOM     11  C   UNL     1      50.175   8.613  11.434  0.00  0.00    +0.000 A 
ATOM     12  C   UNL     1      49.339   7.498  11.595  0.00  0.00    +0.000 A 
BRANCH  11  13
ATOM     13  C   UNL     1      51.650   8.403  11.195  0.00  0.00    +0.000 C 
BRANCH  13  14
ATOM     14  C   UNL     1      51.889   7.229  10.244  0.00  0.00    +0.000 C 
BRANCH  14  15
ATOM     15  O   UNL     1      53.247   6.797  10.327  0.00  0.00    +0.000 OA
ATOM     16  C   UNL     1      53.592   6.015   9.188  0.00  0.00    +0.000 C 
ENDBRANCH  14  15
ENDBRANCH  13  14
ENDBRANCH  11  13
ENDBRANCH   5   7
BRANCH   1  17
ATOM     17  O   UNL     1      47.327   3.818  14.871  0.00  0.00    +0.000 OA
BRANCH  17  19
ATOM     18  C   UNL     1      47.224   3.410  17.221  0.00  0.00    +0.000 C 
ATOM     19  C   UNL     1      47.561   4.416  16.140  0.00  0.00    +0.000 C 
ENDBRANCH  17  19
ENDBRANCH   1  17
BRANCH   3  20
ATOM     20  C   UNL     1      43.464   5.549  12.222  0.00  0.00    +0.000 C 
BRANCH  20  21
ATOM     21  C   UNL     1      43.155   4.916  10.860  0.00  0.00    +0.000 C 
BRANCH  21  22
ATOM     22  N   UNL     1      43.616   3.548  10.712  0.00  0.00    +0.000 N 
ATOM     23  H   UNL     1      43.866   3.060  11.567  0.00  0.00    +0.000 HD
BRANCH  22  24
ATOM     24  C   UNL     1      44.450   3.266   9.621  0.00  0.00    +0.000 A 
ATOM     25  C   UNL     1      44.893   1.974   9.294  0.00  0.00    +0.000 A 
ATOM     26  C   UNL     1      45.852   1.759   8.299  0.00  0.00    +0.000 A 
ATOM     27  C   UNL     1      46.399   2.838   7.610  0.00  0.00    +0.000 A 
ATOM     28  C   UNL     1      45.970   4.134   7.916  0.00  0.00    +0.000 A 
ATOM     29  C   UNL     1      45.004   4.339   8.912  0.00  0.00    +0.000 A 
BRANCH  27  30
ATOM     30  C   UNL     1      47.472   2.561   6.622  0.00  0.00    +0.000 C 
ATOM     31  N   UNL     1      47.399   3.197   5.417  0.00  0.00    +0.000 N 
ATOM     32  O   UNL     1      48.370   1.761   6.858  0.00  0.00    +0.000 OA
ATOM     33  H   UNL     1      46.608   3.744   5.118  0.00  0.00    +0.000 HD
ATOM     34  H   UNL     1      48.093   2.939   4.726  0.00  0.00    +0.000 HD
ENDBRANCH  27  30
ENDBRANCH  22  24
ENDBRANCH  21  22
ENDBRANCH  20  21
ENDBRANCH   3  20
TORSDOF 11
ENDMDL
MODEL 3
REMARK VINA RESULT:    -7.534      1.586      2.265
REMARK INTER + INTRA:         -14.003
REMARK INTER:                 -12.596
REMARK INTRA:                  -1.406
REMARK UNBOUND:                -1.624
REMARK  Name = 
REMARK  13 active torsions:
REMARK  status: ('A' for Active; 'I' for Inactive)
REMARK    1  A    between atoms: C_1  and  C_2
REMARK    2  A    between atoms: C_2  and  O_3
REMARK    3  A    between atoms: O_3  and  C_4
REMARK    4  A    between atoms: C_6  and  C_7
REMARK    5  A    between atoms: C_7  and  C_8
REMARK    6  A    between atoms: C_8  and  N_9
REMARK    7  A    between atoms: N_9  and  C_10
REMARK    8  A    between atoms: C_13  and  C_14
REMARK    9  A    between atoms: C_20  and  C_21
REMARK   10  A    between atoms: C_25  and  C_26
REMARK   11  A    between atoms: C_26  and  C_27
REMARK   12  A    between atoms: C_27  and  O_28
REMARK   13  A    between atoms: O_28  and  C_29
REMARK                            x       y       z     vdW  Elec       q    Type
REMARK                         _______ _______ _______ _____ _____    ______ ____
ROOT
ATOM      1  C   UNL     1      46.943   5.781  13.590  0.00  0.00    +0.000 A 
ATOM      2  C   UNL     1      45.874   4.873  13.598  0.00  0.00    +0.000 A 
ATOM      3  C   UNL     1      44.679   5.186  12.939  0.00  0.00    +0.000 A 
ATOM      4  C   UNL     1      44.588   6.422  12.290  0.00  0.00    +0.000 A 
ATOM      5  C   UNL     1      45.600   7.388  12.348  0.00  0.00    +0.000 A 
ATOM      6  C   UNL     1      46.803   7.016  12.961  0.00  0.00    +0.000 A 
ENDROOT
BRANCH   5   7
ATOM      7  C   UNL     1      45.322   8.776  11.934  0.00  0.00    +0.000 A 
ATOM      8  C   UNL     1      46.296   9.779  12.116  0.00  0.00    +0.000 A 
ATOM      9  C   UNL     1      46.130  11.059  11.603  0.00  0.00    +0.000 A 
ATOM     10  C   UNL     1      44.995  11.357  10.860  0.00  0.00    +0.000 A 
ATOM     11  C   UNL     1      44.010  10.382  10.647  0.00  0.00    +0.000 A 
ATOM     12  C   UNL     1      44.160   9.116  11.232  0.00  0.00    +0.000 A 
BRANCH  11  13
ATOM     13  C   UNL     1      42.846  10.636   9.722  0.00  0.00    +0.000 C 
BRANCH  13  14
ATOM     14  C   UNL     1      41.517  10.526  10.471  0.00  0.00    +0.000 C 
BRANCH  14  15
ATOM     15  O   UNL     1      41.264  11.724  11.204  0.00  0.00    +0.000 OA
ATOM     16  C   UNL     1      40.382  11.467  12.293  0.00  0.00    +0.000 C 
ENDBRANCH  14  15
ENDBRANCH  13  14
ENDBRANCH  11  13
ENDBRANCH   5   7
BRANCH   1  17
ATOM     17  O   UNL     1      48.149   5.596  14.210  0.00  0.00    +0.000 OA
BRANCH  17  19
ATOM     18  C   UNL     1      48.956   6.625  16.207  0.00  0.00    +0.000 C 
ATOM     19  C   UNL     1      48.786   6.766  14.708  0.00  0.00    +0.000 C 
ENDBRANCH  17  19
ENDBRANCH   1  17
BRANCH   3  20
ATOM     20  C   UNL     1      43.491   4.239  13.021  0.00  0.00    +0.000 C 
BRANCH  20  21
ATOM     21  C   UNL     1      43.317   3.404  11.748  0.00  0.00    +0.000 C 
BRANCH  21  22
ATOM     22  N   UNL     1      43.502   4.142  10.512  0.00  0.00    +0.000 N 
ATOM     23  H   UNL     1      42.657   4.417  10.019  0.00  0.00    +0.000 HD
BRANCH  22  24
ATOM     24  C   UNL     1      44.553   3.742   9.676  0.00  0.00    +0.000 A 
ATOM     25  C   UNL     1      45.302   4.630   8.886  0.00  0.00    +0.000 A 
ATOM     26  C   UNL     1      46.231   4.171   7.948  0.00  0.00    +0.000 A 
ATOM     27  C   UNL     1      46.428   2.804   7.770  0.00  0.00    +0.000 A 
ATOM     28  C   UNL     1      45.698   1.900   8.549  0.00  0.00    +0.000 A 
ATOM     29  C   UNL     1      44.772   2.371   9.491  0.00  0.00    +0.000 A 
BRANCH  27  30
ATOM     30  C   UNL     1      47.366   2.370   6.704  0.00  0.00    +0.000 C 
ATOM     31  N   UNL     1      47.317   3.033   5.512  0.00  0.00    +0.000 N 
ATOM     32  O   UNL     1      48.128   1.425   6.867  0.00  0.00    +0.000 OA
ATOM     33  H   UNL     1      46.611   3.713   5.277  0.00  0.00    +0.000 HD
ATOM     34  H   UNL     1      47.906   2.676   4.771  0.00  0.00    +0.000 HD
ENDBRANCH  27  30
ENDBRANCH  22  24
ENDBRANCH  21  22
ENDBRANCH  20  21
ENDBRANCH   3  20
TORSDOF 11
ENDMDL
MODEL 4
REMARK VINA RESULT:    -7.173      1.726      2.746
REMARK INTER + INTRA:         -13.409
REMARK INTER:                 -11.822
REMARK INTRA:                  -1.587
REMARK UNBOUND:                -1.624
REMARK  Name = 
REMARK  13 active torsions:
REMARK  status: ('A' for Active; 'I' for Inactive)
REMARK    1  A    between atoms: C_1  and  C_2
REMARK    2  A    between atoms: C_2  and  O_3
REMARK    3  A    between atoms: O_3  and  C_4
REMARK    4  A    between atoms: C_6  and  C_7
REMARK    5  A    between atoms: C_7  and  C_8
REMARK    6  A    between atoms: C_8  and  N_9
REMARK    7  A    between atoms: N_9  and  C_10
REMARK    8  A    between atoms: C_13  and  C_14
REMARK    9  A    between atoms: C_20  and  C_21
REMARK   10  A    between atoms: C_25  and  C_26
REMARK   11  A    between atoms: C_26  and  C_27
REMARK   12  A    between atoms: C_27  and  O_28
REMARK   13  A    between atoms: O_28  and  C_29
REMARK                            x       y       z     vdW  Elec       q    Type
REMARK                         _______ _______ _______ _____ _____    ______ ____
ROOT
ATOM      1  C   UNL     1      47.597   5.282  14.587  0.00  0.00    +0.000 A 
ATOM      2  C   UNL     1      46.747   4.293  14.072  0.00  0.00    +0.000 A 
ATOM      3  C   UNL     1      46.019   4.531  12.900  0.00  0.00    +0.000 A 
ATOM      4  C   UNL     1      46.163   5.774  12.275  0.00  0.00    +0.000 A 
ATOM      5  C   UNL     1      46.927   6.814  12.818  0.00  0.00    +0.000 A 
ATOM      6  C   UNL     1      47.688   6.520  13.955  0.00  0.00    +0.000 A 
ENDROOT
BRANCH   5   7
ATOM      7  C   UNL     1      46.779   8.188  12.301  0.00  0.00    +0.000 A 
ATOM      8  C   UNL     1      45.496   8.751  12.144  0.00  0.00    +0.000 A 
ATOM      9  C   UNL     1      45.321  10.087  11.805  0.00  0.00    +0.000 A 
ATOM     10  C   UNL     1      46.434  10.904  11.651  0.00  0.00    +0.000 A 
ATOM     11  C   UNL     1      47.725  10.383  11.812  0.00  0.00    +0.000 A 
ATOM     12  C   UNL     1      47.885   9.017  12.084  0.00  0.00    +0.000 A 
BRANCH  11  13
ATOM     13  C   UNL     1      48.938  11.281  11.797  0.00  0.00    +0.000 C 
BRANCH  13  14
ATOM     14  C   UNL     1      49.968  10.795  10.776  0.00  0.00    +0.000 C 
BRANCH  14  15
ATOM     15  O   UNL     1      51.130  10.305  11.443  0.00  0.00    +0.000 OA
ATOM     16  C   UNL     1      51.667   9.181  10.752  0.00  0.00    +0.000 C 
ENDBRANCH  14  15
ENDBRANCH  13  14
ENDBRANCH  11  13
ENDBRANCH   5   7
BRANCH   1  17
ATOM     17  O   UNL     1      48.342   5.174  15.730  0.00  0.00    +0.000 OA
BRANCH  17  19
ATOM     18  C   UNL     1      47.249   4.643  17.784  0.00  0.00    +0.000 C 
ATOM     19  C   UNL     1      48.013   4.095  16.596  0.00  0.00    +0.000 C 
ENDBRANCH  17  19
ENDBRANCH   1  17
BRANCH   3  20
ATOM     20  C   UNL     1      45.032   3.492  12.390  0.00  0.00    +0.000 C 
BRANCH  20  21
ATOM     21  C   UNL     1      43.969   4.095  11.464  0.00  0.00    +0.000 C 
BRANCH  21  22
ATOM     22  N   UNL     1      43.690   3.311  10.275  0.00  0.00    +0.000 N 
ATOM     23  H   UNL     1      43.119   2.480  10.404  0.00  0.00    +0.000 HD
BRANCH  22  24
ATOM     24  C   UNL     1      44.731   3.158   9.348  0.00  0.00    +0.000 A 
ATOM     25  C   UNL     1      45.303   4.225   8.636  0.00  0.00    +0.000 A 
ATOM     26  C   UNL     1      46.223   4.008   7.606  0.00  0.00    +0.000 A 
ATOM     27  C   UNL     1      46.589   2.711   7.257  0.00  0.00    +0.000 A 
ATOM     28  C   UNL     1      46.037   1.632   7.956  0.00  0.00    +0.000 A 
ATOM     29  C   UNL     1      45.117   1.861   8.991  0.00  0.00    +0.000 A 
BRANCH  27  30
ATOM     30  C   UNL     1      47.507   2.533   6.103  0.00  0.00    +0.000 C 
ATOM     31  N   UNL     1      48.848   2.577   6.351  0.00  0.00    +0.000 N 
ATOM     32  O   UNL     1      47.082   2.394   4.962  0.00  0.00    +0.000 OA
ATOM     33  H   UNL     1      49.246   2.836   7.240  0.00  0.00    +0.000 HD
ATOM     34  H   UNL     1      49.459   2.532   5.546  0.00  0.00    +0.000 HD
ENDBRANCH  27  30
ENDBRANCH  22  24
ENDBRANCH  21  22
ENDBRANCH  20  21
ENDBRANCH   3  20
TORSDOF 11
ENDMDL
MODEL 5
REMARK VINA RESULT:    -7.138      2.452      5.698
REMARK INTER + INTRA:         -13.351
REMARK INTER:                 -12.160
REMARK INTRA:                  -1.191
REMARK UNBOUND:                -1.624
REMARK  Name = 
REMARK  13 active torsions:
REMARK  status: ('A' for Active; 'I' for Inactive)
REMARK    1  A    between atoms: C_1  and  C_2
REMARK    2  A    between atoms: C_2  and  O_3
REMARK    3  A    between atoms: O_3  and  C_4
REMARK    4  A    between atoms: C_6  and  C_7
REMARK    5  A    between atoms: C_7  and  C_8
REMARK    6  A    between atoms: C_8  and  N_9
REMARK    7  A    between atoms: N_9  and  C_10
REMARK    8  A    between atoms: C_13  and  C_14
REMARK    9  A    between atoms: C_20  and  C_21
REMARK   10  A    between atoms: C_25  and  C_26
REMARK   11  A    between atoms: C_26  and  C_27
REMARK   12  A    between atoms: C_27  and  O_28
REMARK   13  A    between atoms: O_28  and  C_29
REMARK                            x       y       z     vdW  Elec       q    Type
REMARK                         _______ _______ _______ _____ _____    ______ ____
ROOT
ATOM      1  C   UNL     1      47.455   6.581  12.694  0.00  0.00    +0.000 A 
ATOM      2  C   UNL     1      46.519   5.786  12.018  0.00  0.00    +0.000 A 
ATOM      3  C   UNL     1      45.874   4.737  12.683  0.00  0.00    +0.000 A 
ATOM      4  C   UNL     1      46.198   4.508  14.024  0.00  0.00    +0.000 A 
ATOM      5  C   UNL     1      47.199   5.220  14.696  0.00  0.00    +0.000 A 
ATOM      6  C   UNL     1      47.778   6.301  14.021  0.00  0.00    +0.000 A 
ENDROOT
BRANCH   5   7
ATOM      7  C   UNL     1      47.721   4.723  15.983  0.00  0.00    +0.000 A 
ATOM      8  C   UNL     1      47.301   3.473  16.484  0.00  0.00    +0.000 A 
ATOM      9  C   UNL     1      47.881   2.906  17.611  0.00  0.00    +0.000 A 
ATOM     10  C   UNL     1      48.928   3.562  18.246  0.00  0.00    +0.000 A 
ATOM     11  C   UNL     1      49.383   4.800  17.770  0.00  0.00    +0.000 A 
ATOM     12  C   UNL     1      48.739   5.392  16.673  0.00  0.00    +0.000 A 
BRANCH  11  13
ATOM     13  C   UNL     1      50.611   5.457  18.349  0.00  0.00    +0.000 C 
BRANCH  13  14
ATOM     14  C   UNL     1      51.464   6.091  17.249  0.00  0.00    +0.000 C 
BRANCH  14  15
ATOM     15  O   UNL     1      52.614   5.286  16.993  0.00  0.00    +0.000 OA
ATOM     16  C   UNL     1      53.763   6.105  16.794  0.00  0.00    +0.000 C 
ENDBRANCH  14  15
ENDBRANCH  13  14
ENDBRANCH  11  13
ENDBRANCH   5   7
BRANCH   1  17
ATOM     17  O   UNL     1      48.161   7.619  12.148  0.00  0.00    +0.000 OA
BRANCH  17  19
ATOM     18  C   UNL     1      50.346   8.169  11.361  0.00  0.00    +0.000 C 
ATOM     19  C   UNL     1      49.518   7.739  12.555  0.00  0.00    +0.000 C 
ENDBRANCH  17  19
ENDBRANCH   1  17
BRANCH   3  20
ATOM     20  C   UNL     1      44.923   3.822  11.925  0.00  0.00    +0.000 C 
BRANCH  20  21
ATOM     21  C   UNL     1      43.734   4.579  11.323  0.00  0.00    +0.000 C 
BRANCH  21  22
ATOM     22  N   UNL     1      43.684   4.568   9.872  0.00  0.00    +0.000 N 
ATOM     23  H   UNL     1      42.768   4.444   9.452  0.00  0.00    +0.000 HD
BRANCH  22  24
ATOM     24  C   UNL     1      44.721   3.906   9.199  0.00  0.00    +0.000 A 
ATOM     25  C   UNL     1      45.651   4.556   8.371  0.00  0.00    +0.000 A 
ATOM     26  C   UNL     1      46.565   3.839   7.593  0.00  0.00    +0.000 A 
ATOM     27  C   UNL     1      46.566   2.447   7.620  0.00  0.00    +0.000 A 
ATOM     28  C   UNL     1      45.653   1.778   8.442  0.00  0.00    +0.000 A 
ATOM     29  C   UNL     1      44.743   2.507   9.222  0.00  0.00    +0.000 A 
BRANCH  27  30
ATOM     30  C   UNL     1      47.502   1.734   6.714  0.00  0.00    +0.000 C 
ATOM     31  N   UNL     1      48.622   2.402   6.312  0.00  0.00    +0.000 N 
ATOM     32  O   UNL     1      47.263   0.603   6.307  0.00  0.00    +0.000 OA
ATOM     33  H   UNL     1      48.789   3.378   6.495  0.00  0.00    +0.000 HD
ATOM     34  H   UNL     1      49.209   1.933   5.634  0.00  0.00    +0.000 HD
ENDBRANCH  27  30
ENDBRANCH  22  24
ENDBRANCH  21  22
ENDBRANCH  20  21
ENDBRANCH   3  20
TORSDOF 11
ENDMDL
MODEL 6
REMARK VINA RESULT:    -7.104      1.715      4.911
REMARK INTER + INTRA:         -13.296
REMARK INTER:                 -12.056
REMARK INTRA:                  -1.239
REMARK UNBOUND:                -1.624
REMARK  Name = 
REMARK  13 active torsions:
REMARK  status: ('A' for Active; 'I' for Inactive)
REMARK    1  A    between atoms: C_1  and  C_2
REMARK    2  A    between atoms: C_2  and  O_3
REMARK    3  A    between atoms: O_3  and  C_4
REMARK    4  A    between atoms: C_6  and  C_7
REMARK    5  A    between atoms: C_7  and  C_8
REMARK    6  A    between atoms: C_8  and  N_9
REMARK    7  A    between atoms: N_9  and  C_10
REMARK    8  A    between atoms: C_13  and  C_14
REMARK    9  A    between atoms: C_20  and  C_21
REMARK   10  A    between atoms: C_25  and  C_26
REMARK   11  A    between atoms: C_26  and  C_27
REMARK   12  A    between atoms: C_27  and  O_28
REMARK   13  A    between atoms: O_28  and  C_29
REMARK                            x       y       z     vdW  Elec       q    Type
REMARK                         _______ _______ _______ _____ _____    ______ ____
ROOT
ATOM      1  C   UNL     1      45.350   7.802  11.834  0.00  0.00    +0.000 A 
ATOM      2  C   UNL     1      44.903   6.495  11.594  0.00  0.00    +0.000 A 
ATOM      3  C   UNL     1      45.542   5.409  12.204  0.00  0.00    +0.000 A 
ATOM      4  C   UNL     1      46.630   5.670  13.043  0.00  0.00    +0.000 A 
ATOM      5  C   UNL     1      47.160   6.954  13.224  0.00  0.00    +0.000 A 
ATOM      6  C   UNL     1      46.459   8.021  12.649  0.00  0.00    +0.000 A 
ENDROOT
BRANCH   5   7
ATOM      7  C   UNL     1      48.487   7.125  13.843  0.00  0.00    +0.000 A 
ATOM      8  C   UNL     1      49.399   8.064  13.317  0.00  0.00    +0.000 A 
ATOM      9  C   UNL     1      50.594   8.361  13.960  0.00  0.00    +0.000 A 
ATOM     10  C   UNL     1      50.889   7.748  15.172  0.00  0.00    +0.000 A 
ATOM     11  C   UNL     1      50.002   6.819  15.733  0.00  0.00    +0.000 A 
ATOM     12  C   UNL     1      48.833   6.479  15.035  0.00  0.00    +0.000 A 
BRANCH  11  13
ATOM     13  C   UNL     1      50.229   6.256  17.114  0.00  0.00    +0.000 C 
BRANCH  13  14
ATOM     14  C   UNL     1      49.162   5.218  17.465  0.00  0.00    +0.000 C 
BRANCH  14  15
ATOM     15  O   UNL     1      49.602   3.914  17.087  0.00  0.00    +0.000 OA
ATOM     16  C   UNL     1      48.488   3.054  16.868  0.00  0.00    +0.000 C 
ENDBRANCH  14  15
ENDBRANCH  13  14
ENDBRANCH  11  13
ENDBRANCH   5   7
BRANCH   1  17
ATOM     17  O   UNL     1      44.820   8.938  11.284  0.00  0.00    +0.000 OA
BRANCH  17  19
ATOM     18  C   UNL     1      45.436  11.243  11.313  0.00  0.00    +0.000 C 
ATOM     19  C   UNL     1      44.835  10.100  12.103  0.00  0.00    +0.000 C 
ENDBRANCH  17  19
ENDBRANCH   1  17
BRANCH   3  20
ATOM     20  C   UNL     1      45.112   3.987  11.875  0.00  0.00    +0.000 C 
BRANCH  20  21
ATOM     21  C   UNL     1      43.673   3.914  11.352  0.00  0.00    +0.000 C 
BRANCH  21  22
ATOM     22  N   UNL     1      43.557   3.912   9.905  0.00  0.00    +0.000 N 
ATOM     23  H   UNL     1      42.653   3.647   9.524  0.00  0.00    +0.000 HD
BRANCH  22  24
ATOM     24  C   UNL     1      44.654   3.434   9.174  0.00  0.00    +0.000 A 
ATOM     25  C   UNL     1      45.409   4.228   8.295  0.00  0.00    +0.000 A 
ATOM     26  C   UNL     1      46.389   3.675   7.466  0.00  0.00    +0.000 A 
ATOM     27  C   UNL     1      46.632   2.304   7.491  0.00  0.00    +0.000 A 
ATOM     28  C   UNL     1      45.897   1.493   8.362  0.00  0.00    +0.000 A 
ATOM     29  C   UNL     1      44.919   2.060   9.193  0.00  0.00    +0.000 A 
BRANCH  27  30
ATOM     30  C   UNL     1      47.625   1.756   6.532  0.00  0.00    +0.000 C 
ATOM     31  N   UNL     1      48.767   2.475   6.328  0.00  0.00    +0.000 N 
ATOM     32  O   UNL     1      47.415   0.720   5.914  0.00  0.00    +0.000 OA
ATOM     33  H   UNL     1      48.921   3.401   6.695  0.00  0.00    +0.000 HD
ATOM     34  H   UNL     1      49.398   2.129   5.615  0.00  0.00    +0.000 HD
ENDBRANCH  27  30
ENDBRANCH  22  24
ENDBRANCH  21  22
ENDBRANCH  20  21
ENDBRANCH   3  20
TORSDOF 11
ENDMDL
MODEL 7
REMARK VINA RESULT:    -7.085      2.734      8.184
REMARK INTER + INTRA:         -13.264
REMARK INTER:                 -11.408
REMARK INTRA:                  -1.856
REMARK UNBOUND:                -1.624
REMARK  Name = 
REMARK  13 active torsions:
REMARK  status: ('A' for Active; 'I' for Inactive)
REMARK    1  A    between atoms: C_1  and  C_2
REMARK    2  A    between atoms: C_2  and  O_3
REMARK    3  A    between atoms: O_3  and  C_4
REMARK    4  A    between atoms: C_6  and  C_7
REMARK    5  A    between atoms: C_7  and  C_8
REMARK    6  A    between atoms: C_8  and  N_9
REMARK    7  A    between atoms: N_9  and  C_10
REMARK    8  A    between atoms: C_13  and  C_14
REMARK    9  A    between atoms: C_20  and  C_21
REMARK   10  A    between atoms: C_25  and  C_26
REMARK   11  A    between atoms: C_26  and  C_27
REMARK   12  A    between atoms: C_27  and  O_28
REMARK   13  A    between atoms: O_28  and  C_29
REMARK                            x       y       z     vdW  Elec       q    Type
REMARK                         _______ _______ _______ _____ _____    ______ ____
ROOT
ATOM      1  C   UNL     1      45.408   9.173  12.153  0.00  0.00    +0.000 A 
ATOM      2  C   UNL     1      46.802   9.296  12.248  0.00  0.00    +0.000 A 
ATOM      3  C   UNL     1      47.626   8.203  11.958  0.00  0.00    +0.000 A 
ATOM      4  C   UNL     1      47.020   7.000  11.584  0.00  0.00    +0.000 A 
ATOM      5  C   UNL     1      45.631   6.819  11.576  0.00  0.00    +0.000 A 
ATOM      6  C   UNL     1      44.839   7.949  11.810  0.00  0.00    +0.000 A 
ENDROOT
BRANCH   5   7
ATOM      7  C   UNL     1      45.064   5.460  11.498  0.00  0.00    +0.000 A 
ATOM      8  C   UNL     1      44.269   4.962  12.551  0.00  0.00    +0.000 A 
ATOM      9  C   UNL     1      43.595   3.751  12.449  0.00  0.00    +0.000 A 
ATOM     10  C   UNL     1      43.672   3.024  11.268  0.00  0.00    +0.000 A 
ATOM     11  C   UNL     1      44.442   3.492  10.194  0.00  0.00    +0.000 A 
ATOM     12  C   UNL     1      45.172   4.681  10.340  0.00  0.00    +0.000 A 
BRANCH  11  13
ATOM     13  C   UNL     1      44.421   2.798   8.855  0.00  0.00    +0.000 C 
BRANCH  13  14
ATOM     14  C   UNL     1      45.526   1.744   8.766  0.00  0.00    +0.000 C 
BRANCH  14  15
ATOM     15  O   UNL     1      46.597   2.222   7.954  0.00  0.00    +0.000 OA
ATOM     16  C   UNL     1      47.219   1.144   7.261  0.00  0.00    +0.000 C 
ENDBRANCH  14  15
ENDBRANCH  13  14
ENDBRANCH  11  13
ENDBRANCH   5   7
BRANCH   1  17
ATOM     17  O   UNL     1      44.501  10.161  12.427  0.00  0.00    +0.000 OA
BRANCH  17  19
ATOM     18  C   UNL     1      44.388  11.991  10.900  0.00  0.00    +0.000 C 
ATOM     19  C   UNL     1      43.773  10.672  11.318  0.00  0.00    +0.000 C 
ENDBRANCH  17  19
ENDBRANCH   1  17
BRANCH   3  20
ATOM     20  C   UNL     1      49.133   8.312  12.145  0.00  0.00    +0.000 C 
BRANCH  20  21
ATOM     21  C   UNL     1      49.666   7.338  13.201  0.00  0.00    +0.000 C 
BRANCH  21  22
ATOM     22  N   UNL     1      49.407   7.734  14.573  0.00  0.00    +0.000 N 
ATOM     23  H   UNL     1      50.108   8.321  15.015  0.00  0.00    +0.000 HD
BRANCH  22  24
ATOM     24  C   UNL     1      48.840   6.773  15.422  0.00  0.00    +0.000 A 
ATOM     25  C   UNL     1      49.182   6.634  16.778  0.00  0.00    +0.000 A 
ATOM     26  C   UNL     1      48.715   5.563  17.544  0.00  0.00    +0.000 A 
ATOM     27  C   UNL     1      47.897   4.594  16.968  0.00  0.00    +0.000 A 
ATOM     28  C   UNL     1      47.538   4.715  15.621  0.00  0.00    +0.000 A 
ATOM     29  C   UNL     1      48.009   5.796  14.861  0.00  0.00    +0.000 A 
BRANCH  27  30
ATOM     30  C   UNL     1      47.496   3.434  17.804  0.00  0.00    +0.000 C 
ATOM     31  N   UNL     1      48.302   3.107  18.855  0.00  0.00    +0.000 N 
ATOM     32  O   UNL     1      46.503   2.767  17.540  0.00  0.00    +0.000 OA
ATOM     33  H   UNL     1      49.202   3.527  19.024  0.00  0.00    +0.000 HD
ATOM     34  H   UNL     1      48.058   2.268  19.368  0.00  0.00    +0.000 HD
ENDBRANCH  27  30
ENDBRANCH  22  24
ENDBRANCH  21  22
ENDBRANCH  20  21
ENDBRANCH   3  20
TORSDOF 11
ENDMDL
MODEL 8
REMARK VINA RESULT:    -6.859      2.452      4.965
REMARK INTER + INTRA:         -12.893
REMARK INTER:                 -11.529
REMARK INTRA:                  -1.364
REMARK UNBOUND:                -1.624
REMARK  Name = 
REMARK  13 active torsions:
REMARK  status: ('A' for Active; 'I' for Inactive)
REMARK    1  A    between atoms: C_1  and  C_2
REMARK    2  A    between atoms: C_2  and  O_3
REMARK    3  A    between atoms: O_3  and  C_4
REMARK    4  A    between atoms: C_6  and  C_7
REMARK    5  A    between atoms: C_7  and  C_8
REMARK    6  A    between atoms: C_8  and  N_9
REMARK    7  A    between atoms: N_9  and  C_10
REMARK    8  A    between atoms: C_13  and  C_14
REMARK    9  A    between atoms: C_20  and  C_21
REMARK   10  A    between atoms: C_25  and  C_26
REMARK   11  A    between atoms: C_26  and  C_27
REMARK   12  A    between atoms: C_27  and  O_28
REMARK   13  A    between atoms: O_28  and  C_29
REMARK                            x       y       z     vdW  Elec       q    Type
REMARK                         _______ _______ _______ _____ _____    ______ ____
ROOT
ATOM      1  C   UNL     1      45.167   8.595  11.880  0.00  0.00    +0.000 A 
ATOM      2  C   UNL     1      44.742   7.261  11.795  0.00  0.00    +0.000 A 
ATOM      3  C   UNL     1      45.645   6.218  12.032  0.00  0.00    +0.000 A 
ATOM      4  C   UNL     1      46.968   6.549  12.343  0.00  0.00    +0.000 A 
ATOM      5  C   UNL     1      47.444   7.866  12.338  0.00  0.00    +0.000 A 
ATOM      6  C   UNL     1      46.501   8.885  12.158  0.00  0.00    +0.000 A 
ENDROOT
BRANCH   5   7
ATOM      7  C   UNL     1      48.896   8.127  12.345  0.00  0.00    +0.000 A 
ATOM      8  C   UNL     1      49.546   8.482  13.545  0.00  0.00    +0.000 A 
ATOM      9  C   UNL     1      50.929   8.587  13.622  0.00  0.00    +0.000 A 
ATOM     10  C   UNL     1      51.701   8.300  12.503  0.00  0.00    +0.000 A 
ATOM     11  C   UNL     1      51.091   7.930  11.297  0.00  0.00    +0.000 A 
ATOM     12  C   UNL     1      49.691   7.898  11.216  0.00  0.00    +0.000 A 
BRANCH  11  13
ATOM     13  C   UNL     1      51.910   7.471  10.116  0.00  0.00    +0.000 C 
BRANCH  13  14
ATOM     14  C   UNL     1      53.179   8.312   9.968  0.00  0.00    +0.000 C 
BRANCH  14  15
ATOM     15  O   UNL     1      54.134   7.625   9.160  0.00  0.00    +0.000 OA
ATOM     16  C   UNL     1      53.998   6.216   9.314  0.00  0.00    +0.000 C 
ENDBRANCH  14  15
ENDBRANCH  13  14
ENDBRANCH  11  13
ENDBRANCH   5   7
BRANCH   1  17
ATOM     17  O   UNL     1      44.385   9.695  11.652  0.00  0.00    +0.000 OA
BRANCH  17  19
ATOM     18  C   UNL     1      44.966  11.478  10.176  0.00  0.00    +0.000 C 
ATOM     19  C   UNL     1      45.061  10.945  11.590  0.00  0.00    +0.000 C 
ENDBRANCH  17  19
ENDBRANCH   1  17
BRANCH   3  20
ATOM     20  C   UNL     1      45.205   4.772  11.856  0.00  0.00    +0.000 C 
BRANCH  20  21
ATOM     21  C   UNL     1      43.785   4.655  11.292  0.00  0.00    +0.000 C 
BRANCH  21  22
ATOM     22  N   UNL     1      43.715   4.590   9.844  0.00  0.00    +0.000 N 
ATOM     23  H   UNL     1      42.794   4.435   9.442  0.00  0.00    +0.000 HD
BRANCH  22  24
ATOM     24  C   UNL     1      44.754   3.922   9.180  0.00  0.00    +0.000 A 
ATOM     25  C   UNL     1      45.646   4.552   8.298  0.00  0.00    +0.000 A 
ATOM     26  C   UNL     1      46.562   3.821   7.536  0.00  0.00    +0.000 A 
ATOM     27  C   UNL     1      46.601   2.432   7.633  0.00  0.00    +0.000 A 
ATOM     28  C   UNL     1      45.726   1.782   8.509  0.00  0.00    +0.000 A 
ATOM     29  C   UNL     1      44.814   2.526   9.273  0.00  0.00    +0.000 A 
BRANCH  27  30
ATOM     30  C   UNL     1      47.535   1.699   6.742  0.00  0.00    +0.000 C 
ATOM     31  N   UNL     1      48.634   2.370   6.289  0.00  0.00    +0.000 N 
ATOM     32  O   UNL     1      47.313   0.546   6.390  0.00  0.00    +0.000 OA
ATOM     33  H   UNL     1      48.784   3.357   6.427  0.00  0.00    +0.000 HD
ATOM     34  H   UNL     1      49.219   1.883   5.622  0.00  0.00    +0.000 HD
ENDBRANCH  27  30
ENDBRANCH  22  24
ENDBRANCH  21  22
ENDBRANCH  20  21
ENDBRANCH   3  20
TORSDOF 11
ENDMDL
MODEL 9
REMARK VINA RESULT:    -6.409      3.739      6.945
REMARK INTER + INTRA:         -12.154
REMARK INTER:                 -10.947
REMARK INTRA:                  -1.207
REMARK UNBOUND:                -1.624
REMARK  Name = 
REMARK  13 active torsions:
REMARK  status: ('A' for Active; 'I' for Inactive)
REMARK    1  A    between atoms: C_1  and  C_2
REMARK    2  A    between atoms: C_2  and  O_3
REMARK    3  A    between atoms: O_3  and  C_4
REMARK    4  A    between atoms: C_6  and  C_7
REMARK    5  A    between atoms: C_7  and  C_8
REMARK    6  A    between atoms: C_8  and  N_9
REMARK    7  A    between atoms: N_9  and  C_10
REMARK    8  A    between atoms: C_13  and  C_14
REMARK    9  A    between atoms: C_20  and  C_21
REMARK   10  A    between atoms: C_25  and  C_26
REMARK   11  A    between atoms: C_26  and  C_27
REMARK   12  A    between atoms: C_27  and  O_28
REMARK   13  A    between atoms: O_28  and  C_29
REMARK                            x       y       z     vdW  Elec       q    Type
REMARK                         _______ _______ _______ _____ _____    ______ ____
ROOT
ATOM      1  C   UNL     1      44.714   4.526  11.200  0.00  0.00    +0.000 A 
ATOM      2  C   UNL     1      45.430   3.779  12.145  0.00  0.00    +0.000 A 
ATOM      3  C   UNL     1      46.136   4.425  13.167  0.00  0.00    +0.000 A 
ATOM      4  C   UNL     1      46.107   5.823  13.206  0.00  0.00    +0.000 A 
ATOM      5  C   UNL     1      45.483   6.598  12.220  0.00  0.00    +0.000 A 
ATOM      6  C   UNL     1      44.737   5.919  11.250  0.00  0.00    +0.000 A 
ENDROOT
BRANCH   5   7
ATOM      7  C   UNL     1      45.763   8.044  12.130  0.00  0.00    +0.000 A 
ATOM      8  C   UNL     1      47.084   8.519  12.267  0.00  0.00    +0.000 A 
ATOM      9  C   UNL     1      47.407   9.851  12.039  0.00  0.00    +0.000 A 
ATOM     10  C   UNL     1      46.416  10.735  11.630  0.00  0.00    +0.000 A 
ATOM     11  C   UNL     1      45.095  10.297  11.471  0.00  0.00    +0.000 A 
ATOM     12  C   UNL     1      44.772   8.966  11.774  0.00  0.00    +0.000 A 
BRANCH  11  13
ATOM     13  C   UNL     1      44.036  11.199  10.887  0.00  0.00    +0.000 C 
BRANCH  13  14
ATOM     14  C   UNL     1      43.239  10.476   9.800  0.00  0.00    +0.000 C 
BRANCH  14  15
ATOM     15  O   UNL     1      41.879  10.908   9.818  0.00  0.00    +0.000 OA
ATOM     16  C   UNL     1      41.137  10.184  10.794  0.00  0.00    +0.000 C 
ENDBRANCH  14  15
ENDBRANCH  13  14
ENDBRANCH  11  13
ENDBRANCH   5   7
BRANCH   1  17
ATOM     17  O   UNL     1      44.004   4.011  10.149  0.00  0.00    +0.000 OA
BRANCH  17  19
ATOM     18  C   UNL     1      44.934   3.466   8.019  0.00  0.00    +0.000 C 
ATOM     19  C   UNL     1      44.634   2.966   9.417  0.00  0.00    +0.000 C 
ENDBRANCH  17  19
ENDBRANCH   1  17
BRANCH   3  20
ATOM     20  C   UNL     1      46.982   3.618  14.140  0.00  0.00    +0.000 C 
BRANCH  20  21
ATOM     21  C   UNL     1      47.215   4.352  15.465  0.00  0.00    +0.000 C 
BRANCH  21  22
ATOM     22  N   UNL     1      47.298   3.487  16.627  0.00  0.00    +0.000 N 
ATOM     23  H   UNL     1      46.582   3.612  17.337  0.00  0.00    +0.000 HD
BRANCH  22  24
ATOM     24  C   UNL     1      48.576   3.220  17.139  0.00  0.00    +0.000 A 
ATOM     25  C   UNL     1      49.302   4.125  17.932  0.00  0.00    +0.000 A 
ATOM     26  C   UNL     1      50.634   3.885  18.284  0.00  0.00    +0.000 A 
ATOM     27  C   UNL     1      51.277   2.732  17.841  0.00  0.00    +0.000 A 
ATOM     28  C   UNL     1      50.573   1.814  17.055  0.00  0.00    +0.000 A 
ATOM     29  C   UNL     1      49.236   2.062  16.711  0.00  0.00    +0.000 A 
BRANCH  27  30
ATOM     30  C   UNL     1      52.715   2.566  18.175  0.00  0.00    +0.000 C 
ATOM     31  N   UNL     1      53.122   2.952  19.418  0.00  0.00    +0.000 N 
ATOM     32  O   UNL     1      53.517   2.137  17.354  0.00  0.00    +0.000 OA
ATOM     33  H   UNL     1      52.536   3.446  20.073  0.00  0.00    +0.000 HD
ATOM     34  H   UNL     1      54.116   2.906  19.604  0.00  0.00    +0.000 HD
ENDBRANCH  27  30
ENDBRANCH  22  24
ENDBRANCH  21  22
ENDBRANCH  20  21
ENDBRANCH   3  20
TORSDOF 11
ENDMDL
