MODEL 1
REMARK VINA RESULT:    -8.122      0.000      0.000
REMARK INTER + INTRA:         -11.353
REMARK INTER:                 -10.496
REMARK INTRA:                  -0.856
REMARK UNBOUND:                -0.856
REMARK  Name = 
REMARK  5 active torsions:
REMARK  status: ('A' for Active; 'I' for Inactive)
REMARK    1  A    between atoms: C_2  and  C_4
REMARK    2  A    between atoms: C_8  and  N_9
REMARK    3  A    between atoms: N_9  and  C_10
REMARK    4  A    between atoms: C_10  and  C_11
REMARK    5  A    between atoms: C_16  and  C_17
REMARK                            x       y       z     vdW  Elec       q    Type
REMARK                         _______ _______ _______ _____ _____    ______ ____
ROOT
ATOM      1  C   UNL     1      44.089   5.077  11.144  0.00  0.00    +0.000 C 
ENDROOT
BRANCH   1   2
ATOM      2  C   UNL     1      45.368   5.461  11.843  0.00  0.00    +0.000 A 
ATOM      3  C   UNL     1      46.199   6.456  11.316  0.00  0.00    +0.000 A 
ATOM      4  C   UNL     1      47.369   6.799  11.982  0.00  0.00    +0.000 A 
ATOM      5  F   UNL     1      48.153   7.761  11.478  0.00  0.00    +0.000 F 
ATOM      6  C   UNL     1      47.738   6.168  13.167  0.00  0.00    +0.000 A 
ATOM      7  C   UNL     1      46.937   5.159  13.723  0.00  0.00    +0.000 A 
ATOM      8  C   UNL     1      45.756   4.813  13.030  0.00  0.00    +0.000 A 
BRANCH   7   9
ATOM      9  C   UNL     1      47.307   4.466  14.975  0.00  0.00    +0.000 A 
ATOM     10  C   UNL     1      47.277   5.087  16.225  0.00  0.00    +0.000 A 
ATOM     11  C   UNL     1      47.659   4.368  17.357  0.00  0.00    +0.000 A 
ATOM     12  C   UNL     1      48.057   3.047  17.220  0.00  0.00    +0.000 A 
ATOM     13  C   UNL     1      48.048   2.494  15.954  0.00  0.00    +0.000 A 
ATOM     14  N   UNL     1      47.681   3.167  14.840  0.00  0.00    +0.000 NA
ENDBRANCH   7   9
ENDBRANCH   1   2
BRANCH   1  15
ATOM     15  N   UNL     1      44.308   5.021   9.707  0.00  0.00    +0.000 N 
ATOM     16  H   UNL     1      44.693   5.885   9.327  0.00  0.00    +0.000 HD
BRANCH  15  21
ATOM     17  C   UNL     1      46.416   2.716   7.665  0.00  0.00    +0.000 A 
ATOM     18  C   UNL     1      45.942   1.515   8.166  0.00  0.00    +0.000 A 
ATOM     19  N   UNL     1      44.992   1.433   9.124  0.00  0.00    +0.000 NA
ATOM     20  C   UNL     1      44.487   2.609   9.574  0.00  0.00    +0.000 A 
ATOM     21  C   UNL     1      44.850   3.881   9.111  0.00  0.00    +0.000 A 
ATOM     22  C   UNL     1      45.863   3.909   8.147  0.00  0.00    +0.000 A 
BRANCH  17  24
ATOM     23  N   UNL     1      47.247   3.409   5.488  0.00  0.00    +0.000 N 
ATOM     24  C   UNL     1      47.471   2.689   6.631  0.00  0.00    +0.000 C 
ATOM     25  O   UNL     1      48.516   2.078   6.798  0.00  0.00    +0.000 OA
ATOM     26  H   UNL     1      48.025   3.470   4.843  0.00  0.00    +0.000 HD
ATOM     27  H   UNL     1      46.540   4.127   5.432  0.00  0.00    +0.000 HD
ENDBRANCH  17  24
ENDBRANCH  15  21
ENDBRANCH   1  15
TORSDOF 5
ENDMDL
MODEL 2
REMARK VINA RESULT:    -8.064      2.407      3.856
REMARK INTER + INTRA:         -11.278
REMARK INTER:                 -10.479
REMARK INTRA:                  -0.799
REMARK UNBOUND:                -0.856
REMARK  Name = 
REMARK  5 active torsions:
REMARK  status: ('A' for Active; 'I' for Inactive)
REMARK    1  A    between atoms: C_2  and  C_4
REMARK    2  A    between atoms: C_8  and  N_9
REMARK    3  A    between atoms: N_9  and  C_10
REMARK    4  A    between atoms: C_10  and  C_11
REMARK    5  A    between atoms: C_16  and  C_17
REMARK                            x       y       z     vdW  Elec       q    Type
REMARK                         _______ _______ _______ _____ _____    ______ ____
ROOT
ATOM      1  C   UNL     1      43.712   4.615  10.718  0.00  0.00    +0.000 C 
ENDROOT
BRANCH   1   2
ATOM      2  C   UNL     1      44.910   4.939  11.575  0.00  0.00    +0.000 A 
ATOM      3  C   UNL     1      45.392   4.015  12.507  0.00  0.00    +0.000 A 
ATOM      4  C   UNL     1      46.502   4.332  13.280  0.00  0.00    +0.000 A 
ATOM      5  F   UNL     1      46.965   3.436  14.163  0.00  0.00    +0.000 F 
ATOM      6  C   UNL     1      47.147   5.558  13.150  0.00  0.00    +0.000 A 
ATOM      7  C   UNL     1      46.689   6.517  12.233  0.00  0.00    +0.000 A 
ATOM      8  C   UNL     1      45.553   6.185  11.462  0.00  0.00    +0.000 A 
BRANCH   7   9
ATOM      9  C   UNL     1      47.348   7.831  12.078  0.00  0.00    +0.000 A 
ATOM     10  C   UNL     1      46.664   9.042  12.193  0.00  0.00    +0.000 A 
ATOM     11  C   UNL     1      47.357  10.240  12.017  0.00  0.00    +0.000 A 
ATOM     12  C   UNL     1      48.713  10.204  11.733  0.00  0.00    +0.000 A 
ATOM     13  C   UNL     1      49.327   8.969  11.647  0.00  0.00    +0.000 A 
ATOM     14  N   UNL     1      48.680   7.792  11.816  0.00  0.00    +0.000 NA
ENDBRANCH   7   9
ENDBRANCH   1   2
BRANCH   1  15
ATOM     15  N   UNL     1      44.089   4.639   9.313  0.00  0.00    +0.000 N 
ATOM     16  H   UNL     1      44.428   5.549   9.005  0.00  0.00    +0.000 HD
BRANCH  15  21
ATOM     17  C   UNL     1      46.452   2.620   7.247  0.00  0.00    +0.000 A 
ATOM     18  C   UNL     1      46.253   1.393   7.859  0.00  0.00    +0.000 A 
ATOM     19  N   UNL     1      45.406   1.208   8.897  0.00  0.00    +0.000 NA
ATOM     20  C   UNL     1      44.717   2.300   9.314  0.00  0.00    +0.000 A 
ATOM     21  C   UNL     1      44.796   3.578   8.745  0.00  0.00    +0.000 A 
ATOM     22  C   UNL     1      45.714   3.722   7.701  0.00  0.00    +0.000 A 
BRANCH  17  24
ATOM     23  N   UNL     1      48.730   2.450   6.418  0.00  0.00    +0.000 N 
ATOM     24  C   UNL     1      47.417   2.712   6.133  0.00  0.00    +0.000 C 
ATOM     25  O   UNL     1      47.059   2.977   4.995  0.00  0.00    +0.000 OA
ATOM     26  H   UNL     1      49.356   2.406   5.624  0.00  0.00    +0.000 HD
ATOM     27  H   UNL     1      49.014   1.971   7.261  0.00  0.00    +0.000 HD
ENDBRANCH  17  24
ENDBRANCH  15  21
ENDBRANCH   1  15
TORSDOF 5
ENDMDL
MODEL 3
REMARK VINA RESULT:    -8.001      2.786      7.201
REMARK INTER + INTRA:         -11.195
REMARK INTER:                 -10.378
REMARK INTRA:                  -0.818
REMARK UNBOUND:                -0.856
REMARK  Name = 
REMARK  5 active torsions:
REMARK  status: ('A' for Active; 'I' for Inactive)
REMARK    1  A    between atoms: C_2  and  C_4
REMARK    2  A    between atoms: C_8  and  N_9
REMARK    3  A    between atoms: N_9  and  C_10
REMARK    4  A    between atoms: C_10  and  C_11
REMARK    5  A    between atoms: C_16  and  C_17
REMARK                            x       y       z     vdW  Elec       q    Type
REMARK                         _______ _______ _______ _____ _____    ______ ____
ROOT
ATOM      1  C   UNL     1      44.174   6.537  10.798  0.00  0.00    +0.000 C 
ENDROOT
BRANCH   1   2
ATOM      2  C   UNL     1      44.217   5.054  10.531  0.00  0.00    +0.000 A 
ATOM      3  C   UNL     1      43.483   4.165  11.323  0.00  0.00    +0.000 A 
ATOM      4  C   UNL     1      43.532   2.802  11.054  0.00  0.00    +0.000 A 
ATOM      5  F   UNL     1      42.817   1.958  11.808  0.00  0.00    +0.000 F 
ATOM      6  C   UNL     1      44.304   2.299  10.010  0.00  0.00    +0.000 A 
ATOM      7  C   UNL     1      45.063   3.157   9.199  0.00  0.00    +0.000 A 
ATOM      8  C   UNL     1      45.011   4.538   9.491  0.00  0.00    +0.000 A 
BRANCH   7   9
ATOM      9  C   UNL     1      45.899   2.651   8.089  0.00  0.00    +0.000 A 
ATOM     10  C   UNL     1      46.221   3.420   6.970  0.00  0.00    +0.000 A 
ATOM     11  C   UNL     1      47.001   2.862   5.958  0.00  0.00    +0.000 A 
ATOM     12  C   UNL     1      47.444   1.554   6.084  0.00  0.00    +0.000 A 
ATOM     13  C   UNL     1      47.098   0.859   7.226  0.00  0.00    +0.000 A 
ATOM     14  N   UNL     1      46.345   1.376   8.225  0.00  0.00    +0.000 NA
ENDBRANCH   7   9
ENDBRANCH   1   2
BRANCH   1  15
ATOM     15  N   UNL     1      44.330   6.788  12.222  0.00  0.00    +0.000 N 
ATOM     16  H   UNL     1      43.514   6.516  12.768  0.00  0.00    +0.000 HD
BRANCH  15  21
ATOM     17  C   UNL     1      46.985   5.141  14.263  0.00  0.00    +0.000 A 
ATOM     18  C   UNL     1      48.040   5.973  13.927  0.00  0.00    +0.000 A 
ATOM     19  N   UNL     1      47.922   7.018  13.078  0.00  0.00    +0.000 NA
ATOM     20  C   UNL     1      46.684   7.243  12.568  0.00  0.00    +0.000 A 
ATOM     21  C   UNL     1      45.534   6.502  12.870  0.00  0.00    +0.000 A 
ATOM     22  C   UNL     1      45.721   5.411  13.724  0.00  0.00    +0.000 A 
BRANCH  17  24
ATOM     23  N   UNL     1      46.892   4.198  16.502  0.00  0.00    +0.000 N 
ATOM     24  C   UNL     1      47.233   4.016  15.188  0.00  0.00    +0.000 C 
ATOM     25  O   UNL     1      47.692   2.953  14.796  0.00  0.00    +0.000 OA
ATOM     26  H   UNL     1      46.963   3.381  17.095  0.00  0.00    +0.000 HD
ATOM     27  H   UNL     1      46.273   4.938  16.801  0.00  0.00    +0.000 HD
ENDBRANCH  17  24
ENDBRANCH  15  21
ENDBRANCH   1  15
TORSDOF 5
ENDMDL
MODEL 4
REMARK VINA RESULT:    -7.613      3.096      7.512
REMARK INTER + INTRA:         -10.695
REMARK INTER:                  -9.884
REMARK INTRA:                  -0.811
REMARK UNBOUND:                -0.856
REMARK  Name = 
REMARK  5 active torsions:
REMARK  status: ('A' for Active; 'I' for Inactive)
REMARK    1  A    between atoms: C_2  and  C_4
REMARK    2  A    between atoms: C_8  and  N_9
REMARK    3  A    between atoms: N_9  and  C_10
REMARK    4  A    between atoms: C_10  and  C_11
REMARK    5  A    between atoms: C_16  and  C_17
REMARK                            x       y       z     vdW  Elec       q    Type
REMARK                         _______ _______ _______ _____ _____    ______ ____
ROOT
ATOM      1  C   UNL     1      46.212   7.384  12.505  0.00  0.00    +0.000 C 
ENDROOT
BRANCH   1   2
ATOM      2  C   UNL     1      45.298   6.442  11.764  0.00  0.00    +0.000 A 
ATOM      3  C   UNL     1      43.931   6.395  12.057  0.00  0.00    +0.000 A 
ATOM      4  C   UNL     1      43.106   5.525  11.355  0.00  0.00    +0.000 A 
ATOM      5  F   UNL     1      41.796   5.495  11.632  0.00  0.00    +0.000 F 
ATOM      6  C   UNL     1      43.613   4.691  10.363  0.00  0.00    +0.000 A 
ATOM      7  C   UNL     1      44.980   4.701  10.045  0.00  0.00    +0.000 A 
ATOM      8  C   UNL     1      45.808   5.582  10.775  0.00  0.00    +0.000 A 
BRANCH   7   9
ATOM      9  C   UNL     1      45.549   3.820   9.003  0.00  0.00    +0.000 A 
ATOM     10  C   UNL     1      45.508   2.427   9.080  0.00  0.00    +0.000 A 
ATOM     11  C   UNL     1      46.083   1.667   8.062  0.00  0.00    +0.000 A 
ATOM     12  C   UNL     1      46.681   2.311   6.990  0.00  0.00    +0.000 A 
ATOM     13  C   UNL     1      46.672   3.692   6.973  0.00  0.00    +0.000 A 
ATOM     14  N   UNL     1      46.120   4.454   7.946  0.00  0.00    +0.000 NA
ENDBRANCH   7   9
ENDBRANCH   1   2
BRANCH   1  15
ATOM     15  N   UNL     1      47.465   6.714  12.816  0.00  0.00    +0.000 N 
ATOM     16  H   UNL     1      48.264   7.111  12.324  0.00  0.00    +0.000 HD
BRANCH  15  21
ATOM     17  C   UNL     1      47.874   4.761  15.970  0.00  0.00    +0.000 A 
ATOM     18  C   UNL     1      48.609   5.691  16.687  0.00  0.00    +0.000 A 
ATOM     19  N   UNL     1      48.972   6.895  16.189  0.00  0.00    +0.000 NA
ATOM     20  C   UNL     1      48.555   7.176  14.929  0.00  0.00    +0.000 A 
ATOM     21  C   UNL     1      47.769   6.339  14.127  0.00  0.00    +0.000 A 
ATOM     22  C   UNL     1      47.454   5.093  14.676  0.00  0.00    +0.000 A 
BRANCH  17  24
ATOM     23  N   UNL     1      48.436   2.441  16.428  0.00  0.00    +0.000 N 
ATOM     24  C   UNL     1      47.549   3.468  16.606  0.00  0.00    +0.000 C 
ATOM     25  O   UNL     1      46.546   3.325  17.292  0.00  0.00    +0.000 OA
ATOM     26  H   UNL     1      48.255   1.601  16.963  0.00  0.00    +0.000 HD
ATOM     27  H   UNL     1      49.382   2.595  16.111  0.00  0.00    +0.000 HD
ENDBRANCH  17  24
ENDBRANCH  15  21
ENDBRANCH   1  15
TORSDOF 5
ENDMDL
MODEL 5
REMARK VINA RESULT:    -7.605      2.535      4.284
REMARK INTER + INTRA:         -10.684
REMARK INTER:                 -10.024
REMARK INTRA:                  -0.660
REMARK UNBOUND:                -0.856
REMARK  Name = 
REMARK  5 active torsions:
REMARK  status: ('A' for Active; 'I' for Inactive)
REMARK    1  A    between atoms: C_2  and  C_4
REMARK    2  A    between atoms: C_8  and  N_9
REMARK    3  A    between atoms: N_9  and  C_10
REMARK    4  A    between atoms: C_10  and  C_11
REMARK    5  A    between atoms: C_16  and  C_17
REMARK                            x       y       z     vdW  Elec       q    Type
REMARK                         _______ _______ _______ _____ _____    ______ ____
ROOT
ATOM      1  C   UNL     1      43.877   2.862  11.607  0.00  0.00    +0.000 C 
ENDROOT
BRANCH   1   2
ATOM      2  C   UNL     1      44.821   3.853  12.239  0.00  0.00    +0.000 A 
ATOM      3  C   UNL     1      45.830   3.424  13.107  0.00  0.00    +0.000 A 
ATOM      4  C   UNL     1      46.694   4.354  13.672  0.00  0.00    +0.000 A 
ATOM      5  F   UNL     1      47.666   3.935  14.493  0.00  0.00    +0.000 F 
ATOM      6  C   UNL     1      46.573   5.713  13.396  0.00  0.00    +0.000 A 
ATOM      7  C   UNL     1      45.567   6.185  12.538  0.00  0.00    +0.000 A 
ATOM      8  C   UNL     1      44.691   5.229  11.979  0.00  0.00    +0.000 A 
BRANCH   7   9
ATOM      9  C   UNL     1      45.410   7.623  12.232  0.00  0.00    +0.000 A 
ATOM     10  C   UNL     1      46.234   8.610  12.776  0.00  0.00    +0.000 A 
ATOM     11  C   UNL     1      46.008   9.947  12.449  0.00  0.00    +0.000 A 
ATOM     12  C   UNL     1      44.971  10.270  11.589  0.00  0.00    +0.000 A 
ATOM     13  C   UNL     1      44.205   9.240  11.078  0.00  0.00    +0.000 A 
ATOM     14  N   UNL     1      44.403   7.935  11.375  0.00  0.00    +0.000 NA
ENDBRANCH   7   9
ENDBRANCH   1   2
BRANCH   1  15
ATOM     15  N   UNL     1      43.657   3.211  10.212  0.00  0.00    +0.000 N 
ATOM     16  H   UNL     1      43.044   4.016  10.093  0.00  0.00    +0.000 HD
BRANCH  15  21
ATOM     17  C   UNL     1      46.333   2.086   7.866  0.00  0.00    +0.000 A 
ATOM     18  C   UNL     1      46.664   3.322   7.334  0.00  0.00    +0.000 A 
ATOM     19  N   UNL     1      46.058   4.474   7.698  0.00  0.00    +0.000 NA
ATOM     20  C   UNL     1      45.098   4.375   8.652  0.00  0.00    +0.000 A 
ATOM     21  C   UNL     1      44.711   3.193   9.296  0.00  0.00    +0.000 A 
ATOM     22  C   UNL     1      45.343   2.026   8.856  0.00  0.00    +0.000 A 
BRANCH  17  24
ATOM     23  N   UNL     1      48.022   1.078   6.437  0.00  0.00    +0.000 N 
ATOM     24  C   UNL     1      47.048   0.888   7.381  0.00  0.00    +0.000 C 
ATOM     25  O   UNL     1      46.807  -0.226   7.825  0.00  0.00    +0.000 OA
ATOM     26  H   UNL     1      48.576   0.265   6.202  0.00  0.00    +0.000 HD
ATOM     27  H   UNL     1      48.427   1.985   6.256  0.00  0.00    +0.000 HD
ENDBRANCH  17  24
ENDBRANCH  15  21
ENDBRANCH   1  15
TORSDOF 5
ENDMDL
MODEL 6
REMARK VINA RESULT:    -7.434      3.516      7.493
REMARK INTER + INTRA:         -10.464
REMARK INTER:                  -9.743
REMARK INTRA:                  -0.721
REMARK UNBOUND:                -0.856
REMARK  Name = 
REMARK  5 active torsions:
REMARK  status: ('A' for Active; 'I' for Inactive)
REMARK    1  A    between atoms: C_2  and  C_4
REMARK    2  A    between atoms: C_8  and  N_9
REMARK    3  A    between atoms: N_9  and  C_10
REMARK    4  A    between atoms: C_10  and  C_11
REMARK    5  A    between atoms: C_16  and  C_17
REMARK                            x       y       z     vdW  Elec       q    Type
REMARK                         _______ _______ _______ _____ _____    ______ ____
ROOT
ATOM      1  C   UNL     1      44.531   6.624  11.025  0.00  0.00    +0.000 C 
ENDROOT
BRANCH   1   2
ATOM      2  C   UNL     1      44.457   5.157  10.687  0.00  0.00    +0.000 A 
ATOM      3  C   UNL     1      43.663   4.289  11.444  0.00  0.00    +0.000 A 
ATOM      4  C   UNL     1      43.604   2.942  11.110  0.00  0.00    +0.000 A 
ATOM      5  F   UNL     1      42.832   2.119  11.832  0.00  0.00    +0.000 F 
ATOM      6  C   UNL     1      44.325   2.432  10.034  0.00  0.00    +0.000 A 
ATOM      7  C   UNL     1      45.141   3.268   9.255  0.00  0.00    +0.000 A 
ATOM      8  C   UNL     1      45.199   4.633   9.613  0.00  0.00    +0.000 A 
BRANCH   7   9
ATOM      9  C   UNL     1      45.924   2.754   8.111  0.00  0.00    +0.000 A 
ATOM     10  C   UNL     1      46.195   3.515   6.973  0.00  0.00    +0.000 A 
ATOM     11  C   UNL     1      46.927   2.949   5.929  0.00  0.00    +0.000 A 
ATOM     12  C   UNL     1      47.376   1.643   6.045  0.00  0.00    +0.000 A 
ATOM     13  C   UNL     1      47.082   0.955   7.206  0.00  0.00    +0.000 A 
ATOM     14  N   UNL     1      46.375   1.479   8.234  0.00  0.00    +0.000 NA
ENDBRANCH   7   9
ENDBRANCH   1   2
BRANCH   1  15
ATOM     15  N   UNL     1      44.746   6.792  12.454  0.00  0.00    +0.000 N 
ATOM     16  H   UNL     1      44.127   6.216  13.022  0.00  0.00    +0.000 HD
BRANCH  15  21
ATOM     17  C   UNL     1      47.962   8.081  13.840  0.00  0.00    +0.000 A 
ATOM     18  C   UNL     1      48.530   6.867  14.190  0.00  0.00    +0.000 A 
ATOM     19  N   UNL     1      47.915   5.678  14.002  0.00  0.00    +0.000 NA
ATOM     20  C   UNL     1      46.692   5.718  13.417  0.00  0.00    +0.000 A 
ATOM     21  C   UNL     1      46.038   6.876  12.977  0.00  0.00    +0.000 A 
ATOM     22  C   UNL     1      46.702   8.081  13.229  0.00  0.00    +0.000 A 
BRANCH  17  24
ATOM     23  N   UNL     1      48.095  10.508  13.819  0.00  0.00    +0.000 N 
ATOM     24  C   UNL     1      48.716   9.323  14.109  0.00  0.00    +0.000 C 
ATOM     25  O   UNL     1      49.836   9.299  14.600  0.00  0.00    +0.000 OA
ATOM     26  H   UNL     1      48.580  11.346  14.115  0.00  0.00    +0.000 HD
ATOM     27  H   UNL     1      47.098  10.574  13.677  0.00  0.00    +0.000 HD
ENDBRANCH  17  24
ENDBRANCH  15  21
ENDBRANCH   1  15
TORSDOF 5
ENDMDL
MODEL 7
REMARK VINA RESULT:    -7.356      2.224      2.838
REMARK INTER + INTRA:         -10.362
REMARK INTER:                  -9.615
REMARK INTRA:                  -0.747
REMARK UNBOUND:                -0.856
REMARK  Name = 
REMARK  5 active torsions:
REMARK  status: ('A' for Active; 'I' for Inactive)
REMARK    1  A    between atoms: C_2  and  C_4
REMARK    2  A    between atoms: C_8  and  N_9
REMARK    3  A    between atoms: N_9  and  C_10
REMARK    4  A    between atoms: C_10  and  C_11
REMARK    5  A    between atoms: C_16  and  C_17
REMARK                            x       y       z     vdW  Elec       q    Type
REMARK                         _______ _______ _______ _____ _____    ______ ____
ROOT
ATOM      1  C   UNL     1      45.486   5.679   9.391  0.00  0.00    +0.000 C 
ENDROOT
BRANCH   1   2
ATOM      2  C   UNL     1      45.607   5.502  10.883  0.00  0.00    +0.000 A 
ATOM      3  C   UNL     1      44.613   4.834  11.606  0.00  0.00    +0.000 A 
ATOM      4  C   UNL     1      44.750   4.676  12.979  0.00  0.00    +0.000 A 
ATOM      5  F   UNL     1      43.799   4.025  13.663  0.00  0.00    +0.000 F 
ATOM      6  C   UNL     1      45.859   5.174  13.658  0.00  0.00    +0.000 A 
ATOM      7  C   UNL     1      46.874   5.858  12.970  0.00  0.00    +0.000 A 
ATOM      8  C   UNL     1      46.716   6.020  11.576  0.00  0.00    +0.000 A 
BRANCH   7   9
ATOM      9  C   UNL     1      48.059   6.405  13.664  0.00  0.00    +0.000 A 
ATOM     10  C   UNL     1      49.007   7.208  13.030  0.00  0.00    +0.000 A 
ATOM     11  C   UNL     1      50.107   7.670  13.752  0.00  0.00    +0.000 A 
ATOM     12  C   UNL     1      50.235   7.325  15.088  0.00  0.00    +0.000 A 
ATOM     13  C   UNL     1      49.251   6.538  15.654  0.00  0.00    +0.000 A 
ATOM     14  N   UNL     1      48.173   6.078  14.978  0.00  0.00    +0.000 NA
ENDBRANCH   7   9
ENDBRANCH   1   2
BRANCH   1  15
ATOM     15  N   UNL     1      44.658   4.620   8.833  0.00  0.00    +0.000 N 
ATOM     16  H   UNL     1      43.943   4.965   8.195  0.00  0.00    +0.000 HD
BRANCH  15  21
ATOM     17  C   UNL     1      46.860   2.095   7.189  0.00  0.00    +0.000 A 
ATOM     18  C   UNL     1      46.365   0.961   7.813  0.00  0.00    +0.000 A 
ATOM     19  N   UNL     1      45.371   0.992   8.729  0.00  0.00    +0.000 NA
ATOM     20  C   UNL     1      44.845   2.211   9.007  0.00  0.00    +0.000 A 
ATOM     21  C   UNL     1      45.228   3.418   8.408  0.00  0.00    +0.000 A 
ATOM     22  C   UNL     1      46.284   3.334   7.495  0.00  0.00    +0.000 A 
BRANCH  17  24
ATOM     23  N   UNL     1      48.975   2.865   6.272  0.00  0.00    +0.000 N 
ATOM     24  C   UNL     1      47.961   1.947   6.216  0.00  0.00    +0.000 C 
ATOM     25  O   UNL     1      47.988   1.025   5.413  0.00  0.00    +0.000 OA
ATOM     26  H   UNL     1      49.773   2.683   5.676  0.00  0.00    +0.000 HD
ATOM     27  H   UNL     1      49.122   3.458   7.076  0.00  0.00    +0.000 HD
ENDBRANCH  17  24
ENDBRANCH  15  21
ENDBRANCH   1  15
TORSDOF 5
ENDMDL
MODEL 8
REMARK VINA RESULT:    -6.991      1.684      2.168
REMARK INTER + INTRA:          -9.891
REMARK INTER:                  -9.627
REMARK INTRA:                  -0.264
REMARK UNBOUND:                -0.856
REMARK  Name = 
REMARK  5 active torsions:
REMARK  status: ('A' for Active; 'I' for Inactive)
REMARK    1  A    between atoms: C_2  and  C_4
REMARK    2  A    between atoms: C_8  and  N_9
REMARK    3  A    between atoms: N_9  and  C_10
REMARK    4  A    between atoms: C_10  and  C_11
REMARK    5  A    between atoms: C_16  and  C_17
REMARK                            x       y       z     vdW  Elec       q    Type
REMARK                         _______ _______ _______ _____ _____    ______ ____
ROOT
ATOM      1  C   UNL     1      44.261   2.801  11.356  0.00  0.00    +0.000 C 
ENDROOT
BRANCH   1   2
ATOM      2  C   UNL     1      44.719   4.109  11.950  0.00  0.00    +0.000 A 
ATOM      3  C   UNL     1      44.226   5.325  11.465  0.00  0.00    +0.000 A 
ATOM      4  C   UNL     1      44.656   6.517  12.033  0.00  0.00    +0.000 A 
ATOM      5  F   UNL     1      44.170   7.678  11.571  0.00  0.00    +0.000 F 
ATOM      6  C   UNL     1      45.576   6.530  13.077  0.00  0.00    +0.000 A 
ATOM      7  C   UNL     1      46.102   5.332  13.586  0.00  0.00    +0.000 A 
ATOM      8  C   UNL     1      45.663   4.129  12.992  0.00  0.00    +0.000 A 
BRANCH   7   9
ATOM      9  C   UNL     1      47.086   5.315  14.690  0.00  0.00    +0.000 A 
ATOM     10  C   UNL     1      48.018   6.334  14.892  0.00  0.00    +0.000 A 
ATOM     11  C   UNL     1      48.924   6.234  15.947  0.00  0.00    +0.000 A 
ATOM     12  C   UNL     1      48.880   5.125  16.777  0.00  0.00    +0.000 A 
ATOM     13  C   UNL     1      47.921   4.163  16.525  0.00  0.00    +0.000 A 
ATOM     14  N   UNL     1      47.028   4.235  15.511  0.00  0.00    +0.000 NA
ENDBRANCH   7   9
ENDBRANCH   1   2
BRANCH   1  15
ATOM     15  N   UNL     1      44.006   2.967   9.933  0.00  0.00    +0.000 N 
ATOM     16  H   UNL     1      43.234   3.601   9.736  0.00  0.00    +0.000 HD
BRANCH  15  21
ATOM     17  C   UNL     1      46.684   2.254   7.433  0.00  0.00    +0.000 A 
ATOM     18  C   UNL     1      47.021   3.562   7.124  0.00  0.00    +0.000 A 
ATOM     19  N   UNL     1      46.419   4.637   7.682  0.00  0.00    +0.000 NA
ATOM     20  C   UNL     1      45.457   4.378   8.602  0.00  0.00    +0.000 A 
ATOM     21  C   UNL     1      45.063   3.104   9.030  0.00  0.00    +0.000 A 
ATOM     22  C   UNL     1      45.691   2.028   8.395  0.00  0.00    +0.000 A 
BRANCH  17  24
ATOM     23  N   UNL     1      48.386   1.502   5.869  0.00  0.00    +0.000 N 
ATOM     24  C   UNL     1      47.395   1.155   6.749  0.00  0.00    +0.000 C 
ATOM     25  O   UNL     1      47.137  -0.017   6.980  0.00  0.00    +0.000 OA
ATOM     26  H   UNL     1      48.936   0.738   5.498  0.00  0.00    +0.000 HD
ATOM     27  H   UNL     1      48.803   2.421   5.861  0.00  0.00    +0.000 HD
ENDBRANCH  17  24
ENDBRANCH  15  21
ENDBRANCH   1  15
TORSDOF 5
ENDMDL
MODEL 9
REMARK VINA RESULT:    -6.794      3.385      7.943
REMARK INTER + INTRA:          -9.636
REMARK INTER:                  -8.998
REMARK INTRA:                  -0.639
REMARK UNBOUND:                -0.856
REMARK  Name = 
REMARK  5 active torsions:
REMARK  status: ('A' for Active; 'I' for Inactive)
REMARK    1  A    between atoms: C_2  and  C_4
REMARK    2  A    between atoms: C_8  and  N_9
REMARK    3  A    between atoms: N_9  and  C_10
REMARK    4  A    between atoms: C_10  and  C_11
REMARK    5  A    between atoms: C_16  and  C_17
REMARK                            x       y       z     vdW  Elec       q    Type
REMARK                         _______ _______ _______ _____ _____    ______ ____
ROOT
ATOM      1  C   UNL     1      48.480   6.883  13.905  0.00  0.00    +0.000 C 
ENDROOT
BRANCH   1   2
ATOM      2  C   UNL     1      47.255   7.054  13.042  0.00  0.00    +0.000 A 
ATOM      3  C   UNL     1      46.495   8.226  13.105  0.00  0.00    +0.000 A 
ATOM      4  C   UNL     1      45.375   8.365  12.294  0.00  0.00    +0.000 A 
ATOM      5  F   UNL     1      44.659   9.496  12.351  0.00  0.00    +0.000 F 
ATOM      6  C   UNL     1      44.988   7.355  11.418  0.00  0.00    +0.000 A 
ATOM      7  C   UNL     1      45.718   6.159  11.332  0.00  0.00    +0.000 A 
ATOM      8  C   UNL     1      46.847   6.029  12.169  0.00  0.00    +0.000 A 
BRANCH   7   9
ATOM      9  C   UNL     1      45.326   5.066  10.417  0.00  0.00    +0.000 A 
ATOM     10  C   UNL     1      44.592   3.954  10.833  0.00  0.00    +0.000 A 
ATOM     11  C   UNL     1      44.276   2.958   9.910  0.00  0.00    +0.000 A 
ATOM     12  C   UNL     1      44.696   3.092   8.595  0.00  0.00    +0.000 A 
ATOM     13  C   UNL     1      45.406   4.226   8.252  0.00  0.00    +0.000 A 
ATOM     14  N   UNL     1      45.724   5.210   9.126  0.00  0.00    +0.000 NA
ENDBRANCH   7   9
ENDBRANCH   1   2
BRANCH   1  15
ATOM     15  N   UNL     1      48.100   6.896  15.309  0.00  0.00    +0.000 N 
ATOM     16  H   UNL     1      47.273   7.462  15.495  0.00  0.00    +0.000 HD
BRANCH  15  21
ATOM     17  C   UNL     1      48.628   4.447  18.075  0.00  0.00    +0.000 A 
ATOM     18  C   UNL     1      47.955   3.370  17.520  0.00  0.00    +0.000 A 
ATOM     19  N   UNL     1      47.347   3.416  16.313  0.00  0.00    +0.000 NA
ATOM     20  C   UNL     1      47.444   4.587  15.634  0.00  0.00    +0.000 A 
ATOM     21  C   UNL     1      48.135   5.725  16.069  0.00  0.00    +0.000 A 
ATOM     22  C   UNL     1      48.714   5.635  17.339  0.00  0.00    +0.000 A 
BRANCH  17  24
ATOM     23  N   UNL     1      48.489   3.677  20.377  0.00  0.00    +0.000 N 
ATOM     24  C   UNL     1      49.240   4.291  19.410  0.00  0.00    +0.000 C 
ATOM     25  O   UNL     1      50.382   4.663  19.639  0.00  0.00    +0.000 OA
ATOM     26  H   UNL     1      48.964   3.478  21.248  0.00  0.00    +0.000 HD
ATOM     27  H   UNL     1      47.672   3.125  20.156  0.00  0.00    +0.000 HD
ENDBRANCH  17  24
ENDBRANCH  15  21
ENDBRANCH   1  15
TORSDOF 5
ENDMDL
