MODEL 1
REMARK VINA RESULT:    -7.410      0.000      0.000
REMARK INTER + INTRA:          -9.706
REMARK INTER:                  -9.143
REMARK INTRA:                  -0.563
REMARK UNBOUND:                -0.563
REMARK  Name = 
REMARK  4 active torsions:
REMARK  status: ('A' for Active; 'I' for Inactive)
REMARK    1  A    between atoms: C_2  and  C_4
REMARK    2  A    between atoms: C_8  and  N_9
REMARK    3  A    between atoms: N_9  and  C_10
REMARK    4  A    between atoms: C_10  and  C_11
REMARK                            x       y       z     vdW  Elec       q    Type
REMARK                         _______ _______ _______ _____ _____    ______ ____
ROOT
ATOM      1  C   UNL     1      46.312   4.606  13.381  0.00  0.00    +0.000 A 
ATOM      2  C   UNL     1      46.067   5.916  12.966  0.00  0.00    +0.000 A 
ATOM      3  C   UNL     1      45.316   6.143  11.814  0.00  0.00    +0.000 A 
ATOM      4  C   UNL     1      44.830   5.060  11.076  0.00  0.00    +0.000 A 
ATOM      5  C   UNL     1      45.119   3.738  11.447  0.00  0.00    +0.000 A 
ATOM      6  C   UNL     1      45.834   3.526  12.627  0.00  0.00    +0.000 A 
ENDROOT
BRANCH   1   8
ATOM      7  N   UNL     1      47.555   3.149  14.838  0.00  0.00    +0.000 NA
ATOM      8  C   UNL     1      47.090   4.337  14.624  0.00  0.00    +0.000 C 
ATOM      9  N   UNL     1      47.290   5.330  15.538  0.00  0.00    +0.000 N 
ATOM     10  H   UNL     1      48.095   3.141  15.704  0.00  0.00    +0.000 HD
ATOM     11  H   UNL     1      47.511   5.018  16.476  0.00  0.00    +0.000 HD
ATOM     12  H   UNL     1      46.583   6.059  15.548  0.00  0.00    +0.000 HD
ENDBRANCH   1   8
BRANCH   5  13
ATOM     13  N   UNL     1      44.604   2.709  10.649  0.00  0.00    +0.000 N 
ATOM     14  H   UNL     1      45.193   1.880  10.712  0.00  0.00    +0.000 HD
BRANCH  13  15
ATOM     15  C   UNL     1      44.302   3.030   9.255  0.00  0.00    +0.000 C 
BRANCH  15  16
ATOM     16  C   UNL     1      45.445   2.589   8.371  0.00  0.00    +0.000 A 
ATOM     17  C   UNL     1      46.130   3.530   7.585  0.00  0.00    +0.000 A 
ATOM     18  C   UNL     1      47.232   3.153   6.820  0.00  0.00    +0.000 A 
ATOM     19  C   UNL     1      47.665   1.830   6.830  0.00  0.00    +0.000 A 
ATOM     20  C   UNL     1      46.992   0.883   7.601  0.00  0.00    +0.000 A 
ATOM     21  C   UNL     1      45.887   1.258   8.369  0.00  0.00    +0.000 A 
ENDBRANCH  15  16
ENDBRANCH  13  15
ENDBRANCH   5  13
TORSDOF 4
ENDMDL
MODEL 2
REMARK VINA RESULT:    -7.225      1.267      1.806
REMARK INTER + INTRA:          -9.477
REMARK INTER:                  -9.036
REMARK INTRA:                  -0.442
REMARK UNBOUND:                -0.563
REMARK  Name = 
REMARK  4 active torsions:
REMARK  status: ('A' for Active; 'I' for Inactive)
REMARK    1  A    between atoms: C_2  and  C_4
REMARK    2  A    between atoms: C_8  and  N_9
REMARK    3  A    between atoms: N_9  and  C_10
REMARK    4  A    between atoms: C_10  and  C_11
REMARK                            x       y       z     vdW  Elec       q    Type
REMARK                         _______ _______ _______ _____ _____    ______ ____
ROOT
ATOM      1  C   UNL     1      45.393   4.382  12.841  0.00  0.00    +0.000 A 
ATOM      2  C   UNL     1      44.164   4.807  13.347  0.00  0.00    +0.000 A 
ATOM      3  C   UNL     1      43.020   4.698  12.557  0.00  0.00    +0.000 A 
ATOM      4  C   UNL     1      43.116   4.180  11.263  0.00  0.00    +0.000 A 
ATOM      5  C   UNL     1      44.353   3.804  10.719  0.00  0.00    +0.000 A 
ATOM      6  C   UNL     1      45.483   3.878  11.537  0.00  0.00    +0.000 A 
ENDROOT
BRANCH   1   8
ATOM      7  N   UNL     1      47.217   3.374  14.044  0.00  0.00    +0.000 NA
ATOM      8  C   UNL     1      46.626   4.464  13.674  0.00  0.00    +0.000 C 
ATOM      9  N   UNL     1      47.114   5.678  14.063  0.00  0.00    +0.000 N 
ATOM     10  H   UNL     1      48.063   3.601  14.569  0.00  0.00    +0.000 HD
ATOM     11  H   UNL     1      47.719   5.662  14.875  0.00  0.00    +0.000 HD
ATOM     12  H   UNL     1      46.425   6.421  14.128  0.00  0.00    +0.000 HD
ENDBRANCH   1   8
BRANCH   5  13
ATOM     13  N   UNL     1      44.367   3.304   9.411  0.00  0.00    +0.000 N 
ATOM     14  H   UNL     1      44.578   2.307   9.412  0.00  0.00    +0.000 HD
BRANCH  13  15
ATOM     15  C   UNL     1      45.192   4.011   8.433  0.00  0.00    +0.000 C 
BRANCH  15  16
ATOM     16  C   UNL     1      46.039   3.021   7.668  0.00  0.00    +0.000 A 
ATOM     17  C   UNL     1      46.217   1.719   8.162  0.00  0.00    +0.000 A 
ATOM     18  C   UNL     1      46.935   0.772   7.434  0.00  0.00    +0.000 A 
ATOM     19  C   UNL     1      47.484   1.114   6.201  0.00  0.00    +0.000 A 
ATOM     20  C   UNL     1      47.320   2.405   5.700  0.00  0.00    +0.000 A 
ATOM     21  C   UNL     1      46.601   3.356   6.428  0.00  0.00    +0.000 A 
ENDBRANCH  15  16
ENDBRANCH  13  15
ENDBRANCH   5  13
TORSDOF 4
ENDMDL
MODEL 3
REMARK VINA RESULT:    -7.103      1.926      2.903
REMARK INTER + INTRA:          -9.327
REMARK INTER:                  -8.806
REMARK INTRA:                  -0.521
REMARK UNBOUND:                -0.563
REMARK  Name = 
REMARK  4 active torsions:
REMARK  status: ('A' for Active; 'I' for Inactive)
REMARK    1  A    between atoms: C_2  and  C_4
REMARK    2  A    between atoms: C_8  and  N_9
REMARK    3  A    between atoms: N_9  and  C_10
REMARK    4  A    between atoms: C_10  and  C_11
REMARK                            x       y       z     vdW  Elec       q    Type
REMARK                         _______ _______ _______ _____ _____    ______ ____
ROOT
ATOM      1  C   UNL     1      44.669   5.983  11.891  0.00  0.00    +0.000 A 
ATOM      2  C   UNL     1      45.260   5.828  13.146  0.00  0.00    +0.000 A 
ATOM      3  C   UNL     1      45.755   4.581  13.522  0.00  0.00    +0.000 A 
ATOM      4  C   UNL     1      45.643   3.495  12.650  0.00  0.00    +0.000 A 
ATOM      5  C   UNL     1      44.998   3.622  11.410  0.00  0.00    +0.000 A 
ATOM      6  C   UNL     1      44.546   4.887  11.028  0.00  0.00    +0.000 A 
ENDROOT
BRANCH   1   8
ATOM      7  N   UNL     1      44.946   8.336  11.466  0.00  0.00    +0.000 NA
ATOM      8  C   UNL     1      44.155   7.313  11.454  0.00  0.00    +0.000 C 
ATOM      9  N   UNL     1      42.854   7.453  11.065  0.00  0.00    +0.000 N 
ATOM     10  H   UNL     1      44.458   9.155  11.101  0.00  0.00    +0.000 HD
ATOM     11  H   UNL     1      42.487   8.395  11.111  0.00  0.00    +0.000 HD
ATOM     12  H   UNL     1      42.207   6.783  11.469  0.00  0.00    +0.000 HD
ENDBRANCH   1   8
BRANCH   5  13
ATOM     13  N   UNL     1      44.917   2.484  10.597  0.00  0.00    +0.000 N 
ATOM     14  H   UNL     1      45.807   1.991  10.584  0.00  0.00    +0.000 HD
BRANCH  13  15
ATOM     15  C   UNL     1      44.399   2.666   9.242  0.00  0.00    +0.000 C 
BRANCH  15  16
ATOM     16  C   UNL     1      45.526   2.537   8.244  0.00  0.00    +0.000 A 
ATOM     17  C   UNL     1      45.903   3.641   7.463  0.00  0.00    +0.000 A 
ATOM     18  C   UNL     1      46.987   3.560   6.590  0.00  0.00    +0.000 A 
ATOM     19  C   UNL     1      47.709   2.374   6.487  0.00  0.00    +0.000 A 
ATOM     20  C   UNL     1      47.344   1.267   7.254  0.00  0.00    +0.000 A 
ATOM     21  C   UNL     1      46.258   1.346   8.128  0.00  0.00    +0.000 A 
ENDBRANCH  15  16
ENDBRANCH  13  15
ENDBRANCH   5  13
TORSDOF 4
ENDMDL
MODEL 4
REMARK VINA RESULT:    -6.833      1.812      2.548
REMARK INTER + INTRA:          -8.994
REMARK INTER:                  -8.503
REMARK INTRA:                  -0.491
REMARK UNBOUND:                -0.563
REMARK  Name = 
REMARK  4 active torsions:
REMARK  status: ('A' for Active; 'I' for Inactive)
REMARK    1  A    between atoms: C_2  and  C_4
REMARK    2  A    between atoms: C_8  and  N_9
REMARK    3  A    between atoms: N_9  and  C_10
REMARK    4  A    between atoms: C_10  and  C_11
REMARK                            x       y       z     vdW  Elec       q    Type
REMARK                         _______ _______ _______ _____ _____    ______ ____
ROOT
ATOM      1  C   UNL     1      46.317   6.443  12.542  0.00  0.00    +0.000 A 
ATOM      2  C   UNL     1      46.074   5.398  13.435  0.00  0.00    +0.000 A 
ATOM      3  C   UNL     1      45.463   4.231  12.977  0.00  0.00    +0.000 A 
ATOM      4  C   UNL     1      45.087   4.123  11.636  0.00  0.00    +0.000 A 
ATOM      5  C   UNL     1      45.271   5.188  10.741  0.00  0.00    +0.000 A 
ATOM      6  C   UNL     1      45.923   6.333  11.203  0.00  0.00    +0.000 A 
ENDROOT
BRANCH   1   8
ATOM      7  N   UNL     1      48.265   7.830  12.818  0.00  0.00    +0.000 NA
ATOM      8  C   UNL     1      46.992   7.690  13.001  0.00  0.00    +0.000 C 
ATOM      9  N   UNL     1      46.276   8.668  13.629  0.00  0.00    +0.000 N 
ATOM     10  H   UNL     1      48.563   8.749  13.146  0.00  0.00    +0.000 HD
ATOM     11  H   UNL     1      46.819   9.304  14.200  0.00  0.00    +0.000 HD
ATOM     12  H   UNL     1      45.444   8.351  14.116  0.00  0.00    +0.000 HD
ENDBRANCH   1   8
BRANCH   5  13
ATOM     13  N   UNL     1      44.856   5.006   9.415  0.00  0.00    +0.000 N 
ATOM     14  H   UNL     1      44.150   5.696   9.164  0.00  0.00    +0.000 HD
BRANCH  13  15
ATOM     15  C   UNL     1      44.433   3.661   9.025  0.00  0.00    +0.000 C 
BRANCH  15  16
ATOM     16  C   UNL     1      45.556   2.967   8.290  0.00  0.00    +0.000 A 
ATOM     17  C   UNL     1      45.773   1.592   8.477  0.00  0.00    +0.000 A 
ATOM     18  C   UNL     1      46.757   0.921   7.752  0.00  0.00    +0.000 A 
ATOM     19  C   UNL     1      47.537   1.616   6.831  0.00  0.00    +0.000 A 
ATOM     20  C   UNL     1      47.336   2.982   6.639  0.00  0.00    +0.000 A 
ATOM     21  C   UNL     1      46.350   3.657   7.364  0.00  0.00    +0.000 A 
ENDBRANCH  15  16
ENDBRANCH  13  15
ENDBRANCH   5  13
TORSDOF 4
ENDMDL
MODEL 5
REMARK VINA RESULT:    -6.824      2.230      5.946
REMARK INTER + INTRA:          -8.984
REMARK INTER:                  -8.712
REMARK INTRA:                  -0.272
REMARK UNBOUND:                -0.563
REMARK  Name = 
REMARK  4 active torsions:
REMARK  status: ('A' for Active; 'I' for Inactive)
REMARK    1  A    between atoms: C_2  and  C_4
REMARK    2  A    between atoms: C_8  and  N_9
REMARK    3  A    between atoms: N_9  and  C_10
REMARK    4  A    between atoms: C_10  and  C_11
REMARK                            x       y       z     vdW  Elec       q    Type
REMARK                         _______ _______ _______ _____ _____    ______ ____
ROOT
ATOM      1  C   UNL     1      46.243   2.079   7.926  0.00  0.00    +0.000 A 
ATOM      2  C   UNL     1      46.281   3.365   7.385  0.00  0.00    +0.000 A 
ATOM      3  C   UNL     1      45.549   4.386   7.988  0.00  0.00    +0.000 A 
ATOM      4  C   UNL     1      44.772   4.112   9.118  0.00  0.00    +0.000 A 
ATOM      5  C   UNL     1      44.677   2.813   9.637  0.00  0.00    +0.000 A 
ATOM      6  C   UNL     1      45.450   1.809   9.049  0.00  0.00    +0.000 A 
ENDROOT
BRANCH   1   8
ATOM      7  N   UNL     1      46.840  -0.242   7.707  0.00  0.00    +0.000 NA
ATOM      8  C   UNL     1      47.037   0.975   7.316  0.00  0.00    +0.000 C 
ATOM      9  N   UNL     1      47.980   1.249   6.368  0.00  0.00    +0.000 N 
ATOM     10  H   UNL     1      47.427  -0.878   7.166  0.00  0.00    +0.000 HD
ATOM     11  H   UNL     1      48.694   0.541   6.249  0.00  0.00    +0.000 HD
ATOM     12  H   UNL     1      48.385   2.179   6.416  0.00  0.00    +0.000 HD
ENDBRANCH   1   8
BRANCH   5  13
ATOM     13  N   UNL     1      43.869   2.617  10.764  0.00  0.00    +0.000 N 
ATOM     14  H   UNL     1      43.066   2.036  10.531  0.00  0.00    +0.000 HD
BRANCH  13  15
ATOM     15  C   UNL     1      43.454   3.808  11.504  0.00  0.00    +0.000 C 
BRANCH  15  16
ATOM     16  C   UNL     1      44.625   4.360  12.283  0.00  0.00    +0.000 A 
ATOM     17  C   UNL     1      45.585   3.487  12.821  0.00  0.00    +0.000 A 
ATOM     18  C   UNL     1      46.710   3.983  13.479  0.00  0.00    +0.000 A 
ATOM     19  C   UNL     1      46.890   5.357  13.608  0.00  0.00    +0.000 A 
ATOM     20  C   UNL     1      45.943   6.236  13.083  0.00  0.00    +0.000 A 
ATOM     21  C   UNL     1      44.815   5.742  12.423  0.00  0.00    +0.000 A 
ENDBRANCH  15  16
ENDBRANCH  13  15
ENDBRANCH   5  13
TORSDOF 4
ENDMDL
MODEL 6
REMARK VINA RESULT:    -6.751      2.547      6.040
REMARK INTER + INTRA:          -8.893
REMARK INTER:                  -8.208
REMARK INTRA:                  -0.685
REMARK UNBOUND:                -0.563
REMARK  Name = 
REMARK  4 active torsions:
REMARK  status: ('A' for Active; 'I' for Inactive)
REMARK    1  A    between atoms: C_2  and  C_4
REMARK    2  A    between atoms: C_8  and  N_9
REMARK    3  A    between atoms: N_9  and  C_10
REMARK    4  A    between atoms: C_10  and  C_11
REMARK                            x       y       z     vdW  Elec       q    Type
REMARK                         _______ _______ _______ _____ _____    ______ ____
ROOT
ATOM      1  C   UNL     1      45.880   3.106   8.139  0.00  0.00    +0.000 A 
ATOM      2  C   UNL     1      45.482   1.887   8.690  0.00  0.00    +0.000 A 
ATOM      3  C   UNL     1      44.526   1.871   9.704  0.00  0.00    +0.000 A 
ATOM      4  C   UNL     1      43.986   3.072  10.172  0.00  0.00    +0.000 A 
ATOM      5  C   UNL     1      44.420   4.308   9.669  0.00  0.00    +0.000 A 
ATOM      6  C   UNL     1      45.346   4.307   8.624  0.00  0.00    +0.000 A 
ENDROOT
BRANCH   1   8
ATOM      7  N   UNL     1      46.834   4.111   6.172  0.00  0.00    +0.000 NA
ATOM      8  C   UNL     1      46.881   3.149   7.036  0.00  0.00    +0.000 C 
ATOM      9  N   UNL     1      47.825   2.170   6.925  0.00  0.00    +0.000 N 
ATOM     10  H   UNL     1      47.608   4.021   5.512  0.00  0.00    +0.000 HD
ATOM     11  H   UNL     1      48.236   2.066   6.006  0.00  0.00    +0.000 HD
ATOM     12  H   UNL     1      47.565   1.271   7.319  0.00  0.00    +0.000 HD
ENDBRANCH   1   8
BRANCH   5  13
ATOM     13  N   UNL     1      43.839   5.468  10.198  0.00  0.00    +0.000 N 
ATOM     14  H   UNL     1      44.238   6.297   9.761  0.00  0.00    +0.000 HD
BRANCH  13  15
ATOM     15  C   UNL     1      43.819   5.603  11.654  0.00  0.00    +0.000 C 
BRANCH  15  16
ATOM     16  C   UNL     1      45.221   5.844  12.163  0.00  0.00    +0.000 A 
ATOM     17  C   UNL     1      45.751   5.027  13.175  0.00  0.00    +0.000 A 
ATOM     18  C   UNL     1      47.067   5.189  13.606  0.00  0.00    +0.000 A 
ATOM     19  C   UNL     1      47.870   6.170  13.030  0.00  0.00    +0.000 A 
ATOM     20  C   UNL     1      47.356   6.991  12.027  0.00  0.00    +0.000 A 
ATOM     21  C   UNL     1      46.038   6.831  11.595  0.00  0.00    +0.000 A 
ENDBRANCH  15  16
ENDBRANCH  13  15
ENDBRANCH   5  13
TORSDOF 4
ENDMDL
MODEL 7
REMARK VINA RESULT:    -6.567      2.193      3.000
REMARK INTER + INTRA:          -8.666
REMARK INTER:                  -8.239
REMARK INTRA:                  -0.427
REMARK UNBOUND:                -0.563
REMARK  Name = 
REMARK  4 active torsions:
REMARK  status: ('A' for Active; 'I' for Inactive)
REMARK    1  A    between atoms: C_2  and  C_4
REMARK    2  A    between atoms: C_8  and  N_9
REMARK    3  A    between atoms: N_9  and  C_10
REMARK    4  A    between atoms: C_10  and  C_11
REMARK                            x       y       z     vdW  Elec       q    Type
REMARK                         _______ _______ _______ _____ _____    ______ ____
ROOT
ATOM      1  C   UNL     1      44.438   4.134  11.581  0.00  0.00    +0.000 A 
ATOM      2  C   UNL     1      45.077   5.314  11.961  0.00  0.00    +0.000 A 
ATOM      3  C   UNL     1      45.748   6.072  11.002  0.00  0.00    +0.000 A 
ATOM      4  C   UNL     1      45.787   5.636   9.675  0.00  0.00    +0.000 A 
ATOM      5  C   UNL     1      45.200   4.422   9.290  0.00  0.00    +0.000 A 
ATOM      6  C   UNL     1      44.495   3.696  10.252  0.00  0.00    +0.000 A 
ENDROOT
BRANCH   1   8
ATOM      7  N   UNL     1      43.486   2.063  12.354  0.00  0.00    +0.000 NA
ATOM      8  C   UNL     1      43.692   3.319  12.583  0.00  0.00    +0.000 C 
ATOM      9  N   UNL     1      43.211   3.899  13.721  0.00  0.00    +0.000 N 
ATOM     10  H   UNL     1      43.003   1.642  13.149  0.00  0.00    +0.000 HD
ATOM     11  H   UNL     1      42.452   3.405  14.172  0.00  0.00    +0.000 HD
ATOM     12  H   UNL     1      43.017   4.893  13.651  0.00  0.00    +0.000 HD
ENDBRANCH   1   8
BRANCH   5  13
ATOM     13  N   UNL     1      45.293   4.049   7.943  0.00  0.00    +0.000 N 
ATOM     14  H   UNL     1      44.842   3.149   7.790  0.00  0.00    +0.000 HD
BRANCH  13  15
ATOM     15  C   UNL     1      46.620   4.080   7.330  0.00  0.00    +0.000 C 
BRANCH  15  16
ATOM     16  C   UNL     1      46.894   2.765   6.639  0.00  0.00    +0.000 A 
ATOM     17  C   UNL     1      46.965   1.579   7.388  0.00  0.00    +0.000 A 
ATOM     18  C   UNL     1      47.145   0.348   6.759  0.00  0.00    +0.000 A 
ATOM     19  C   UNL     1      47.254   0.286   5.372  0.00  0.00    +0.000 A 
ATOM     20  C   UNL     1      47.190   1.456   4.615  0.00  0.00    +0.000 A 
ATOM     21  C   UNL     1      47.010   2.690   5.244  0.00  0.00    +0.000 A 
ENDBRANCH  15  16
ENDBRANCH  13  15
ENDBRANCH   5  13
TORSDOF 4
ENDMDL
MODEL 8
REMARK VINA RESULT:    -6.009      3.059      7.029
REMARK INTER + INTRA:          -7.978
REMARK INTER:                  -7.595
REMARK INTRA:                  -0.382
REMARK UNBOUND:                -0.563
REMARK  Name = 
REMARK  4 active torsions:
REMARK  status: ('A' for Active; 'I' for Inactive)
REMARK    1  A    between atoms: C_2  and  C_4
REMARK    2  A    between atoms: C_8  and  N_9
REMARK    3  A    between atoms: N_9  and  C_10
REMARK    4  A    between atoms: C_10  and  C_11
REMARK                            x       y       z     vdW  Elec       q    Type
REMARK                         _______ _______ _______ _____ _____    ______ ____
ROOT
ATOM      1  C   UNL     1      44.984   4.704  11.630  0.00  0.00    +0.000 A 
ATOM      2  C   UNL     1      45.595   5.934  11.383  0.00  0.00    +0.000 A 
ATOM      3  C   UNL     1      46.671   6.337  12.172  0.00  0.00    +0.000 A 
ATOM      4  C   UNL     1      47.119   5.516  13.210  0.00  0.00    +0.000 A 
ATOM      5  C   UNL     1      46.477   4.304  13.507  0.00  0.00    +0.000 A 
ATOM      6  C   UNL     1      45.429   3.892  12.682  0.00  0.00    +0.000 A 
ENDROOT
BRANCH   1   8
ATOM      7  N   UNL     1      42.942   3.473  11.301  0.00  0.00    +0.000 NA
ATOM      8  C   UNL     1      43.848   4.238  10.784  0.00  0.00    +0.000 C 
ATOM      9  N   UNL     1      43.777   4.596   9.469  0.00  0.00    +0.000 N 
ATOM     10  H   UNL     1      42.217   3.279  10.609  0.00  0.00    +0.000 HD
ATOM     11  H   UNL     1      43.206   3.997   8.886  0.00  0.00    +0.000 HD
ATOM     12  H   UNL     1      44.668   4.801   9.028  0.00  0.00    +0.000 HD
ENDBRANCH   1   8
BRANCH   5  13
ATOM     13  N   UNL     1      46.979   3.543  14.571  0.00  0.00    +0.000 N 
ATOM     14  H   UNL     1      46.520   2.635  14.607  0.00  0.00    +0.000 HD
BRANCH  13  15
ATOM     15  C   UNL     1      47.001   4.171  15.891  0.00  0.00    +0.000 C 
BRANCH  15  16
ATOM     16  C   UNL     1      48.350   3.956  16.536  0.00  0.00    +0.000 A 
ATOM     17  C   UNL     1      49.124   5.060  16.930  0.00  0.00    +0.000 A 
ATOM     18  C   UNL     1      50.338   4.879  17.592  0.00  0.00    +0.000 A 
ATOM     19  C   UNL     1      50.793   3.593  17.869  0.00  0.00    +0.000 A 
ATOM     20  C   UNL     1      50.038   2.487  17.480  0.00  0.00    +0.000 A 
ATOM     21  C   UNL     1      48.821   2.666  16.816  0.00  0.00    +0.000 A 
ENDBRANCH  15  16
ENDBRANCH  13  15
ENDBRANCH   5  13
TORSDOF 4
ENDMDL
MODEL 9
REMARK VINA RESULT:    -5.856      2.919      6.276
REMARK INTER + INTRA:          -7.789
REMARK INTER:                  -7.280
REMARK INTRA:                  -0.509
REMARK UNBOUND:                -0.563
REMARK  Name = 
REMARK  4 active torsions:
REMARK  status: ('A' for Active; 'I' for Inactive)
REMARK    1  A    between atoms: C_2  and  C_4
REMARK    2  A    between atoms: C_8  and  N_9
REMARK    3  A    between atoms: N_9  and  C_10
REMARK    4  A    between atoms: C_10  and  C_11
REMARK                            x       y       z     vdW  Elec       q    Type
REMARK                         _______ _______ _______ _____ _____    ______ ____
ROOT
ATOM      1  C   UNL     1      44.569   4.725  10.400  0.00  0.00    +0.000 A 
ATOM      2  C   UNL     1      43.330   4.338  10.912  0.00  0.00    +0.000 A 
ATOM      3  C   UNL     1      42.979   4.701  12.211  0.00  0.00    +0.000 A 
ATOM      4  C   UNL     1      43.874   5.434  12.994  0.00  0.00    +0.000 A 
ATOM      5  C   UNL     1      45.146   5.779  12.514  0.00  0.00    +0.000 A 
ATOM      6  C   UNL     1      45.467   5.447  11.197  0.00  0.00    +0.000 A 
ENDROOT
BRANCH   1   8
ATOM      7  N   UNL     1      45.857   5.075   8.398  0.00  0.00    +0.000 NA
ATOM      8  C   UNL     1      44.957   4.371   9.005  0.00  0.00    +0.000 C 
ATOM      9  N   UNL     1      44.353   3.328   8.366  0.00  0.00    +0.000 N 
ATOM     10  H   UNL     1      46.038   4.681   7.474  0.00  0.00    +0.000 HD
ATOM     11  H   UNL     1      44.402   3.351   7.355  0.00  0.00    +0.000 HD
ATOM     12  H   UNL     1      43.415   3.109   8.687  0.00  0.00    +0.000 HD
ENDBRANCH   1   8
BRANCH   5  13
ATOM     13  N   UNL     1      45.990   6.505  13.365  0.00  0.00    +0.000 N 
ATOM     14  H   UNL     1      45.806   7.503  13.283  0.00  0.00    +0.000 HD
BRANCH  13  15
ATOM     15  C   UNL     1      47.424   6.231  13.279  0.00  0.00    +0.000 C 
BRANCH  15  16
ATOM     16  C   UNL     1      48.138   7.424  12.688  0.00  0.00    +0.000 A 
ATOM     17  C   UNL     1      49.418   7.272  12.131  0.00  0.00    +0.000 A 
ATOM     18  C   UNL     1      50.060   8.347  11.517  0.00  0.00    +0.000 A 
ATOM     19  C   UNL     1      49.430   9.587  11.451  0.00  0.00    +0.000 A 
ATOM     20  C   UNL     1      48.161   9.754  12.004  0.00  0.00    +0.000 A 
ATOM     21  C   UNL     1      47.516   8.678  12.621  0.00  0.00    +0.000 A 
ENDBRANCH  15  16
ENDBRANCH  13  15
ENDBRANCH   5  13
TORSDOF 4
ENDMDL
