MODEL 1
REMARK VINA RESULT:    -8.242      0.000      0.000
REMARK INTER + INTRA:         -11.495
REMARK INTER:                 -10.651
REMARK INTRA:                  -0.845
REMARK UNBOUND:                -0.845
REMARK  Name = 
REMARK  5 active torsions:
REMARK  status: ('A' for Active; 'I' for Inactive)
REMARK    1  A    between atoms: C_2  and  C_4
REMARK    2  A    between atoms: C_8  and  O_9
REMARK    3  A    between atoms: O_9  and  C_10
REMARK    4  A    between atoms: C_10  and  C_11
REMARK    5  A    between atoms: C_16  and  C_17
REMARK                            x       y       z     vdW  Elec       q    Type
REMARK                         _______ _______ _______ _____ _____    ______ ____
ROOT
ATOM      1  C   UNL     1      44.767   4.794  11.807  0.00  0.00    +0.000 A 
ATOM      2  C   UNL     1      45.229   3.929  12.803  0.00  0.00    +0.000 A 
ATOM      3  C   UNL     1      46.291   4.314  13.617  0.00  0.00    +0.000 A 
ATOM      4  C   UNL     1      46.900   5.555  13.431  0.00  0.00    +0.000 A 
ATOM      5  F   UNL     1      47.926   5.864  14.239  0.00  0.00    +0.000 F 
ATOM      6  C   UNL     1      46.481   6.451  12.431  0.00  0.00    +0.000 A 
ATOM      7  C   UNL     1      45.377   6.052  11.651  0.00  0.00    +0.000 A 
ENDROOT
BRANCH   6   8
ATOM      8  C   UNL     1      47.207   7.708  12.119  0.00  0.00    +0.000 A 
ATOM      9  C   UNL     1      46.619   8.967  12.355  0.00  0.00    +0.000 A 
ATOM     10  C   UNL     1      47.330  10.160  12.181  0.00  0.00    +0.000 A 
ATOM     11  C   UNL     1      48.658  10.121  11.772  0.00  0.00    +0.000 A 
ATOM     12  C   UNL     1      49.247   8.893  11.514  0.00  0.00    +0.000 A 
ATOM     13  F   UNL     1      50.531   8.848  11.131  0.00  0.00    +0.000 F 
ATOM     14  C   UNL     1      48.539   7.702  11.669  0.00  0.00    +0.000 A 
ENDBRANCH   6   8
BRANCH   1  15
ATOM     15  C   UNL     1      43.662   4.366  10.870  0.00  0.00    +0.000 C 
BRANCH  15  16
ATOM     16  O   UNL     1      44.017   3.141  10.230  0.00  0.00    +0.000 OA
BRANCH  16  21
ATOM     17  C   UNL     1      46.421   1.980   7.762  0.00  0.00    +0.000 A 
ATOM     18  C   UNL     1      46.879   3.174   7.195  0.00  0.00    +0.000 A 
ATOM     19  C   UNL     1      46.363   4.393   7.631  0.00  0.00    +0.000 A 
ATOM     20  C   UNL     1      45.399   4.425   8.643  0.00  0.00    +0.000 A 
ATOM     21  C   UNL     1      44.946   3.237   9.225  0.00  0.00    +0.000 A 
ATOM     22  C   UNL     1      45.463   2.015   8.784  0.00  0.00    +0.000 A 
BRANCH  17  24
ATOM     23  N   UNL     1      47.699   0.749   6.091  0.00  0.00    +0.000 N 
ATOM     24  C   UNL     1      46.992   0.702   7.260  0.00  0.00    +0.000 C 
ATOM     25  O   UNL     1      46.880  -0.343   7.887  0.00  0.00    +0.000 OA
ATOM     26  H   UNL     1      48.177  -0.101   5.821  0.00  0.00    +0.000 HD
ATOM     27  H   UNL     1      48.017   1.616   5.684  0.00  0.00    +0.000 HD
ENDBRANCH  17  24
ENDBRANCH  16  21
ENDBRANCH  15  16
ENDBRANCH   1  15
TORSDOF 5
ENDMDL
MODEL 2
REMARK VINA RESULT:    -7.965      1.221      1.612
REMARK INTER + INTRA:         -11.138
REMARK INTER:                  -9.996
REMARK INTRA:                  -1.141
REMARK UNBOUND:                -0.845
REMARK  Name = 
REMARK  5 active torsions:
REMARK  status: ('A' for Active; 'I' for Inactive)
REMARK    1  A    between atoms: C_2  and  C_4
REMARK    2  A    between atoms: C_8  and  O_9
REMARK    3  A    between atoms: O_9  and  C_10
REMARK    4  A    between atoms: C_10  and  C_11
REMARK    5  A    between atoms: C_16  and  C_17
REMARK                            x       y       z     vdW  Elec       q    Type
REMARK                         _______ _______ _______ _____ _____    ______ ____
ROOT
ATOM      1  C   UNL     1      44.844   5.050  11.455  0.00  0.00    +0.000 A 
ATOM      2  C   UNL     1      45.063   4.186  12.531  0.00  0.00    +0.000 A 
ATOM      3  C   UNL     1      46.072   4.465  13.449  0.00  0.00    +0.000 A 
ATOM      4  C   UNL     1      46.869   5.598  13.288  0.00  0.00    +0.000 A 
ATOM      5  F   UNL     1      47.832   5.807  14.200  0.00  0.00    +0.000 F 
ATOM      6  C   UNL     1      46.698   6.487  12.212  0.00  0.00    +0.000 A 
ATOM      7  C   UNL     1      45.642   6.201  11.323  0.00  0.00    +0.000 A 
ENDROOT
BRANCH   6   8
ATOM      8  C   UNL     1      47.627   7.612  11.940  0.00  0.00    +0.000 A 
ATOM      9  C   UNL     1      47.244   8.947  12.180  0.00  0.00    +0.000 A 
ATOM     10  C   UNL     1      48.144  10.010  12.044  0.00  0.00    +0.000 A 
ATOM     11  C   UNL     1      49.459   9.761  11.670  0.00  0.00    +0.000 A 
ATOM     12  C   UNL     1      49.848   8.456  11.407  0.00  0.00    +0.000 A 
ATOM     13  F   UNL     1      51.118   8.207  11.057  0.00  0.00    +0.000 F 
ATOM     14  C   UNL     1      48.952   7.394  11.524  0.00  0.00    +0.000 A 
ENDBRANCH   6   8
BRANCH   1  15
ATOM     15  C   UNL     1      43.801   4.727  10.411  0.00  0.00    +0.000 C 
BRANCH  15  16
ATOM     16  O   UNL     1      44.395   4.737   9.113  0.00  0.00    +0.000 OA
BRANCH  16  21
ATOM     17  C   UNL     1      46.554   2.557   7.163  0.00  0.00    +0.000 A 
ATOM     18  C   UNL     1      46.277   1.294   7.697  0.00  0.00    +0.000 A 
ATOM     19  C   UNL     1      45.364   1.166   8.741  0.00  0.00    +0.000 A 
ATOM     20  C   UNL     1      44.715   2.296   9.247  0.00  0.00    +0.000 A 
ATOM     21  C   UNL     1      44.976   3.560   8.710  0.00  0.00    +0.000 A 
ATOM     22  C   UNL     1      45.894   3.687   7.664  0.00  0.00    +0.000 A 
BRANCH  17  24
ATOM     23  N   UNL     1      48.860   2.765   6.401  0.00  0.00    +0.000 N 
ATOM     24  C   UNL     1      47.542   2.648   6.055  0.00  0.00    +0.000 C 
ATOM     25  O   UNL     1      47.203   2.574   4.883  0.00  0.00    +0.000 OA
ATOM     26  H   UNL     1      49.529   2.712   5.643  0.00  0.00    +0.000 HD
ATOM     27  H   UNL     1      49.194   2.584   7.336  0.00  0.00    +0.000 HD
ENDBRANCH  17  24
ENDBRANCH  16  21
ENDBRANCH  15  16
ENDBRANCH   1  15
TORSDOF 5
ENDMDL
MODEL 3
REMARK VINA RESULT:    -7.929      3.947      6.743
REMARK INTER + INTRA:         -11.091
REMARK INTER:                 -10.380
REMARK INTRA:                  -0.711
REMARK UNBOUND:                -0.845
REMARK  Name = 
REMARK  5 active torsions:
REMARK  status: ('A' for Active; 'I' for Inactive)
REMARK    1  A    between atoms: C_2  and  C_4
REMARK    2  A    between atoms: C_8  and  O_9
REMARK    3  A    between atoms: O_9  and  C_10
REMARK    4  A    between atoms: C_10  and  C_11
REMARK    5  A    between atoms: C_16  and  C_17
REMARK                            x       y       z     vdW  Elec       q    Type
REMARK                         _______ _______ _______ _____ _____    ______ ____
ROOT
ATOM      1  C   UNL     1      44.205   5.759  10.899  0.00  0.00    +0.000 A 
ATOM      2  C   UNL     1      43.270   5.057  11.666  0.00  0.00    +0.000 A 
ATOM      3  C   UNL     1      43.124   3.684  11.495  0.00  0.00    +0.000 A 
ATOM      4  C   UNL     1      43.900   3.011  10.552  0.00  0.00    +0.000 A 
ATOM      5  F   UNL     1      43.706   1.689  10.425  0.00  0.00    +0.000 F 
ATOM      6  C   UNL     1      44.840   3.676   9.744  0.00  0.00    +0.000 A 
ATOM      7  C   UNL     1      44.995   5.059   9.969  0.00  0.00    +0.000 A 
ENDROOT
BRANCH   6   8
ATOM      8  C   UNL     1      45.567   3.008   8.635  0.00  0.00    +0.000 A 
ATOM      9  C   UNL     1      46.141   3.755   7.587  0.00  0.00    +0.000 A 
ATOM     10  C   UNL     1      46.931   3.156   6.599  0.00  0.00    +0.000 A 
ATOM     11  C   UNL     1      47.173   1.788   6.640  0.00  0.00    +0.000 A 
ATOM     12  C   UNL     1      46.597   1.033   7.652  0.00  0.00    +0.000 A 
ATOM     13  F   UNL     1      46.837  -0.285   7.704  0.00  0.00    +0.000 F 
ATOM     14  C   UNL     1      45.796   1.621   8.629  0.00  0.00    +0.000 A 
ENDBRANCH   6   8
BRANCH   1  15
ATOM     15  C   UNL     1      44.328   7.259  11.021  0.00  0.00    +0.000 C 
BRANCH  15  16
ATOM     16  O   UNL     1      44.828   7.601  12.313  0.00  0.00    +0.000 OA
BRANCH  16  21
ATOM     17  C   UNL     1      47.281   5.455  13.923  0.00  0.00    +0.000 A 
ATOM     18  C   UNL     1      48.492   5.954  13.434  0.00  0.00    +0.000 A 
ATOM     19  C   UNL     1      48.494   7.018  12.533  0.00  0.00    +0.000 A 
ATOM     20  C   UNL     1      47.286   7.595  12.130  0.00  0.00    +0.000 A 
ATOM     21  C   UNL     1      46.072   7.111  12.624  0.00  0.00    +0.000 A 
ATOM     22  C   UNL     1      46.073   6.042  13.526  0.00  0.00    +0.000 A 
BRANCH  17  24
ATOM     23  N   UNL     1      47.222   4.605  16.206  0.00  0.00    +0.000 N 
ATOM     24  C   UNL     1      47.327   4.313  14.875  0.00  0.00    +0.000 C 
ATOM     25  O   UNL     1      47.405   3.155  14.488  0.00  0.00    +0.000 OA
ATOM     26  H   UNL     1      47.140   3.815  16.834  0.00  0.00    +0.000 HD
ATOM     27  H   UNL     1      46.913   5.506  16.541  0.00  0.00    +0.000 HD
ENDBRANCH  17  24
ENDBRANCH  16  21
ENDBRANCH  15  16
ENDBRANCH   1  15
TORSDOF 5
ENDMDL
MODEL 4
REMARK VINA RESULT:    -7.679      2.368      4.288
REMARK INTER + INTRA:         -10.768
REMARK INTER:                  -9.969
REMARK INTRA:                  -0.799
REMARK UNBOUND:                -0.845
REMARK  Name = 
REMARK  5 active torsions:
REMARK  status: ('A' for Active; 'I' for Inactive)
REMARK    1  A    between atoms: C_2  and  C_4
REMARK    2  A    between atoms: C_8  and  O_9
REMARK    3  A    between atoms: O_9  and  C_10
REMARK    4  A    between atoms: C_10  and  C_11
REMARK    5  A    between atoms: C_16  and  C_17
REMARK                            x       y       z     vdW  Elec       q    Type
REMARK                         _______ _______ _______ _____ _____    ______ ____
ROOT
ATOM      1  C   UNL     1      45.909   5.838  12.026  0.00  0.00    +0.000 A 
ATOM      2  C   UNL     1      46.774   6.729  11.384  0.00  0.00    +0.000 A 
ATOM      3  C   UNL     1      47.984   7.073  11.982  0.00  0.00    +0.000 A 
ATOM      4  C   UNL     1      48.325   6.538  13.224  0.00  0.00    +0.000 A 
ATOM      5  F   UNL     1      49.499   6.916  13.754  0.00  0.00    +0.000 F 
ATOM      6  C   UNL     1      47.480   5.653  13.916  0.00  0.00    +0.000 A 
ATOM      7  C   UNL     1      46.282   5.292  13.267  0.00  0.00    +0.000 A 
ENDROOT
BRANCH   6   8
ATOM      8  C   UNL     1      47.754   5.192  15.300  0.00  0.00    +0.000 A 
ATOM      9  C   UNL     1      48.478   5.994  16.206  0.00  0.00    +0.000 A 
ATOM     10  C   UNL     1      48.643   5.630  17.547  0.00  0.00    +0.000 A 
ATOM     11  C   UNL     1      48.077   4.453  18.020  0.00  0.00    +0.000 A 
ATOM     12  C   UNL     1      47.380   3.639  17.139  0.00  0.00    +0.000 A 
ATOM     13  F   UNL     1      46.821   2.508  17.592  0.00  0.00    +0.000 F 
ATOM     14  C   UNL     1      47.227   3.987  15.798  0.00  0.00    +0.000 A 
ENDBRANCH   6   8
BRANCH   1  15
ATOM     15  C   UNL     1      44.563   5.508  11.426  0.00  0.00    +0.000 C 
BRANCH  15  16
ATOM     16  O   UNL     1      44.674   5.414  10.007  0.00  0.00    +0.000 OA
BRANCH  16  21
ATOM     17  C   UNL     1      46.237   2.908   7.885  0.00  0.00    +0.000 A 
ATOM     18  C   UNL     1      45.624   1.725   8.308  0.00  0.00    +0.000 A 
ATOM     19  C   UNL     1      44.683   1.757   9.335  0.00  0.00    +0.000 A 
ATOM     20  C   UNL     1      44.340   2.973   9.933  0.00  0.00    +0.000 A 
ATOM     21  C   UNL     1      44.937   4.163   9.507  0.00  0.00    +0.000 A 
ATOM     22  C   UNL     1      45.883   4.128   8.478  0.00  0.00    +0.000 A 
BRANCH  17  24
ATOM     23  N   UNL     1      47.050   3.632   5.705  0.00  0.00    +0.000 N 
ATOM     24  C   UNL     1      47.242   2.826   6.793  0.00  0.00    +0.000 C 
ATOM     25  O   UNL     1      48.228   2.107   6.877  0.00  0.00    +0.000 OA
ATOM     26  H   UNL     1      47.797   3.651   5.022  0.00  0.00    +0.000 HD
ATOM     27  H   UNL     1      46.398   4.402   5.709  0.00  0.00    +0.000 HD
ENDBRANCH  17  24
ENDBRANCH  16  21
ENDBRANCH  15  16
ENDBRANCH   1  15
TORSDOF 5
ENDMDL
MODEL 5
REMARK VINA RESULT:    -7.547      4.468      7.652
REMARK INTER + INTRA:         -10.598
REMARK INTER:                  -9.451
REMARK INTRA:                  -1.146
REMARK UNBOUND:                -0.845
REMARK  Name = 
REMARK  5 active torsions:
REMARK  status: ('A' for Active; 'I' for Inactive)
REMARK    1  A    between atoms: C_2  and  C_4
REMARK    2  A    between atoms: C_8  and  O_9
REMARK    3  A    between atoms: O_9  and  C_10
REMARK    4  A    between atoms: C_10  and  C_11
REMARK    5  A    between atoms: C_16  and  C_17
REMARK                            x       y       z     vdW  Elec       q    Type
REMARK                         _______ _______ _______ _____ _____    ______ ____
ROOT
ATOM      1  C   UNL     1      47.278   7.551  12.907  0.00  0.00    +0.000 A 
ATOM      2  C   UNL     1      46.373   8.612  13.009  0.00  0.00    +0.000 A 
ATOM      3  C   UNL     1      45.118   8.512  12.416  0.00  0.00    +0.000 A 
ATOM      4  C   UNL     1      44.768   7.360  11.711  0.00  0.00    +0.000 A 
ATOM      5  F   UNL     1      43.548   7.328  11.153  0.00  0.00    +0.000 F 
ATOM      6  C   UNL     1      45.650   6.274  11.567  0.00  0.00    +0.000 A 
ATOM      7  C   UNL     1      46.898   6.388  12.213  0.00  0.00    +0.000 A 
ENDROOT
BRANCH   6   8
ATOM      8  C   UNL     1      45.356   5.106  10.700  0.00  0.00    +0.000 A 
ATOM      9  C   UNL     1      44.588   4.023  11.172  0.00  0.00    +0.000 A 
ATOM     10  C   UNL     1      44.200   2.971  10.335  0.00  0.00    +0.000 A 
ATOM     11  C   UNL     1      44.565   2.981   8.994  0.00  0.00    +0.000 A 
ATOM     12  C   UNL     1      45.340   4.028   8.516  0.00  0.00    +0.000 A 
ATOM     13  F   UNL     1      45.685   4.050   7.221  0.00  0.00    +0.000 F 
ATOM     14  C   UNL     1      45.744   5.070   9.348  0.00  0.00    +0.000 A 
ENDBRANCH   6   8
BRANCH   1  15
ATOM     15  C   UNL     1      48.668   7.669  13.484  0.00  0.00    +0.000 C 
BRANCH  15  16
ATOM     16  O   UNL     1      49.028   6.453  14.136  0.00  0.00    +0.000 OA
BRANCH  16  21
ATOM     17  C   UNL     1      48.011   4.953  17.289  0.00  0.00    +0.000 A 
ATOM     18  C   UNL     1      48.123   6.021  18.185  0.00  0.00    +0.000 A 
ATOM     19  C   UNL     1      48.563   7.264  17.735  0.00  0.00    +0.000 A 
ATOM     20  C   UNL     1      48.881   7.449  16.387  0.00  0.00    +0.000 A 
ATOM     21  C   UNL     1      48.759   6.391  15.481  0.00  0.00    +0.000 A 
ATOM     22  C   UNL     1      48.319   5.144  15.935  0.00  0.00    +0.000 A 
BRANCH  17  24
ATOM     23  N   UNL     1      48.248   3.100  18.854  0.00  0.00    +0.000 N 
ATOM     24  C   UNL     1      47.546   3.642  17.814  0.00  0.00    +0.000 C 
ATOM     25  O   UNL     1      46.548   3.090  17.372  0.00  0.00    +0.000 OA
ATOM     26  H   UNL     1      47.856   2.268  19.275  0.00  0.00    +0.000 HD
ATOM     27  H   UNL     1      48.912   3.633  19.396  0.00  0.00    +0.000 HD
ENDBRANCH  17  24
ENDBRANCH  16  21
ENDBRANCH  15  16
ENDBRANCH   1  15
TORSDOF 5
ENDMDL
MODEL 6
REMARK VINA RESULT:    -7.545      4.402      7.775
REMARK INTER + INTRA:         -10.594
REMARK INTER:                  -9.442
REMARK INTRA:                  -1.152
REMARK UNBOUND:                -0.845
REMARK  Name = 
REMARK  5 active torsions:
REMARK  status: ('A' for Active; 'I' for Inactive)
REMARK    1  A    between atoms: C_2  and  C_4
REMARK    2  A    between atoms: C_8  and  O_9
REMARK    3  A    between atoms: O_9  and  C_10
REMARK    4  A    between atoms: C_10  and  C_11
REMARK    5  A    between atoms: C_16  and  C_17
REMARK                            x       y       z     vdW  Elec       q    Type
REMARK                         _______ _______ _______ _____ _____    ______ ____
ROOT
ATOM      1  C   UNL     1      47.226   7.680  12.853  0.00  0.00    +0.000 A 
ATOM      2  C   UNL     1      46.474   8.857  12.824  0.00  0.00    +0.000 A 
ATOM      3  C   UNL     1      45.224   8.866  12.212  0.00  0.00    +0.000 A 
ATOM      4  C   UNL     1      44.728   7.705  11.618  0.00  0.00    +0.000 A 
ATOM      5  F   UNL     1      43.522   7.780  11.035  0.00  0.00    +0.000 F 
ATOM      6  C   UNL     1      45.455   6.502  11.607  0.00  0.00    +0.000 A 
ATOM      7  C   UNL     1      46.699   6.512  12.270  0.00  0.00    +0.000 A 
ENDROOT
BRANCH   6   8
ATOM      8  C   UNL     1      45.015   5.301  10.855  0.00  0.00    +0.000 A 
ATOM      9  C   UNL     1      45.453   5.064   9.536  0.00  0.00    +0.000 A 
ATOM     10  C   UNL     1      45.147   3.881   8.855  0.00  0.00    +0.000 A 
ATOM     11  C   UNL     1      44.396   2.895   9.483  0.00  0.00    +0.000 A 
ATOM     12  C   UNL     1      43.935   3.119  10.773  0.00  0.00    +0.000 A 
ATOM     13  F   UNL     1      43.220   2.167  11.389  0.00  0.00    +0.000 F 
ATOM     14  C   UNL     1      44.223   4.303  11.450  0.00  0.00    +0.000 A 
ENDBRANCH   6   8
BRANCH   1  15
ATOM     15  C   UNL     1      48.613   7.668  13.450  0.00  0.00    +0.000 C 
BRANCH  15  16
ATOM     16  O   UNL     1      48.867   6.405  14.064  0.00  0.00    +0.000 OA
BRANCH  16  21
ATOM     17  C   UNL     1      48.014   4.922  17.272  0.00  0.00    +0.000 A 
ATOM     18  C   UNL     1      48.189   5.989  18.158  0.00  0.00    +0.000 A 
ATOM     19  C   UNL     1      48.618   7.227  17.682  0.00  0.00    +0.000 A 
ATOM     20  C   UNL     1      48.860   7.406  16.317  0.00  0.00    +0.000 A 
ATOM     21  C   UNL     1      48.674   6.348  15.422  0.00  0.00    +0.000 A 
ATOM     22  C   UNL     1      48.247   5.107  15.903  0.00  0.00    +0.000 A 
BRANCH  17  24
ATOM     23  N   UNL     1      48.254   3.121  18.896  0.00  0.00    +0.000 N 
ATOM     24  C   UNL     1      47.564   3.617  17.825  0.00  0.00    +0.000 C 
ATOM     25  O   UNL     1      46.588   3.031  17.378  0.00  0.00    +0.000 OA
ATOM     26  H   UNL     1      47.869   2.293  19.333  0.00  0.00    +0.000 HD
ATOM     27  H   UNL     1      48.894   3.683  19.437  0.00  0.00    +0.000 HD
ENDBRANCH  17  24
ENDBRANCH  16  21
ENDBRANCH  15  16
ENDBRANCH   1  15
TORSDOF 5
ENDMDL
MODEL 7
REMARK VINA RESULT:    -7.515      4.119      7.196
REMARK INTER + INTRA:         -10.557
REMARK INTER:                  -9.763
REMARK INTRA:                  -0.794
REMARK UNBOUND:                -0.845
REMARK  Name = 
REMARK  5 active torsions:
REMARK  status: ('A' for Active; 'I' for Inactive)
REMARK    1  A    between atoms: C_2  and  C_4
REMARK    2  A    between atoms: C_8  and  O_9
REMARK    3  A    between atoms: O_9  and  C_10
REMARK    4  A    between atoms: C_10  and  C_11
REMARK    5  A    between atoms: C_16  and  C_17
REMARK                            x       y       z     vdW  Elec       q    Type
REMARK                         _______ _______ _______ _____ _____    ______ ____
ROOT
ATOM      1  C   UNL     1      44.429   6.176  11.536  0.00  0.00    +0.000 A 
ATOM      2  C   UNL     1      43.462   5.533  12.314  0.00  0.00    +0.000 A 
ATOM      3  C   UNL     1      43.166   4.192  12.083  0.00  0.00    +0.000 A 
ATOM      4  C   UNL     1      43.824   3.496  11.070  0.00  0.00    +0.000 A 
ATOM      5  F   UNL     1      43.487   2.210  10.888  0.00  0.00    +0.000 F 
ATOM      6  C   UNL     1      44.791   4.105  10.250  0.00  0.00    +0.000 A 
ATOM      7  C   UNL     1      45.100   5.451  10.535  0.00  0.00    +0.000 A 
ENDROOT
BRANCH   6   8
ATOM      8  C   UNL     1      45.393   3.428   9.074  0.00  0.00    +0.000 A 
ATOM      9  C   UNL     1      45.930   4.169   8.002  0.00  0.00    +0.000 A 
ATOM     10  C   UNL     1      46.609   3.554   6.944  0.00  0.00    +0.000 A 
ATOM     11  C   UNL     1      46.774   2.175   6.936  0.00  0.00    +0.000 A 
ATOM     12  C   UNL     1      46.233   1.426   7.971  0.00  0.00    +0.000 A 
ATOM     13  F   UNL     1      46.400   0.096   7.975  0.00  0.00    +0.000 F 
ATOM     14  C   UNL     1      45.542   2.031   9.019  0.00  0.00    +0.000 A 
ENDBRANCH   6   8
BRANCH   1  15
ATOM     15  C   UNL     1      44.713   7.647  11.726  0.00  0.00    +0.000 C 
BRANCH  15  16
ATOM     16  O   UNL     1      45.539   7.838  12.874  0.00  0.00    +0.000 OA
BRANCH  16  21
ATOM     17  C   UNL     1      48.763   9.136  11.806  0.00  0.00    +0.000 A 
ATOM     18  C   UNL     1      49.625   8.066  12.065  0.00  0.00    +0.000 A 
ATOM     19  C   UNL     1      49.127   6.891  12.625  0.00  0.00    +0.000 A 
ATOM     20  C   UNL     1      47.764   6.777  12.915  0.00  0.00    +0.000 A 
ATOM     21  C   UNL     1      46.893   7.836  12.646  0.00  0.00    +0.000 A 
ATOM     22  C   UNL     1      47.396   9.015  12.086  0.00  0.00    +0.000 A 
BRANCH  17  24
ATOM     23  N   UNL     1      48.478  11.221  10.577  0.00  0.00    +0.000 N 
ATOM     24  C   UNL     1      49.339  10.374  11.216  0.00  0.00    +0.000 C 
ATOM     25  O   UNL     1      50.524  10.653  11.336  0.00  0.00    +0.000 OA
ATOM     26  H   UNL     1      48.860  12.111  10.281  0.00  0.00    +0.000 HD
ATOM     27  H   UNL     1      47.476  11.149  10.671  0.00  0.00    +0.000 HD
ENDBRANCH  17  24
ENDBRANCH  16  21
ENDBRANCH  15  16
ENDBRANCH   1  15
TORSDOF 5
ENDMDL
MODEL 8
REMARK VINA RESULT:    -7.380      4.793      7.791
REMARK INTER + INTRA:         -10.382
REMARK INTER:                  -9.618
REMARK INTRA:                  -0.764
REMARK UNBOUND:                -0.845
REMARK  Name = 
REMARK  5 active torsions:
REMARK  status: ('A' for Active; 'I' for Inactive)
REMARK    1  A    between atoms: C_2  and  C_4
REMARK    2  A    between atoms: C_8  and  O_9
REMARK    3  A    between atoms: O_9  and  C_10
REMARK    4  A    between atoms: C_10  and  C_11
REMARK    5  A    between atoms: C_16  and  C_17
REMARK                            x       y       z     vdW  Elec       q    Type
REMARK                         _______ _______ _______ _____ _____    ______ ____
ROOT
ATOM      1  C   UNL     1      45.837   4.874  13.182  0.00  0.00    +0.000 A 
ATOM      2  C   UNL     1      44.674   5.629  13.356  0.00  0.00    +0.000 A 
ATOM      3  C   UNL     1      43.727   5.687  12.336  0.00  0.00    +0.000 A 
ATOM      4  C   UNL     1      43.947   5.004  11.140  0.00  0.00    +0.000 A 
ATOM      5  F   UNL     1      43.003   5.108  10.191  0.00  0.00    +0.000 F 
ATOM      6  C   UNL     1      45.109   4.247  10.913  0.00  0.00    +0.000 A 
ATOM      7  C   UNL     1      46.029   4.173  11.978  0.00  0.00    +0.000 A 
ENDROOT
BRANCH   6   8
ATOM      8  C   UNL     1      45.431   3.637   9.598  0.00  0.00    +0.000 A 
ATOM      9  C   UNL     1      45.795   4.434   8.494  0.00  0.00    +0.000 A 
ATOM     10  C   UNL     1      46.217   3.873   7.284  0.00  0.00    +0.000 A 
ATOM     11  C   UNL     1      46.293   2.492   7.150  0.00  0.00    +0.000 A 
ATOM     12  C   UNL     1      45.918   1.690   8.218  0.00  0.00    +0.000 A 
ATOM     13  F   UNL     1      46.001   0.358   8.099  0.00  0.00    +0.000 F 
ATOM     14  C   UNL     1      45.480   2.243   9.420  0.00  0.00    +0.000 A 
ENDBRANCH   6   8
BRANCH   1  15
ATOM     15  C   UNL     1      46.906   4.855  14.249  0.00  0.00    +0.000 C 
BRANCH  15  16
ATOM     16  O   UNL     1      46.554   3.927  15.273  0.00  0.00    +0.000 OA
BRANCH  16  21
ATOM     17  C   UNL     1      49.376   3.087  17.406  0.00  0.00    +0.000 A 
ATOM     18  C   UNL     1      49.098   3.800  18.576  0.00  0.00    +0.000 A 
ATOM     19  C   UNL     1      47.955   4.593  18.653  0.00  0.00    +0.000 A 
ATOM     20  C   UNL     1      47.079   4.666  17.565  0.00  0.00    +0.000 A 
ATOM     21  C   UNL     1      47.342   3.945  16.397  0.00  0.00    +0.000 A 
ATOM     22  C   UNL     1      48.491   3.152  16.322  0.00  0.00    +0.000 A 
BRANCH  17  24
ATOM     23  N   UNL     1      51.697   2.725  18.054  0.00  0.00    +0.000 N 
ATOM     24  C   UNL     1      50.612   2.260  17.366  0.00  0.00    +0.000 C 
ATOM     25  O   UNL     1      50.648   1.185  16.784  0.00  0.00    +0.000 OA
ATOM     26  H   UNL     1      52.492   2.101  18.113  0.00  0.00    +0.000 HD
ATOM     27  H   UNL     1      51.631   3.467  18.735  0.00  0.00    +0.000 HD
ENDBRANCH  17  24
ENDBRANCH  16  21
ENDBRANCH  15  16
ENDBRANCH   1  15
TORSDOF 5
ENDMDL
MODEL 9
REMARK VINA RESULT:    -7.237      5.055      8.232
REMARK INTER + INTRA:         -10.196
REMARK INTER:                  -9.393
REMARK INTRA:                  -0.803
REMARK UNBOUND:                -0.845
REMARK  Name = 
REMARK  5 active torsions:
REMARK  status: ('A' for Active; 'I' for Inactive)
REMARK    1  A    between atoms: C_2  and  C_4
REMARK    2  A    between atoms: C_8  and  O_9
REMARK    3  A    between atoms: O_9  and  C_10
REMARK    4  A    between atoms: C_10  and  C_11
REMARK    5  A    between atoms: C_16  and  C_17
REMARK                            x       y       z     vdW  Elec       q    Type
REMARK                         _______ _______ _______ _____ _____    ______ ____
ROOT
ATOM      1  C   UNL     1      45.693   4.952  13.131  0.00  0.00    +0.000 A 
ATOM      2  C   UNL     1      44.528   5.716  13.248  0.00  0.00    +0.000 A 
ATOM      3  C   UNL     1      43.618   5.757  12.196  0.00  0.00    +0.000 A 
ATOM      4  C   UNL     1      43.873   5.046  11.023  0.00  0.00    +0.000 A 
ATOM      5  F   UNL     1      42.963   5.134  10.040  0.00  0.00    +0.000 F 
ATOM      6  C   UNL     1      45.038   4.278  10.852  0.00  0.00    +0.000 A 
ATOM      7  C   UNL     1      45.921   4.223  11.950  0.00  0.00    +0.000 A 
ENDROOT
BRANCH   6   8
ATOM      8  C   UNL     1      45.401   3.637   9.564  0.00  0.00    +0.000 A 
ATOM      9  C   UNL     1      45.827   4.406   8.462  0.00  0.00    +0.000 A 
ATOM     10  C   UNL     1      46.287   3.813   7.280  0.00  0.00    +0.000 A 
ATOM     11  C   UNL     1      46.339   2.429   7.174  0.00  0.00    +0.000 A 
ATOM     12  C   UNL     1      45.902   1.655   8.240  0.00  0.00    +0.000 A 
ATOM     13  F   UNL     1      45.961   0.319   8.148  0.00  0.00    +0.000 F 
ATOM     14  C   UNL     1      45.427   2.239   9.413  0.00  0.00    +0.000 A 
ENDBRANCH   6   8
BRANCH   1  15
ATOM     15  C   UNL     1      46.724   4.951  14.234  0.00  0.00    +0.000 C 
BRANCH  15  16
ATOM     16  O   UNL     1      46.739   3.682  14.885  0.00  0.00    +0.000 OA
BRANCH  16  21
ATOM     17  C   UNL     1      48.108   4.631  18.116  0.00  0.00    +0.000 A 
ATOM     18  C   UNL     1      49.056   3.631  18.353  0.00  0.00    +0.000 A 
ATOM     19  C   UNL     1      49.232   2.606  17.425  0.00  0.00    +0.000 A 
ATOM     20  C   UNL     1      48.472   2.585  16.252  0.00  0.00    +0.000 A 
ATOM     21  C   UNL     1      47.532   3.589  16.001  0.00  0.00    +0.000 A 
ATOM     22  C   UNL     1      47.355   4.614  16.935  0.00  0.00    +0.000 A 
BRANCH  17  24
ATOM     23  N   UNL     1      46.890   5.590  19.997  0.00  0.00    +0.000 N 
ATOM     24  C   UNL     1      47.947   5.701  19.137  0.00  0.00    +0.000 C 
ATOM     25  O   UNL     1      48.750   6.617  19.241  0.00  0.00    +0.000 OA
ATOM     26  H   UNL     1      46.857   6.259  20.756  0.00  0.00    +0.000 HD
ATOM     27  H   UNL     1      46.362   4.736  20.100  0.00  0.00    +0.000 HD
ENDBRANCH  17  24
ENDBRANCH  16  21
ENDBRANCH  15  16
ENDBRANCH   1  15
TORSDOF 5
ENDMDL
