MODEL 1
REMARK VINA RESULT:    -7.303      0.000      0.000
REMARK INTER + INTRA:          -9.823
REMARK INTER:                  -9.438
REMARK INTRA:                  -0.385
REMARK UNBOUND:                -0.385
REMARK  Name = 
REMARK  9 active torsions:
REMARK  status: ('A' for Active; 'I' for Inactive)
REMARK    1  A    between atoms: C_1  and  C_2
REMARK    2  A    between atoms: C_5  and  C_6
REMARK    3  A    between atoms: C_6  and  O_7
REMARK    4  A    between atoms: O_7  and  C_8
REMARK    5  A    between atoms: C_11  and  C_12
REMARK    6  A    between atoms: C_12  and  C_14
REMARK    7  A    between atoms: C_14  and  C_15
REMARK    8  A    between atoms: C_14  and  C_16
REMARK    9  A    between atoms: C_14  and  C_17
REMARK                            x       y       z     vdW  Elec       q    Type
REMARK                         _______ _______ _______ _____ _____    ______ ____
ROOT
ATOM      1  C   UNL     1      44.954   3.857  12.384  0.00  0.00    +0.000 A 
ATOM      2  C   UNL     1      44.848   5.221  12.604  0.00  0.00    +0.000 A 
ATOM      3  N   UNL     1      45.770   5.922  13.305  0.00  0.00    +0.000 NA
ATOM      4  C   UNL     1      46.793   5.196  13.817  0.00  0.00    +0.000 A 
ATOM      5  C   UNL     1      46.880   3.823  13.625  0.00  0.00    +0.000 A 
ATOM      6  N   UNL     1      45.965   3.120  12.897  0.00  0.00    +0.000 NA
ENDROOT
BRANCH   4   7
ATOM      7  C   UNL     1      47.855   5.908  14.583  0.00  0.00    +0.000 C 
ATOM      8  O   UNL     1      48.171   5.448  15.681  0.00  0.00    +0.000 OA
BRANCH   7   9
ATOM      9  C   UNL     1      48.568   7.139  13.968  0.00  0.00    +0.000 C 
ATOM     10  C   UNL     1      47.764   8.435  14.150  0.00  0.00    +0.000 C 
ATOM     11  C   UNL     1      49.925   7.337  14.680  0.00  0.00    +0.000 C 
ATOM     12  C   UNL     1      48.858   6.881  12.481  0.00  0.00    +0.000 C 
ENDBRANCH   7   9
ENDBRANCH   4   7
BRANCH   1  13
ATOM     13  O   UNL     1      43.976   3.261  11.626  0.00  0.00    +0.000 OA
BRANCH  13  14
ATOM     14  C   UNL     1      43.746   3.948  10.396  0.00  0.00    +0.000 C 
BRANCH  14  19
ATOM     15  C   UNL     1      47.607   2.036   6.469  0.00  0.00    +0.000 C 
ATOM     16  C   UNL     1      46.630   2.537   7.492  0.00  0.00    +0.000 A 
ATOM     17  C   UNL     1      46.376   3.903   7.632  0.00  0.00    +0.000 A 
ATOM     18  C   UNL     1      45.452   4.358   8.575  0.00  0.00    +0.000 A 
ATOM     19  C   UNL     1      44.767   3.453   9.398  0.00  0.00    +0.000 A 
ATOM     20  C   UNL     1      45.029   2.084   9.262  0.00  0.00    +0.000 A 
ATOM     21  C   UNL     1      45.952   1.630   8.316  0.00  0.00    +0.000 A 
ENDBRANCH  14  19
ENDBRANCH  13  14
ENDBRANCH   1  13
TORSDOF 5
ENDMDL
MODEL 2
REMARK VINA RESULT:    -7.297      0.086      1.056
REMARK INTER + INTRA:          -9.815
REMARK INTER:                  -9.467
REMARK INTRA:                  -0.348
REMARK UNBOUND:                -0.385
REMARK  Name = 
REMARK  9 active torsions:
REMARK  status: ('A' for Active; 'I' for Inactive)
REMARK    1  A    between atoms: C_1  and  C_2
REMARK    2  A    between atoms: C_5  and  C_6
REMARK    3  A    between atoms: C_6  and  O_7
REMARK    4  A    between atoms: O_7  and  C_8
REMARK    5  A    between atoms: C_11  and  C_12
REMARK    6  A    between atoms: C_12  and  C_14
REMARK    7  A    between atoms: C_14  and  C_15
REMARK    8  A    between atoms: C_14  and  C_16
REMARK    9  A    between atoms: C_14  and  C_17
REMARK                            x       y       z     vdW  Elec       q    Type
REMARK                         _______ _______ _______ _____ _____    ______ ____
ROOT
ATOM      1  C   UNL     1      44.967   3.932  12.390  0.00  0.00    +0.000 A 
ATOM      2  C   UNL     1      44.903   5.299  12.604  0.00  0.00    +0.000 A 
ATOM      3  N   UNL     1      45.841   5.972  13.311  0.00  0.00    +0.000 NA
ATOM      4  C   UNL     1      46.835   5.216  13.835  0.00  0.00    +0.000 A 
ATOM      5  C   UNL     1      46.879   3.840  13.649  0.00  0.00    +0.000 A 
ATOM      6  N   UNL     1      45.949   3.164  12.915  0.00  0.00    +0.000 NA
ENDROOT
BRANCH   4   7
ATOM      7  C   UNL     1      47.912   5.896  14.609  0.00  0.00    +0.000 C 
ATOM      8  O   UNL     1      48.233   5.405  15.692  0.00  0.00    +0.000 OA
BRANCH   7   9
ATOM      9  C   UNL     1      48.634   7.134  14.019  0.00  0.00    +0.000 C 
ATOM     10  C   UNL     1      47.808   8.420  14.165  0.00  0.00    +0.000 C 
ATOM     11  C   UNL     1      49.960   7.349  14.782  0.00  0.00    +0.000 C 
ATOM     12  C   UNL     1      48.985   6.875  12.545  0.00  0.00    +0.000 C 
ENDBRANCH   7   9
ENDBRANCH   4   7
BRANCH   1  13
ATOM     13  O   UNL     1      43.977   3.365  11.624  0.00  0.00    +0.000 OA
BRANCH  13  14
ATOM     14  C   UNL     1      43.770   4.063  10.397  0.00  0.00    +0.000 C 
BRANCH  14  19
ATOM     15  C   UNL     1      47.629   1.941   6.577  0.00  0.00    +0.000 C 
ATOM     16  C   UNL     1      46.619   2.479   7.547  0.00  0.00    +0.000 A 
ATOM     17  C   UNL     1      45.903   1.621   8.386  0.00  0.00    +0.000 A 
ATOM     18  C   UNL     1      44.978   2.132   9.299  0.00  0.00    +0.000 A 
ATOM     19  C   UNL     1      44.750   3.512   9.387  0.00  0.00    +0.000 A 
ATOM     20  C   UNL     1      45.464   4.371   8.541  0.00  0.00    +0.000 A 
ATOM     21  C   UNL     1      46.391   3.857   7.630  0.00  0.00    +0.000 A 
ENDBRANCH  14  19
ENDBRANCH  13  14
ENDBRANCH   1  13
TORSDOF 5
ENDMDL
MODEL 3
REMARK VINA RESULT:    -6.772      1.560      2.264
REMARK INTER + INTRA:          -9.137
REMARK INTER:                  -8.613
REMARK INTRA:                  -0.524
REMARK UNBOUND:                -0.385
REMARK  Name = 
REMARK  9 active torsions:
REMARK  status: ('A' for Active; 'I' for Inactive)
REMARK    1  A    between atoms: C_1  and  C_2
REMARK    2  A    between atoms: C_5  and  C_6
REMARK    3  A    between atoms: C_6  and  O_7
REMARK    4  A    between atoms: O_7  and  C_8
REMARK    5  A    between atoms: C_11  and  C_12
REMARK    6  A    between atoms: C_12  and  C_14
REMARK    7  A    between atoms: C_14  and  C_15
REMARK    8  A    between atoms: C_14  and  C_16
REMARK    9  A    between atoms: C_14  and  C_17
REMARK                            x       y       z     vdW  Elec       q    Type
REMARK                         _______ _______ _______ _____ _____    ______ ____
ROOT
ATOM      1  C   UNL     1      45.119   5.158  11.825  0.00  0.00    +0.000 A 
ATOM      2  C   UNL     1      44.917   6.475  11.444  0.00  0.00    +0.000 A 
ATOM      3  N   UNL     1      45.697   7.491  11.886  0.00  0.00    +0.000 NA
ATOM      4  C   UNL     1      46.670   7.145  12.762  0.00  0.00    +0.000 A 
ATOM      5  C   UNL     1      46.848   5.828  13.170  0.00  0.00    +0.000 A 
ATOM      6  N   UNL     1      46.081   4.801  12.706  0.00  0.00    +0.000 NA
ENDROOT
BRANCH   4   7
ATOM      7  C   UNL     1      47.577   8.211  13.273  0.00  0.00    +0.000 C 
ATOM      8  O   UNL     1      47.375   8.634  14.412  0.00  0.00    +0.000 OA
BRANCH   7   9
ATOM      9  C   UNL     1      48.766   8.704  12.410  0.00  0.00    +0.000 C 
ATOM     10  C   UNL     1      49.235   7.646  11.398  0.00  0.00    +0.000 C 
ATOM     11  C   UNL     1      48.318   9.944  11.605  0.00  0.00    +0.000 C 
ATOM     12  C   UNL     1      49.924   9.137  13.322  0.00  0.00    +0.000 C 
ENDBRANCH   7   9
ENDBRANCH   4   7
BRANCH   1  13
ATOM     13  O   UNL     1      44.287   4.209  11.282  0.00  0.00    +0.000 OA
BRANCH  13  14
ATOM     14  C   UNL     1      43.958   4.488   9.922  0.00  0.00    +0.000 C 
BRANCH  14  19
ATOM     15  C   UNL     1      47.643   1.388   6.636  0.00  0.00    +0.000 C 
ATOM     16  C   UNL     1      46.677   2.177   7.470  0.00  0.00    +0.000 A 
ATOM     17  C   UNL     1      45.867   1.547   8.418  0.00  0.00    +0.000 A 
ATOM     18  C   UNL     1      44.984   2.292   9.203  0.00  0.00    +0.000 A 
ATOM     19  C   UNL     1      44.893   3.682   9.050  0.00  0.00    +0.000 A 
ATOM     20  C   UNL     1      45.700   4.312   8.094  0.00  0.00    +0.000 A 
ATOM     21  C   UNL     1      46.585   3.565   7.311  0.00  0.00    +0.000 A 
ENDBRANCH  14  19
ENDBRANCH  13  14
ENDBRANCH   1  13
TORSDOF 5
ENDMDL
MODEL 4
REMARK VINA RESULT:    -6.308      1.758      2.385
REMARK INTER + INTRA:          -8.537
REMARK INTER:                  -8.351
REMARK INTRA:                  -0.186
REMARK UNBOUND:                -0.385
REMARK  Name = 
REMARK  9 active torsions:
REMARK  status: ('A' for Active; 'I' for Inactive)
REMARK    1  A    between atoms: C_1  and  C_2
REMARK    2  A    between atoms: C_5  and  C_6
REMARK    3  A    between atoms: C_6  and  O_7
REMARK    4  A    between atoms: O_7  and  C_8
REMARK    5  A    between atoms: C_11  and  C_12
REMARK    6  A    between atoms: C_12  and  C_14
REMARK    7  A    between atoms: C_14  and  C_15
REMARK    8  A    between atoms: C_14  and  C_16
REMARK    9  A    between atoms: C_14  and  C_17
REMARK                            x       y       z     vdW  Elec       q    Type
REMARK                         _______ _______ _______ _____ _____    ______ ____
ROOT
ATOM      1  C   UNL     1      45.561   5.515  12.279  0.00  0.00    +0.000 A 
ATOM      2  C   UNL     1      44.954   4.747  13.259  0.00  0.00    +0.000 A 
ATOM      3  N   UNL     1      45.635   4.229  14.308  0.00  0.00    +0.000 NA
ATOM      4  C   UNL     1      46.967   4.475  14.321  0.00  0.00    +0.000 A 
ATOM      5  C   UNL     1      47.581   5.215  13.318  0.00  0.00    +0.000 A 
ATOM      6  N   UNL     1      46.891   5.760  12.275  0.00  0.00    +0.000 NA
ENDROOT
BRANCH   4   7
ATOM      7  C   UNL     1      47.775   3.950  15.459  0.00  0.00    +0.000 C 
ATOM      8  O   UNL     1      48.136   2.773  15.406  0.00  0.00    +0.000 OA
BRANCH   7   9
ATOM      9  C   UNL     1      48.190   4.889  16.619  0.00  0.00    +0.000 C 
ATOM     10  C   UNL     1      48.443   6.329  16.147  0.00  0.00    +0.000 C 
ATOM     11  C   UNL     1      47.046   4.938  17.655  0.00  0.00    +0.000 C 
ATOM     12  C   UNL     1      49.431   4.321  17.326  0.00  0.00    +0.000 C 
ENDBRANCH   7   9
ENDBRANCH   4   7
BRANCH   1  13
ATOM     13  O   UNL     1      44.760   6.018  11.283  0.00  0.00    +0.000 OA
BRANCH  13  14
ATOM     14  C   UNL     1      43.877   5.034  10.745  0.00  0.00    +0.000 C 
BRANCH  14  19
ATOM     15  C   UNL     1      46.879   1.719   7.004  0.00  0.00    +0.000 C 
ATOM     16  C   UNL     1      46.125   2.578   7.977  0.00  0.00    +0.000 A 
ATOM     17  C   UNL     1      46.200   3.972   7.910  0.00  0.00    +0.000 A 
ATOM     18  C   UNL     1      45.482   4.763   8.809  0.00  0.00    +0.000 A 
ATOM     19  C   UNL     1      44.677   4.174   9.794  0.00  0.00    +0.000 A 
ATOM     20  C   UNL     1      44.609   2.776   9.864  0.00  0.00    +0.000 A 
ATOM     21  C   UNL     1      45.326   1.986   8.962  0.00  0.00    +0.000 A 
ENDBRANCH  14  19
ENDBRANCH  13  14
ENDBRANCH   1  13
TORSDOF 5
ENDMDL
MODEL 5
REMARK VINA RESULT:    -6.109      2.594      3.459
REMARK INTER + INTRA:          -8.280
REMARK INTER:                  -7.842
REMARK INTRA:                  -0.438
REMARK UNBOUND:                -0.385
REMARK  Name = 
REMARK  9 active torsions:
REMARK  status: ('A' for Active; 'I' for Inactive)
REMARK    1  A    between atoms: C_1  and  C_2
REMARK    2  A    between atoms: C_5  and  C_6
REMARK    3  A    between atoms: C_6  and  O_7
REMARK    4  A    between atoms: O_7  and  C_8
REMARK    5  A    between atoms: C_11  and  C_12
REMARK    6  A    between atoms: C_12  and  C_14
REMARK    7  A    between atoms: C_14  and  C_15
REMARK    8  A    between atoms: C_14  and  C_16
REMARK    9  A    between atoms: C_14  and  C_17
REMARK                            x       y       z     vdW  Elec       q    Type
REMARK                         _______ _______ _______ _____ _____    ______ ____
ROOT
ATOM      1  C   UNL     1      46.686   5.516  13.751  0.00  0.00    +0.000 A 
ATOM      2  C   UNL     1      47.726   6.316  14.194  0.00  0.00    +0.000 A 
ATOM      3  N   UNL     1      48.465   6.015  15.289  0.00  0.00    +0.000 NA
ATOM      4  C   UNL     1      48.097   4.894  15.954  0.00  0.00    +0.000 A 
ATOM      5  C   UNL     1      47.031   4.111  15.528  0.00  0.00    +0.000 A 
ATOM      6  N   UNL     1      46.303   4.399  14.411  0.00  0.00    +0.000 NA
ENDROOT
BRANCH   4   7
ATOM      7  C   UNL     1      48.881   4.492  17.157  0.00  0.00    +0.000 C 
ATOM      8  O   UNL     1      49.718   3.599  17.019  0.00  0.00    +0.000 OA
BRANCH   7   9
ATOM      9  C   UNL     1      48.679   5.234  18.502  0.00  0.00    +0.000 C 
ATOM     10  C   UNL     1      47.252   5.778  18.664  0.00  0.00    +0.000 C 
ATOM     11  C   UNL     1      48.928   4.243  19.660  0.00  0.00    +0.000 C 
ATOM     12  C   UNL     1      49.712   6.365  18.630  0.00  0.00    +0.000 C 
ENDBRANCH   7   9
ENDBRANCH   4   7
BRANCH   1  13
ATOM     13  O   UNL     1      46.032   5.904  12.607  0.00  0.00    +0.000 OA
BRANCH  13  14
ATOM     14  C   UNL     1      44.935   5.048  12.291  0.00  0.00    +0.000 C 
BRANCH  14  19
ATOM     15  C   UNL     1      45.824   3.068   6.880  0.00  0.00    +0.000 C 
ATOM     16  C   UNL     1      45.573   3.577   8.269  0.00  0.00    +0.000 A 
ATOM     17  C   UNL     1      45.032   2.744   9.251  0.00  0.00    +0.000 A 
ATOM     18  C   UNL     1      44.819   3.222  10.546  0.00  0.00    +0.000 A 
ATOM     19  C   UNL     1      45.140   4.545  10.881  0.00  0.00    +0.000 A 
ATOM     20  C   UNL     1      45.674   5.381   9.892  0.00  0.00    +0.000 A 
ATOM     21  C   UNL     1      45.890   4.900   8.598  0.00  0.00    +0.000 A 
ENDBRANCH  14  19
ENDBRANCH  13  14
ENDBRANCH   1  13
TORSDOF 5
ENDMDL
MODEL 6
REMARK VINA RESULT:    -6.076      2.326      3.245
REMARK INTER + INTRA:          -8.237
REMARK INTER:                  -7.969
REMARK INTRA:                  -0.269
REMARK UNBOUND:                -0.385
REMARK  Name = 
REMARK  9 active torsions:
REMARK  status: ('A' for Active; 'I' for Inactive)
REMARK    1  A    between atoms: C_1  and  C_2
REMARK    2  A    between atoms: C_5  and  C_6
REMARK    3  A    between atoms: C_6  and  O_7
REMARK    4  A    between atoms: O_7  and  C_8
REMARK    5  A    between atoms: C_11  and  C_12
REMARK    6  A    between atoms: C_12  and  C_14
REMARK    7  A    between atoms: C_14  and  C_15
REMARK    8  A    between atoms: C_14  and  C_16
REMARK    9  A    between atoms: C_14  and  C_17
REMARK                            x       y       z     vdW  Elec       q    Type
REMARK                         _______ _______ _______ _____ _____    ______ ____
ROOT
ATOM      1  C   UNL     1      46.614   4.449  14.486  0.00  0.00    +0.000 A 
ATOM      2  C   UNL     1      47.354   5.518  14.008  0.00  0.00    +0.000 A 
ATOM      3  N   UNL     1      48.345   6.100  14.725  0.00  0.00    +0.000 NA
ATOM      4  C   UNL     1      48.545   5.595  15.966  0.00  0.00    +0.000 A 
ATOM      5  C   UNL     1      47.778   4.545  16.457  0.00  0.00    +0.000 A 
ATOM      6  N   UNL     1      46.798   3.941  15.726  0.00  0.00    +0.000 NA
ENDROOT
BRANCH   4   7
ATOM      7  C   UNL     1      49.633   6.176  16.802  0.00  0.00    +0.000 C 
ATOM      8  O   UNL     1      50.777   5.755  16.621  0.00  0.00    +0.000 OA
BRANCH   7   9
ATOM      9  C   UNL     1      49.322   7.314  17.807  0.00  0.00    +0.000 C 
ATOM     10  C   UNL     1      48.488   6.830  19.002  0.00  0.00    +0.000 C 
ATOM     11  C   UNL     1      50.653   7.863  18.366  0.00  0.00    +0.000 C 
ATOM     12  C   UNL     1      48.614   8.468  17.079  0.00  0.00    +0.000 C 
ENDBRANCH   7   9
ENDBRANCH   4   7
BRANCH   1  13
ATOM     13  O   UNL     1      45.660   3.917  13.653  0.00  0.00    +0.000 OA
BRANCH  13  14
ATOM     14  C   UNL     1      44.985   4.918  12.891  0.00  0.00    +0.000 C 
BRANCH  14  19
ATOM     15  C   UNL     1      45.532   3.412   7.285  0.00  0.00    +0.000 C 
ATOM     16  C   UNL     1      45.368   3.800   8.726  0.00  0.00    +0.000 A 
ATOM     17  C   UNL     1      44.885   2.884   9.664  0.00  0.00    +0.000 A 
ATOM     18  C   UNL     1      44.753   3.248  11.006  0.00  0.00    +0.000 A 
ATOM     19  C   UNL     1      45.101   4.537  11.433  0.00  0.00    +0.000 A 
ATOM     20  C   UNL     1      45.578   5.456  10.489  0.00  0.00    +0.000 A 
ATOM     21  C   UNL     1      45.712   5.089   9.147  0.00  0.00    +0.000 A 
ENDBRANCH  14  19
ENDBRANCH  13  14
ENDBRANCH   1  13
TORSDOF 5
ENDMDL
MODEL 7
REMARK VINA RESULT:    -5.919      3.746      7.728
REMARK INTER + INTRA:          -8.034
REMARK INTER:                  -7.706
REMARK INTRA:                  -0.328
REMARK UNBOUND:                -0.385
REMARK  Name = 
REMARK  9 active torsions:
REMARK  status: ('A' for Active; 'I' for Inactive)
REMARK    1  A    between atoms: C_1  and  C_2
REMARK    2  A    between atoms: C_5  and  C_6
REMARK    3  A    between atoms: C_6  and  O_7
REMARK    4  A    between atoms: O_7  and  C_8
REMARK    5  A    between atoms: C_11  and  C_12
REMARK    6  A    between atoms: C_12  and  C_14
REMARK    7  A    between atoms: C_14  and  C_15
REMARK    8  A    between atoms: C_14  and  C_16
REMARK    9  A    between atoms: C_14  and  C_17
REMARK                            x       y       z     vdW  Elec       q    Type
REMARK                         _______ _______ _______ _____ _____    ______ ____
ROOT
ATOM      1  C   UNL     1      47.727   4.545  15.134  0.00  0.00    +0.000 A 
ATOM      2  C   UNL     1      47.390   5.799  14.651  0.00  0.00    +0.000 A 
ATOM      3  N   UNL     1      46.601   5.977  13.565  0.00  0.00    +0.000 NA
ATOM      4  C   UNL     1      46.188   4.843  12.949  0.00  0.00    +0.000 A 
ATOM      5  C   UNL     1      46.556   3.586  13.414  0.00  0.00    +0.000 A 
ATOM      6  N   UNL     1      47.329   3.406  14.523  0.00  0.00    +0.000 NA
ENDROOT
BRANCH   4   7
ATOM      7  C   UNL     1      45.300   4.965  11.759  0.00  0.00    +0.000 C 
ATOM      8  O   UNL     1      45.805   5.366  10.709  0.00  0.00    +0.000 OA
BRANCH   7   9
ATOM      9  C   UNL     1      43.814   4.532  11.846  0.00  0.00    +0.000 C 
ATOM     10  C   UNL     1      43.290   4.521  13.289  0.00  0.00    +0.000 C 
ATOM     11  C   UNL     1      42.953   5.538  11.050  0.00  0.00    +0.000 C 
ATOM     12  C   UNL     1      43.638   3.152  11.191  0.00  0.00    +0.000 C 
ENDBRANCH   7   9
ENDBRANCH   4   7
BRANCH   1  13
ATOM     13  O   UNL     1      48.504   4.491  16.265  0.00  0.00    +0.000 OA
BRANCH  13  14
ATOM     14  C   UNL     1      48.499   3.196  16.866  0.00  0.00    +0.000 C 
BRANCH  14  19
ATOM     15  C   UNL     1      53.995   2.042  18.433  0.00  0.00    +0.000 C 
ATOM     16  C   UNL     1      52.575   2.339  18.052  0.00  0.00    +0.000 A 
ATOM     17  C   UNL     1      52.023   3.604  18.274  0.00  0.00    +0.000 A 
ATOM     18  C   UNL     1      50.705   3.877  17.899  0.00  0.00    +0.000 A 
ATOM     19  C   UNL     1      49.915   2.888  17.297  0.00  0.00    +0.000 A 
ATOM     20  C   UNL     1      50.467   1.618  17.083  0.00  0.00    +0.000 A 
ATOM     21  C   UNL     1      51.787   1.348  17.456  0.00  0.00    +0.000 A 
ENDBRANCH  14  19
ENDBRANCH  13  14
ENDBRANCH   1  13
TORSDOF 5
ENDMDL
MODEL 8
REMARK VINA RESULT:    -5.909      2.592      3.662
REMARK INTER + INTRA:          -8.022
REMARK INTER:                  -7.743
REMARK INTRA:                  -0.279
REMARK UNBOUND:                -0.385
REMARK  Name = 
REMARK  9 active torsions:
REMARK  status: ('A' for Active; 'I' for Inactive)
REMARK    1  A    between atoms: C_1  and  C_2
REMARK    2  A    between atoms: C_5  and  C_6
REMARK    3  A    between atoms: C_6  and  O_7
REMARK    4  A    between atoms: O_7  and  C_8
REMARK    5  A    between atoms: C_11  and  C_12
REMARK    6  A    between atoms: C_12  and  C_14
REMARK    7  A    between atoms: C_14  and  C_15
REMARK    8  A    between atoms: C_14  and  C_16
REMARK    9  A    between atoms: C_14  and  C_17
REMARK                            x       y       z     vdW  Elec       q    Type
REMARK                         _______ _______ _______ _____ _____    ______ ____
ROOT
ATOM      1  C   UNL     1      46.909   4.417  14.889  0.00  0.00    +0.000 A 
ATOM      2  C   UNL     1      47.686   5.504  14.524  0.00  0.00    +0.000 A 
ATOM      3  N   UNL     1      48.550   6.104  15.377  0.00  0.00    +0.000 NA
ATOM      4  C   UNL     1      48.581   5.597  16.632  0.00  0.00    +0.000 A 
ATOM      5  C   UNL     1      47.776   4.528  17.006  0.00  0.00    +0.000 A 
ATOM      6  N   UNL     1      46.924   3.906  16.141  0.00  0.00    +0.000 NA
ENDROOT
BRANCH   4   7
ATOM      7  C   UNL     1      49.525   6.197  17.617  0.00  0.00    +0.000 C 
ATOM      8  O   UNL     1      49.063   6.989  18.440  0.00  0.00    +0.000 OA
BRANCH   7   9
ATOM      9  C   UNL     1      51.015   5.772  17.629  0.00  0.00    +0.000 C 
ATOM     10  C   UNL     1      51.195   4.256  17.459  0.00  0.00    +0.000 C 
ATOM     11  C   UNL     1      51.739   6.456  16.448  0.00  0.00    +0.000 C 
ATOM     12  C   UNL     1      51.683   6.259  18.925  0.00  0.00    +0.000 C 
ENDBRANCH   7   9
ENDBRANCH   4   7
BRANCH   1  13
ATOM     13  O   UNL     1      46.096   3.869  13.926  0.00  0.00    +0.000 OA
BRANCH  13  14
ATOM     14  C   UNL     1      45.283   4.847  13.280  0.00  0.00    +0.000 C 
BRANCH  14  19
ATOM     15  C   UNL     1      45.011   3.569   7.598  0.00  0.00    +0.000 C 
ATOM     16  C   UNL     1      45.104   3.898   9.059  0.00  0.00    +0.000 A 
ATOM     17  C   UNL     1      45.533   5.157   9.485  0.00  0.00    +0.000 A 
ATOM     18  C   UNL     1      45.598   5.460  10.847  0.00  0.00    +0.000 A 
ATOM     19  C   UNL     1      45.238   4.505  11.808  0.00  0.00    +0.000 A 
ATOM     20  C   UNL     1      44.816   3.240  11.380  0.00  0.00    +0.000 A 
ATOM     21  C   UNL     1      44.748   2.940  10.016  0.00  0.00    +0.000 A 
ENDBRANCH  14  19
ENDBRANCH  13  14
ENDBRANCH   1  13
TORSDOF 5
ENDMDL
MODEL 9
REMARK VINA RESULT:    -5.768      3.566      4.683
REMARK INTER + INTRA:          -7.839
REMARK INTER:                  -7.529
REMARK INTRA:                  -0.310
REMARK UNBOUND:                -0.385
REMARK  Name = 
REMARK  9 active torsions:
REMARK  status: ('A' for Active; 'I' for Inactive)
REMARK    1  A    between atoms: C_1  and  C_2
REMARK    2  A    between atoms: C_5  and  C_6
REMARK    3  A    between atoms: C_6  and  O_7
REMARK    4  A    between atoms: O_7  and  C_8
REMARK    5  A    between atoms: C_11  and  C_12
REMARK    6  A    between atoms: C_12  and  C_14
REMARK    7  A    between atoms: C_14  and  C_15
REMARK    8  A    between atoms: C_14  and  C_16
REMARK    9  A    between atoms: C_14  and  C_17
REMARK                            x       y       z     vdW  Elec       q    Type
REMARK                         _______ _______ _______ _____ _____    ______ ____
ROOT
ATOM      1  C   UNL     1      47.362   4.235  15.510  0.00  0.00    +0.000 A 
ATOM      2  C   UNL     1      47.339   3.364  16.587  0.00  0.00    +0.000 A 
ATOM      3  N   UNL     1      48.012   3.606  17.737  0.00  0.00    +0.000 NA
ATOM      4  C   UNL     1      48.748   4.742  17.757  0.00  0.00    +0.000 A 
ATOM      5  C   UNL     1      48.799   5.597  16.662  0.00  0.00    +0.000 A 
ATOM      6  N   UNL     1      48.100   5.368  15.514  0.00  0.00    +0.000 NA
ENDROOT
BRANCH   4   7
ATOM      7  C   UNL     1      49.499   5.080  18.999  0.00  0.00    +0.000 C 
ATOM      8  O   UNL     1      50.662   4.684  19.088  0.00  0.00    +0.000 OA
BRANCH   7   9
ATOM      9  C   UNL     1      48.842   5.958  20.094  0.00  0.00    +0.000 C 
ATOM     10  C   UNL     1      47.339   6.167  19.855  0.00  0.00    +0.000 C 
ATOM     11  C   UNL     1      48.997   5.253  21.459  0.00  0.00    +0.000 C 
ATOM     12  C   UNL     1      49.572   7.307  20.184  0.00  0.00    +0.000 C 
ENDBRANCH   7   9
ENDBRANCH   4   7
BRANCH   1  13
ATOM     13  O   UNL     1      46.609   3.901  14.410  0.00  0.00    +0.000 OA
BRANCH  13  14
ATOM     14  C   UNL     1      45.922   5.024  13.860  0.00  0.00    +0.000 C 
BRANCH  14  19
ATOM     15  C   UNL     1      44.678   3.870   8.282  0.00  0.00    +0.000 C 
ATOM     16  C   UNL     1      45.020   4.165   9.713  0.00  0.00    +0.000 A 
ATOM     17  C   UNL     1      45.556   5.403  10.081  0.00  0.00    +0.000 A 
ATOM     18  C   UNL     1      45.854   5.676  11.417  0.00  0.00    +0.000 A 
ATOM     19  C   UNL     1      45.625   4.714  12.411  0.00  0.00    +0.000 A 
ATOM     20  C   UNL     1      45.096   3.471  12.039  0.00  0.00    +0.000 A 
ATOM     21  C   UNL     1      44.795   3.200  10.702  0.00  0.00    +0.000 A 
ENDBRANCH  14  19
ENDBRANCH  13  14
ENDBRANCH   1  13
TORSDOF 5
ENDMDL
