MODEL 1
REMARK VINA RESULT:    -8.032      0.000      0.000
REMARK INTER + INTRA:         -11.630
REMARK INTER:                 -10.614
REMARK INTRA:                  -1.016
REMARK UNBOUND:                -1.016
REMARK  Name = 
REMARK  6 active torsions:
REMARK  status: ('A' for Active; 'I' for Inactive)
REMARK    1  A    between atoms: C_2  and  C_19
REMARK    2  A    between atoms: N_3  and  C_4
REMARK    3  A    between atoms: C_4  and  C_5
REMARK    4  A    between atoms: C_9  and  C_10
REMARK    5  A    between atoms: C_10  and  N_11
REMARK    6  A    between atoms: C_14  and  O_15
REMARK                            x       y       z     vdW  Elec       q    Type
REMARK                         _______ _______ _______ _____ _____    ______ ____
ROOT
ATOM      1  C   UNL     1      46.108   6.974  12.247  0.00  0.00    +0.000 C 
ENDROOT
BRANCH   1   2
ATOM      2  C   UNL     1      45.270   5.843  11.705  0.00  0.00    +0.000 A 
ATOM      3  C   UNL     1      44.282   5.265  12.511  0.00  0.00    +0.000 A 
ATOM      4  C   UNL     1      43.489   4.229  12.022  0.00  0.00    +0.000 A 
ATOM      5  C   UNL     1      43.673   3.767  10.717  0.00  0.00    +0.000 A 
ATOM      6  C   UNL     1      44.666   4.316   9.890  0.00  0.00    +0.000 A 
ATOM      7  C   UNL     1      45.475   5.342  10.407  0.00  0.00    +0.000 A 
BRANCH   6   8
ATOM      8  C   UNL     1      44.809   3.845   8.451  0.00  0.00    +0.000 C 
BRANCH   8   9
ATOM      9  N   UNL     1      45.994   3.035   8.106  0.00  0.00    +0.000 NA
ATOM     10  C   UNL     1      46.733   3.565   6.960  0.00  0.00    +0.000 C 
ATOM     11  C   UNL     1      47.970   2.738   6.605  0.00  0.00    +0.000 C 
ATOM     12  C   UNL     1      47.638   1.256   6.462  0.00  0.00    +0.000 C 
ATOM     13  C   UNL     1      46.926   0.754   7.710  0.00  0.00    +0.000 C 
ATOM     14  C   UNL     1      45.698   1.603   8.044  0.00  0.00    +0.000 C 
BRANCH  12  15
ATOM     15  O   UNL     1      46.837   1.011   5.304  0.00  0.00    +0.000 OA
ATOM     16  H   UNL     1      47.415   1.039   4.521  0.00  0.00    +0.000 HD
ENDBRANCH  12  15
ENDBRANCH   8   9
ENDBRANCH   6   8
ENDBRANCH   1   2
BRANCH   1  19
ATOM     17  O   UNL     1      48.805   6.405  12.838  0.00  0.00    +0.000 OA
ATOM     18  C   UNL     1      47.989   6.451  13.752  0.00  0.00    +0.000 C 
ATOM     19  N   UNL     1      46.649   6.642  13.540  0.00  0.00    +0.000 N 
ATOM     20  H   UNL     1      46.053   6.856  14.330  0.00  0.00    +0.000 HD
BRANCH  18  21
ATOM     21  C   UNL     1      48.395   6.253  15.150  0.00  0.00    +0.000 A 
ATOM     22  C   UNL     1      49.149   7.224  15.794  0.00  0.00    +0.000 A 
ATOM     23  S   UNL     1      49.546   6.822  17.403  0.00  0.00    +0.000 S 
ATOM     24  C   UNL     1      48.680   5.359  17.311  0.00  0.00    +0.000 A 
ATOM     25  N   UNL     1      48.590   4.532  18.385  0.00  0.00    +0.000 NA
ATOM     26  C   UNL     1      47.854   3.487  18.194  0.00  0.00    +0.000 A 
ATOM     27  N   UNL     1      47.215   3.186  17.021  0.00  0.00    +0.000 N 
ATOM     28  C   UNL     1      47.344   3.948  15.885  0.00  0.00    +0.000 A 
ATOM     29  O   UNL     1      46.869   3.578  14.816  0.00  0.00    +0.000 OA
ATOM     30  C   UNL     1      48.117   5.166  16.061  0.00  0.00    +0.000 A 
ATOM     31  H   UNL     1      46.668   2.341  16.932  0.00  0.00    +0.000 HD
ENDBRANCH  18  21
ENDBRANCH   1  19
TORSDOF 6
ENDMDL
MODEL 2
REMARK VINA RESULT:    -7.475      2.856      8.274
REMARK INTER + INTRA:         -10.894
REMARK INTER:                  -9.826
REMARK INTRA:                  -1.069
REMARK UNBOUND:                -1.016
REMARK  Name = 
REMARK  6 active torsions:
REMARK  status: ('A' for Active; 'I' for Inactive)
REMARK    1  A    between atoms: C_2  and  C_19
REMARK    2  A    between atoms: N_3  and  C_4
REMARK    3  A    between atoms: C_4  and  C_5
REMARK    4  A    between atoms: C_9  and  C_10
REMARK    5  A    between atoms: C_10  and  N_11
REMARK    6  A    between atoms: C_14  and  O_15
REMARK                            x       y       z     vdW  Elec       q    Type
REMARK                         _______ _______ _______ _____ _____    ______ ____
ROOT
ATOM      1  C   UNL     1      47.734   7.889  11.671  0.00  0.00    +0.000 C 
ENDROOT
BRANCH   1   2
ATOM      2  C   UNL     1      48.800   7.864  12.736  0.00  0.00    +0.000 A 
ATOM      3  C   UNL     1      50.052   8.434  12.478  0.00  0.00    +0.000 A 
ATOM      4  C   UNL     1      51.044   8.432  13.456  0.00  0.00    +0.000 A 
ATOM      5  C   UNL     1      50.790   7.865  14.707  0.00  0.00    +0.000 A 
ATOM      6  C   UNL     1      49.549   7.272  14.991  0.00  0.00    +0.000 A 
ATOM      7  C   UNL     1      48.568   7.258  13.985  0.00  0.00    +0.000 A 
BRANCH   6   8
ATOM      8  C   UNL     1      49.267   6.717  16.379  0.00  0.00    +0.000 C 
BRANCH   8   9
ATOM      9  N   UNL     1      49.203   5.250  16.534  0.00  0.00    +0.000 NA
ATOM     10  C   UNL     1      47.842   4.758  16.745  0.00  0.00    +0.000 C 
ATOM     11  C   UNL     1      47.766   3.238  16.894  0.00  0.00    +0.000 C 
ATOM     12  C   UNL     1      48.751   2.722  17.937  0.00  0.00    +0.000 C 
ATOM     13  C   UNL     1      50.155   3.218  17.625  0.00  0.00    +0.000 C 
ATOM     14  C   UNL     1      50.199   4.741  17.477  0.00  0.00    +0.000 C 
BRANCH  12  15
ATOM     15  O   UNL     1      48.368   3.118  19.256  0.00  0.00    +0.000 OA
ATOM     16  H   UNL     1      47.922   2.365  19.683  0.00  0.00    +0.000 HD
ENDBRANCH  12  15
ENDBRANCH   8   9
ENDBRANCH   6   8
ENDBRANCH   1   2
BRANCH   1  19
ATOM     17  O   UNL     1      44.932   7.652  11.880  0.00  0.00    +0.000 OA
ATOM     18  C   UNL     1      45.607   6.643  11.701  0.00  0.00    +0.000 C 
ATOM     19  N   UNL     1      46.977   6.664  11.668  0.00  0.00    +0.000 N 
ATOM     20  H   UNL     1      47.472   5.846  11.336  0.00  0.00    +0.000 HD
BRANCH  18  21
ATOM     21  C   UNL     1      44.983   5.322  11.557  0.00  0.00    +0.000 A 
ATOM     22  C   UNL     1      44.260   4.782  12.612  0.00  0.00    +0.000 A 
ATOM     23  S   UNL     1      43.622   3.235  12.280  0.00  0.00    +0.000 S 
ATOM     24  C   UNL     1      44.246   3.256  10.696  0.00  0.00    +0.000 A 
ATOM     25  N   UNL     1      44.025   2.221   9.844  0.00  0.00    +0.000 NA
ATOM     26  C   UNL     1      44.504   2.394   8.657  0.00  0.00    +0.000 A 
ATOM     27  N   UNL     1      45.199   3.502   8.249  0.00  0.00    +0.000 N 
ATOM     28  C   UNL     1      45.517   4.535   9.097  0.00  0.00    +0.000 A 
ATOM     29  O   UNL     1      46.255   5.446   8.736  0.00  0.00    +0.000 OA
ATOM     30  C   UNL     1      44.955   4.415  10.431  0.00  0.00    +0.000 A 
ATOM     31  H   UNL     1      45.563   3.567   7.309  0.00  0.00    +0.000 HD
ENDBRANCH  18  21
ENDBRANCH   1  19
TORSDOF 6
ENDMDL
MODEL 3
REMARK VINA RESULT:    -7.350      2.592      4.335
REMARK INTER + INTRA:         -10.729
REMARK INTER:                  -9.592
REMARK INTRA:                  -1.137
REMARK UNBOUND:                -1.016
REMARK  Name = 
REMARK  6 active torsions:
REMARK  status: ('A' for Active; 'I' for Inactive)
REMARK    1  A    between atoms: C_2  and  C_19
REMARK    2  A    between atoms: N_3  and  C_4
REMARK    3  A    between atoms: C_4  and  C_5
REMARK    4  A    between atoms: C_9  and  C_10
REMARK    5  A    between atoms: C_10  and  N_11
REMARK    6  A    between atoms: C_14  and  O_15
REMARK                            x       y       z     vdW  Elec       q    Type
REMARK                         _______ _______ _______ _____ _____    ______ ____
ROOT
ATOM      1  C   UNL     1      46.483   4.978  13.713  0.00  0.00    +0.000 C 
ENDROOT
BRANCH   1   2
ATOM      2  C   UNL     1      45.273   4.694  12.859  0.00  0.00    +0.000 A 
ATOM      3  C   UNL     1      44.052   5.307  13.161  0.00  0.00    +0.000 A 
ATOM      4  C   UNL     1      42.927   5.067  12.374  0.00  0.00    +0.000 A 
ATOM      5  C   UNL     1      43.017   4.216  11.271  0.00  0.00    +0.000 A 
ATOM      6  C   UNL     1      44.225   3.575  10.950  0.00  0.00    +0.000 A 
ATOM      7  C   UNL     1      45.343   3.806  11.770  0.00  0.00    +0.000 A 
BRANCH   6   8
ATOM      8  C   UNL     1      44.321   2.703   9.708  0.00  0.00    +0.000 C 
BRANCH   8   9
ATOM      9  N   UNL     1      45.573   2.754   8.926  0.00  0.00    +0.000 NA
ATOM     10  C   UNL     1      45.656   3.930   8.060  0.00  0.00    +0.000 C 
ATOM     11  C   UNL     1      46.955   3.996   7.256  0.00  0.00    +0.000 C 
ATOM     12  C   UNL     1      47.229   2.692   6.514  0.00  0.00    +0.000 C 
ATOM     13  C   UNL     1      47.189   1.518   7.481  0.00  0.00    +0.000 C 
ATOM     14  C   UNL     1      45.881   1.481   8.274  0.00  0.00    +0.000 C 
BRANCH  12  15
ATOM     15  O   UNL     1      46.293   2.491   5.453  0.00  0.00    +0.000 OA
ATOM     16  H   UNL     1      45.748   1.714   5.670  0.00  0.00    +0.000 HD
ENDBRANCH  12  15
ENDBRANCH   8   9
ENDBRANCH   6   8
ENDBRANCH   1   2
BRANCH   1  19
ATOM     17  O   UNL     1      48.896   6.095  12.775  0.00  0.00    +0.000 OA
ATOM     18  C   UNL     1      47.992   6.841  13.136  0.00  0.00    +0.000 C 
ATOM     19  N   UNL     1      46.822   6.378  13.679  0.00  0.00    +0.000 N 
ATOM     20  H   UNL     1      46.044   7.018  13.786  0.00  0.00    +0.000 HD
BRANCH  18  21
ATOM     21  C   UNL     1      48.128   8.301  13.056  0.00  0.00    +0.000 A 
ATOM     22  C   UNL     1      49.298   8.910  13.488  0.00  0.00    +0.000 A 
ATOM     23  S   UNL     1      49.276  10.609  13.342  0.00  0.00    +0.000 S 
ATOM     24  C   UNL     1      47.722  10.585  12.647  0.00  0.00    +0.000 A 
ATOM     25  N   UNL     1      47.118  11.736  12.248  0.00  0.00    +0.000 NA
ATOM     26  C   UNL     1      45.968  11.567  11.685  0.00  0.00    +0.000 A 
ATOM     27  N   UNL     1      45.360  10.354  11.499  0.00  0.00    +0.000 N 
ATOM     28  C   UNL     1      45.894   9.174  11.959  0.00  0.00    +0.000 A 
ATOM     29  O   UNL     1      45.261   8.125  11.896  0.00  0.00    +0.000 OA
ATOM     30  C   UNL     1      47.214   9.302  12.553  0.00  0.00    +0.000 A 
ATOM     31  H   UNL     1      44.449  10.292  11.066  0.00  0.00    +0.000 HD
ENDBRANCH  18  21
ENDBRANCH   1  19
TORSDOF 6
ENDMDL
MODEL 4
REMARK VINA RESULT:    -7.063      3.590      8.049
REMARK INTER + INTRA:         -10.350
REMARK INTER:                  -9.371
REMARK INTRA:                  -0.979
REMARK UNBOUND:                -1.016
REMARK  Name = 
REMARK  6 active torsions:
REMARK  status: ('A' for Active; 'I' for Inactive)
REMARK    1  A    between atoms: C_2  and  C_19
REMARK    2  A    between atoms: N_3  and  C_4
REMARK    3  A    between atoms: C_4  and  C_5
REMARK    4  A    between atoms: C_9  and  C_10
REMARK    5  A    between atoms: C_10  and  N_11
REMARK    6  A    between atoms: C_14  and  O_15
REMARK                            x       y       z     vdW  Elec       q    Type
REMARK                         _______ _______ _______ _____ _____    ______ ____
ROOT
ATOM      1  C   UNL     1      48.077   8.311  11.797  0.00  0.00    +0.000 C 
ENDROOT
BRANCH   1   2
ATOM      2  C   UNL     1      49.028   8.038  12.935  0.00  0.00    +0.000 A 
ATOM      3  C   UNL     1      50.377   8.393  12.812  0.00  0.00    +0.000 A 
ATOM      4  C   UNL     1      51.267   8.161  13.858  0.00  0.00    +0.000 A 
ATOM      5  C   UNL     1      50.813   7.578  15.043  0.00  0.00    +0.000 A 
ATOM      6  C   UNL     1      49.469   7.198  15.192  0.00  0.00    +0.000 A 
ATOM      7  C   UNL     1      48.590   7.414  14.117  0.00  0.00    +0.000 A 
BRANCH   6   8
ATOM      8  C   UNL     1      48.979   6.625  16.513  0.00  0.00    +0.000 C 
BRANCH   8   9
ATOM      9  N   UNL     1      48.948   5.156  16.657  0.00  0.00    +0.000 NA
ATOM     10  C   UNL     1      47.616   4.642  16.978  0.00  0.00    +0.000 C 
ATOM     11  C   UNL     1      47.574   3.120  17.116  0.00  0.00    +0.000 C 
ATOM     12  C   UNL     1      48.651   2.607  18.065  0.00  0.00    +0.000 C 
ATOM     13  C   UNL     1      50.017   3.127  17.640  0.00  0.00    +0.000 C 
ATOM     14  C   UNL     1      50.028   4.651  17.505  0.00  0.00    +0.000 C 
BRANCH  12  15
ATOM     15  O   UNL     1      48.378   2.985  19.416  0.00  0.00    +0.000 OA
ATOM     16  H   UNL     1      49.221   3.014  19.902  0.00  0.00    +0.000 HD
ENDBRANCH  12  15
ENDBRANCH   8   9
ENDBRANCH   6   8
ENDBRANCH   1   2
BRANCH   1  19
ATOM     17  O   UNL     1      45.288   7.951  11.600  0.00  0.00    +0.000 OA
ATOM     18  C   UNL     1      46.034   7.042  11.254  0.00  0.00    +0.000 C 
ATOM     19  N   UNL     1      47.396   7.108  11.394  0.00  0.00    +0.000 N 
ATOM     20  H   UNL     1      47.971   6.417  10.928  0.00  0.00    +0.000 HD
BRANCH  18  21
ATOM     21  C   UNL     1      45.507   5.786  10.707  0.00  0.00    +0.000 A 
ATOM     22  C   UNL     1      45.781   5.437   9.391  0.00  0.00    +0.000 A 
ATOM     23  S   UNL     1      45.075   3.959   8.916  0.00  0.00    +0.000 S 
ATOM     24  C   UNL     1      44.422   3.708  10.468  0.00  0.00    +0.000 A 
ATOM     25  N   UNL     1      43.712   2.585  10.754  0.00  0.00    +0.000 NA
ATOM     26  C   UNL     1      43.326   2.496  11.983  0.00  0.00    +0.000 A 
ATOM     27  N   UNL     1      43.570   3.436  12.949  0.00  0.00    +0.000 N 
ATOM     28  C   UNL     1      44.210   4.623  12.688  0.00  0.00    +0.000 A 
ATOM     29  O   UNL     1      44.293   5.500  13.542  0.00  0.00    +0.000 OA
ATOM     30  C   UNL     1      44.714   4.750  11.330  0.00  0.00    +0.000 A 
ATOM     31  H   UNL     1      43.223   3.313  13.890  0.00  0.00    +0.000 HD
ENDBRANCH  18  21
ENDBRANCH   1  19
TORSDOF 6
ENDMDL
MODEL 5
REMARK VINA RESULT:    -7.056      3.817      7.853
REMARK INTER + INTRA:         -10.340
REMARK INTER:                  -9.456
REMARK INTRA:                  -0.885
REMARK UNBOUND:                -1.016
REMARK  Name = 
REMARK  6 active torsions:
REMARK  status: ('A' for Active; 'I' for Inactive)
REMARK    1  A    between atoms: C_2  and  C_19
REMARK    2  A    between atoms: N_3  and  C_4
REMARK    3  A    between atoms: C_4  and  C_5
REMARK    4  A    between atoms: C_9  and  C_10
REMARK    5  A    between atoms: C_10  and  N_11
REMARK    6  A    between atoms: C_14  and  O_15
REMARK                            x       y       z     vdW  Elec       q    Type
REMARK                         _______ _______ _______ _____ _____    ______ ____
ROOT
ATOM      1  C   UNL     1      49.012   8.038  14.302  0.00  0.00    +0.000 C 
ENDROOT
BRANCH   1   2
ATOM      2  C   UNL     1      48.824   8.045  15.799  0.00  0.00    +0.000 A 
ATOM      3  C   UNL     1      48.061   9.054  16.397  0.00  0.00    +0.000 A 
ATOM      4  C   UNL     1      47.866   9.067  17.777  0.00  0.00    +0.000 A 
ATOM      5  C   UNL     1      48.427   8.064  18.570  0.00  0.00    +0.000 A 
ATOM      6  C   UNL     1      49.210   7.047  18.001  0.00  0.00    +0.000 A 
ATOM      7  C   UNL     1      49.420   7.062  16.611  0.00  0.00    +0.000 A 
BRANCH   6   8
ATOM      8  C   UNL     1      49.759   5.927  18.871  0.00  0.00    +0.000 C 
BRANCH   8   9
ATOM      9  N   UNL     1      49.343   4.545  18.559  0.00  0.00    +0.000 NA
ATOM     10  C   UNL     1      50.301   3.841  17.705  0.00  0.00    +0.000 C 
ATOM     11  C   UNL     1      49.883   2.404  17.388  0.00  0.00    +0.000 C 
ATOM     12  C   UNL     1      48.454   2.333  16.860  0.00  0.00    +0.000 C 
ATOM     13  C   UNL     1      47.503   3.029  17.824  0.00  0.00    +0.000 C 
ATOM     14  C   UNL     1      47.949   4.461  18.126  0.00  0.00    +0.000 C 
BRANCH  12  15
ATOM     15  O   UNL     1      48.351   2.913  15.558  0.00  0.00    +0.000 OA
ATOM     16  H   UNL     1      48.792   2.321  14.924  0.00  0.00    +0.000 HD
ENDBRANCH  12  15
ENDBRANCH   8   9
ENDBRANCH   6   8
ENDBRANCH   1   2
BRANCH   1  19
ATOM     17  O   UNL     1      48.428   5.641  12.938  0.00  0.00    +0.000 OA
ATOM     18  C   UNL     1      47.553   6.492  13.052  0.00  0.00    +0.000 C 
ATOM     19  N   UNL     1      47.780   7.715  13.629  0.00  0.00    +0.000 N 
ATOM     20  H   UNL     1      46.989   8.301  13.863  0.00  0.00    +0.000 HD
BRANCH  18  21
ATOM     21  C   UNL     1      46.201   6.274  12.525  0.00  0.00    +0.000 A 
ATOM     22  C   UNL     1      45.499   7.333  11.966  0.00  0.00    +0.000 A 
ATOM     23  S   UNL     1      43.939   6.906  11.423  0.00  0.00    +0.000 S 
ATOM     24  C   UNL     1      44.168   5.279  11.868  0.00  0.00    +0.000 A 
ATOM     25  N   UNL     1      43.203   4.350  11.641  0.00  0.00    +0.000 NA
ATOM     26  C   UNL     1      43.532   3.146  11.974  0.00  0.00    +0.000 A 
ATOM     27  N   UNL     1      44.732   2.790  12.529  0.00  0.00    +0.000 N 
ATOM     28  C   UNL     1      45.704   3.705  12.853  0.00  0.00    +0.000 A 
ATOM     29  O   UNL     1      46.709   3.369  13.472  0.00  0.00    +0.000 OA
ATOM     30  C   UNL     1      45.407   5.068  12.449  0.00  0.00    +0.000 A 
ATOM     31  H   UNL     1      44.919   1.830  12.784  0.00  0.00    +0.000 HD
ENDBRANCH  18  21
ENDBRANCH   1  19
TORSDOF 6
ENDMDL
MODEL 6
REMARK VINA RESULT:    -7.035      4.182      5.538
REMARK INTER + INTRA:         -10.313
REMARK INTER:                  -9.477
REMARK INTRA:                  -0.836
REMARK UNBOUND:                -1.016
REMARK  Name = 
REMARK  6 active torsions:
REMARK  status: ('A' for Active; 'I' for Inactive)
REMARK    1  A    between atoms: C_2  and  C_19
REMARK    2  A    between atoms: N_3  and  C_4
REMARK    3  A    between atoms: C_4  and  C_5
REMARK    4  A    between atoms: C_9  and  C_10
REMARK    5  A    between atoms: C_10  and  N_11
REMARK    6  A    between atoms: C_14  and  O_15
REMARK                            x       y       z     vdW  Elec       q    Type
REMARK                         _______ _______ _______ _____ _____    ______ ____
ROOT
ATOM      1  C   UNL     1      42.793   6.837  11.277  0.00  0.00    +0.000 C 
ENDROOT
BRANCH   1   2
ATOM      2  C   UNL     1      43.558   5.548  11.434  0.00  0.00    +0.000 A 
ATOM      3  C   UNL     1      44.087   5.204  12.684  0.00  0.00    +0.000 A 
ATOM      4  C   UNL     1      44.785   4.010  12.851  0.00  0.00    +0.000 A 
ATOM      5  C   UNL     1      44.954   3.144  11.769  0.00  0.00    +0.000 A 
ATOM      6  C   UNL     1      44.448   3.468  10.499  0.00  0.00    +0.000 A 
ATOM      7  C   UNL     1      43.770   4.688  10.341  0.00  0.00    +0.000 A 
BRANCH   6   8
ATOM      8  C   UNL     1      44.585   2.484   9.348  0.00  0.00    +0.000 C 
BRANCH   8   9
ATOM      9  N   UNL     1      45.840   2.503   8.571  0.00  0.00    +0.000 NA
ATOM     10  C   UNL     1      45.899   3.606   7.611  0.00  0.00    +0.000 C 
ATOM     11  C   UNL     1      47.202   3.641   6.811  0.00  0.00    +0.000 C 
ATOM     12  C   UNL     1      47.515   2.289   6.179  0.00  0.00    +0.000 C 
ATOM     13  C   UNL     1      47.499   1.197   7.240  0.00  0.00    +0.000 C 
ATOM     14  C   UNL     1      46.186   1.190   8.027  0.00  0.00    +0.000 C 
BRANCH  12  15
ATOM     15  O   UNL     1      46.592   1.976   5.134  0.00  0.00    +0.000 OA
ATOM     16  H   UNL     1      45.861   1.458   5.516  0.00  0.00    +0.000 HD
ENDBRANCH  12  15
ENDBRANCH   8   9
ENDBRANCH   6   8
ENDBRANCH   1   2
BRANCH   1  19
ATOM     17  O   UNL     1      42.049   9.507  10.755  0.00  0.00    +0.000 OA
ATOM     18  C   UNL     1      43.239   9.224  10.851  0.00  0.00    +0.000 C 
ATOM     19  N   UNL     1      43.684   7.939  11.022  0.00  0.00    +0.000 N 
ATOM     20  H   UNL     1      44.652   7.786  11.278  0.00  0.00    +0.000 HD
BRANCH  18  21
ATOM     21  C   UNL     1      44.281  10.253  10.734  0.00  0.00    +0.000 A 
ATOM     22  C   UNL     1      44.126  11.292   9.828  0.00  0.00    +0.000 A 
ATOM     23  S   UNL     1      45.437  12.383   9.811  0.00  0.00    +0.000 S 
ATOM     24  C   UNL     1      46.233  11.533  11.053  0.00  0.00    +0.000 A 
ATOM     25  N   UNL     1      47.423  11.967  11.544  0.00  0.00    +0.000 NA
ATOM     26  C   UNL     1      47.886  11.261  12.522  0.00  0.00    +0.000 A 
ATOM     27  N   UNL     1      47.275  10.152  13.042  0.00  0.00    +0.000 N 
ATOM     28  C   UNL     1      46.114   9.628  12.524  0.00  0.00    +0.000 A 
ATOM     29  O   UNL     1      45.667   8.558  12.925  0.00  0.00    +0.000 OA
ATOM     30  C   UNL     1      45.522  10.416  11.456  0.00  0.00    +0.000 A 
ATOM     31  H   UNL     1      47.700   9.633  13.798  0.00  0.00    +0.000 HD
ENDBRANCH  18  21
ENDBRANCH   1  19
TORSDOF 6
ENDMDL
MODEL 7
REMARK VINA RESULT:    -7.023      2.275      3.141
REMARK INTER + INTRA:         -10.296
REMARK INTER:                  -9.221
REMARK INTRA:                  -1.075
REMARK UNBOUND:                -1.016
REMARK  Name = 
REMARK  6 active torsions:
REMARK  status: ('A' for Active; 'I' for Inactive)
REMARK    1  A    between atoms: C_2  and  C_19
REMARK    2  A    between atoms: N_3  and  C_4
REMARK    3  A    between atoms: C_4  and  C_5
REMARK    4  A    between atoms: C_9  and  C_10
REMARK    5  A    between atoms: C_10  and  N_11
REMARK    6  A    between atoms: C_14  and  O_15
REMARK                            x       y       z     vdW  Elec       q    Type
REMARK                         _______ _______ _______ _____ _____    ______ ____
ROOT
ATOM      1  C   UNL     1      46.347   4.524  14.016  0.00  0.00    +0.000 C 
ENDROOT
BRANCH   1   2
ATOM      2  C   UNL     1      45.340   4.551  12.894  0.00  0.00    +0.000 A 
ATOM      3  C   UNL     1      44.366   5.555  12.860  0.00  0.00    +0.000 A 
ATOM      4  C   UNL     1      43.436   5.602  11.823  0.00  0.00    +0.000 A 
ATOM      5  C   UNL     1      43.479   4.649  10.804  0.00  0.00    +0.000 A 
ATOM      6  C   UNL     1      44.435   3.620  10.818  0.00  0.00    +0.000 A 
ATOM      7  C   UNL     1      45.349   3.570  11.885  0.00  0.00    +0.000 A 
BRANCH   6   8
ATOM      8  C   UNL     1      44.508   2.629   9.667  0.00  0.00    +0.000 C 
BRANCH   8   9
ATOM      9  N   UNL     1      45.733   2.618   8.843  0.00  0.00    +0.000 NA
ATOM     10  C   UNL     1      45.838   3.783   7.964  0.00  0.00    +0.000 C 
ATOM     11  C   UNL     1      47.112   3.786   7.117  0.00  0.00    +0.000 C 
ATOM     12  C   UNL     1      47.302   2.466   6.377  0.00  0.00    +0.000 C 
ATOM     13  C   UNL     1      47.243   1.302   7.356  0.00  0.00    +0.000 C 
ATOM     14  C   UNL     1      45.962   1.329   8.192  0.00  0.00    +0.000 C 
BRANCH  12  15
ATOM     15  O   UNL     1      46.323   2.298   5.350  0.00  0.00    +0.000 OA
ATOM     16  H   UNL     1      45.699   3.044   5.397  0.00  0.00    +0.000 HD
ENDBRANCH  12  15
ENDBRANCH   8   9
ENDBRANCH   6   8
ENDBRANCH   1   2
BRANCH   1  19
ATOM     17  O   UNL     1      48.661   5.706  12.920  0.00  0.00    +0.000 OA
ATOM     18  C   UNL     1      47.941   6.371  13.658  0.00  0.00    +0.000 C 
ATOM     19  N   UNL     1      46.846   5.847  14.293  0.00  0.00    +0.000 N 
ATOM     20  H   UNL     1      46.189   6.476  14.737  0.00  0.00    +0.000 HD
BRANCH  18  21
ATOM     21  C   UNL     1      48.241   7.777  13.953  0.00  0.00    +0.000 A 
ATOM     22  C   UNL     1      48.188   8.722  12.937  0.00  0.00    +0.000 A 
ATOM     23  S   UNL     1      48.583  10.299  13.451  0.00  0.00    +0.000 S 
ATOM     24  C   UNL     1      48.788   9.784  15.061  0.00  0.00    +0.000 A 
ATOM     25  N   UNL     1      49.107  10.668  16.042  0.00  0.00    +0.000 NA
ATOM     26  C   UNL     1      49.174  10.151  17.224  0.00  0.00    +0.000 A 
ATOM     27  N   UNL     1      48.967   8.828  17.512  0.00  0.00    +0.000 N 
ATOM     28  C   UNL     1      48.724   7.884  16.543  0.00  0.00    +0.000 A 
ATOM     29  O   UNL     1      48.679   6.690  16.820  0.00  0.00    +0.000 OA
ATOM     30  C   UNL     1      48.585   8.422  15.200  0.00  0.00    +0.000 A 
ATOM     31  H   UNL     1      49.053   8.485  18.458  0.00  0.00    +0.000 HD
ENDBRANCH  18  21
ENDBRANCH   1  19
TORSDOF 6
ENDMDL
MODEL 8
REMARK VINA RESULT:    -6.826      2.763      4.073
REMARK INTER + INTRA:         -10.036
REMARK INTER:                  -8.969
REMARK INTRA:                  -1.068
REMARK UNBOUND:                -1.016
REMARK  Name = 
REMARK  6 active torsions:
REMARK  status: ('A' for Active; 'I' for Inactive)
REMARK    1  A    between atoms: C_2  and  C_19
REMARK    2  A    between atoms: N_3  and  C_4
REMARK    3  A    between atoms: C_4  and  C_5
REMARK    4  A    between atoms: C_9  and  C_10
REMARK    5  A    between atoms: C_10  and  N_11
REMARK    6  A    between atoms: C_14  and  O_15
REMARK                            x       y       z     vdW  Elec       q    Type
REMARK                         _______ _______ _______ _____ _____    ______ ____
ROOT
ATOM      1  C   UNL     1      49.596   7.755  12.708  0.00  0.00    +0.000 C 
ENDROOT
BRANCH   1   2
ATOM      2  C   UNL     1      48.224   8.320  12.439  0.00  0.00    +0.000 A 
ATOM      3  C   UNL     1      48.050   9.705  12.348  0.00  0.00    +0.000 A 
ATOM      4  C   UNL     1      46.792  10.243  12.086  0.00  0.00    +0.000 A 
ATOM      5  C   UNL     1      45.696   9.398  11.906  0.00  0.00    +0.000 A 
ATOM      6  C   UNL     1      45.835   8.004  12.006  0.00  0.00    +0.000 A 
ATOM      7  C   UNL     1      47.105   7.478  12.297  0.00  0.00    +0.000 A 
BRANCH   6   8
ATOM      8  C   UNL     1      44.644   7.096  11.743  0.00  0.00    +0.000 C 
BRANCH   8   9
ATOM      9  N   UNL     1      44.911   5.667  11.485  0.00  0.00    +0.000 NA
ATOM     10  C   UNL     1      44.285   5.184  10.254  0.00  0.00    +0.000 C 
ATOM     11  C   UNL     1      44.568   3.707   9.973  0.00  0.00    +0.000 C 
ATOM     12  C   UNL     1      44.254   2.831  11.181  0.00  0.00    +0.000 C 
ATOM     13  C   UNL     1      44.983   3.351  12.411  0.00  0.00    +0.000 C 
ATOM     14  C   UNL     1      44.686   4.831  12.664  0.00  0.00    +0.000 C 
BRANCH  12  15
ATOM     15  O   UNL     1      42.848   2.769  11.428  0.00  0.00    +0.000 OA
ATOM     16  H   UNL     1      42.657   3.285  12.232  0.00  0.00    +0.000 HD
ENDBRANCH  12  15
ENDBRANCH   8   9
ENDBRANCH   6   8
ENDBRANCH   1   2
BRANCH   1  19
ATOM     17  O   UNL     1      49.727   8.753  15.342  0.00  0.00    +0.000 OA
ATOM     18  C   UNL     1      49.597   7.546  15.165  0.00  0.00    +0.000 C 
ATOM     19  N   UNL     1      49.606   6.975  13.918  0.00  0.00    +0.000 N 
ATOM     20  H   UNL     1      49.312   6.012  13.819  0.00  0.00    +0.000 HD
BRANCH  18  21
ATOM     21  C   UNL     1      49.472   6.617  16.294  0.00  0.00    +0.000 A 
ATOM     22  C   UNL     1      50.193   6.845  17.458  0.00  0.00    +0.000 A 
ATOM     23  S   UNL     1      49.943   5.659  18.658  0.00  0.00    +0.000 S 
ATOM     24  C   UNL     1      48.822   4.828  17.683  0.00  0.00    +0.000 A 
ATOM     25  N   UNL     1      48.194   3.712  18.137  0.00  0.00    +0.000 NA
ATOM     26  C   UNL     1      47.326   3.217  17.317  0.00  0.00    +0.000 A 
ATOM     27  N   UNL     1      47.043   3.726  16.078  0.00  0.00    +0.000 N 
ATOM     28  C   UNL     1      47.711   4.802  15.544  0.00  0.00    +0.000 A 
ATOM     29  O   UNL     1      47.528   5.148  14.381  0.00  0.00    +0.000 OA
ATOM     30  C   UNL     1      48.660   5.430  16.448  0.00  0.00    +0.000 A 
ATOM     31  H   UNL     1      46.365   3.279  15.477  0.00  0.00    +0.000 HD
ENDBRANCH  18  21
ENDBRANCH   1  19
TORSDOF 6
ENDMDL
MODEL 9
REMARK VINA RESULT:    -6.670      3.257      5.050
REMARK INTER + INTRA:          -9.830
REMARK INTER:                  -9.009
REMARK INTRA:                  -0.821
REMARK UNBOUND:                -1.016
REMARK  Name = 
REMARK  6 active torsions:
REMARK  status: ('A' for Active; 'I' for Inactive)
REMARK    1  A    between atoms: C_2  and  C_19
REMARK    2  A    between atoms: N_3  and  C_4
REMARK    3  A    between atoms: C_4  and  C_5
REMARK    4  A    between atoms: C_9  and  C_10
REMARK    5  A    between atoms: C_10  and  N_11
REMARK    6  A    between atoms: C_14  and  O_15
REMARK                            x       y       z     vdW  Elec       q    Type
REMARK                         _______ _______ _______ _____ _____    ______ ____
ROOT
ATOM      1  C   UNL     1      48.809   7.067  16.064  0.00  0.00    +0.000 C 
ENDROOT
BRANCH   1   2
ATOM      2  C   UNL     1      48.716   7.185  14.564  0.00  0.00    +0.000 A 
ATOM      3  C   UNL     1      49.858   7.509  13.822  0.00  0.00    +0.000 A 
ATOM      4  C   UNL     1      49.794   7.609  12.434  0.00  0.00    +0.000 A 
ATOM      5  C   UNL     1      48.585   7.377  11.774  0.00  0.00    +0.000 A 
ATOM      6  C   UNL     1      47.419   7.065  12.491  0.00  0.00    +0.000 A 
ATOM      7  C   UNL     1      47.494   6.995  13.893  0.00  0.00    +0.000 A 
BRANCH   6   8
ATOM      8  C   UNL     1      46.127   6.753  11.751  0.00  0.00    +0.000 C 
BRANCH   8   9
ATOM      9  N   UNL     1      45.821   5.337  11.467  0.00  0.00    +0.000 NA
ATOM     10  C   UNL     1      45.052   5.157  10.236  0.00  0.00    +0.000 C 
ATOM     11  C   UNL     1      44.742   3.691   9.927  0.00  0.00    +0.000 C 
ATOM     12  C   UNL     1      44.120   2.980  11.125  0.00  0.00    +0.000 C 
ATOM     13  C   UNL     1      44.999   3.155  12.354  0.00  0.00    +0.000 C 
ATOM     14  C   UNL     1      45.297   4.629  12.635  0.00  0.00    +0.000 C 
BRANCH  12  15
ATOM     15  O   UNL     1      42.800   3.461  11.388  0.00  0.00    +0.000 OA
ATOM     16  H   UNL     1      42.858   4.408  11.605  0.00  0.00    +0.000 HD
ENDBRANCH  12  15
ENDBRANCH   8   9
ENDBRANCH   6   8
ENDBRANCH   1   2
BRANCH   1  19
ATOM     17  O   UNL     1      49.635   6.488  18.697  0.00  0.00    +0.000 OA
ATOM     18  C   UNL     1      50.214   5.953  17.757  0.00  0.00    +0.000 C 
ATOM     19  N   UNL     1      49.926   6.243  16.449  0.00  0.00    +0.000 N 
ATOM     20  H   UNL     1      50.298   5.645  15.721  0.00  0.00    +0.000 HD
BRANCH  18  21
ATOM     21  C   UNL     1      51.302   4.992  17.976  0.00  0.00    +0.000 A 
ATOM     22  C   UNL     1      52.497   5.418  18.539  0.00  0.00    +0.000 A 
ATOM     23  S   UNL     1      53.654   4.177  18.703  0.00  0.00    +0.000 S 
ATOM     24  C   UNL     1      52.580   3.015  18.075  0.00  0.00    +0.000 A 
ATOM     25  N   UNL     1      52.945   1.710  17.973  0.00  0.00    +0.000 NA
ATOM     26  C   UNL     1      52.014   0.929  17.536  0.00  0.00    +0.000 A 
ATOM     27  N   UNL     1      50.757   1.336  17.175  0.00  0.00    +0.000 N 
ATOM     28  C   UNL     1      50.370   2.655  17.183  0.00  0.00    +0.000 A 
ATOM     29  O   UNL     1      49.285   3.000  16.727  0.00  0.00    +0.000 OA
ATOM     30  C   UNL     1      51.364   3.571  17.719  0.00  0.00    +0.000 A 
ATOM     31  H   UNL     1      50.080   0.675  16.822  0.00  0.00    +0.000 HD
ENDBRANCH  18  21
ENDBRANCH   1  19
TORSDOF 6
ENDMDL
