MODEL 1
REMARK VINA RESULT:    -8.470      0.000      0.000
REMARK INTER + INTRA:         -13.098
REMARK INTER:                 -11.935
REMARK INTRA:                  -1.163
REMARK UNBOUND:                -1.163
REMARK  Name = 
REMARK  8 active torsions:
REMARK  status: ('A' for Active; 'I' for Inactive)
REMARK    1  A    between atoms: C_1  and  O_2
REMARK    2  A    between atoms: O_2  and  C_3
REMARK    3  A    between atoms: C_5  and  C_6
REMARK    4  A    between atoms: C_6  and  C_7
REMARK    5  A    between atoms: C_7  and  N_8
REMARK    6  A    between atoms: N_8  and  C_9
REMARK    7  A    between atoms: C_12  and  C_13
REMARK    8  A    between atoms: C_19  and  C_20
REMARK                            x       y       z     vdW  Elec       q    Type
REMARK                         _______ _______ _______ _____ _____    ______ ____
ROOT
ATOM      1  C   UNL     1      46.615   4.562  13.872  0.00  0.00    +0.000 A 
ATOM      2  C   UNL     1      45.275   4.463  13.521  0.00  0.00    +0.000 A 
ATOM      3  C   UNL     1      44.703   5.500  12.790  0.00  0.00    +0.000 A 
ATOM      4  N   UNL     1      45.400   6.605  12.426  0.00  0.00    +0.000 NA
ATOM      5  C   UNL     1      46.709   6.705  12.787  0.00  0.00    +0.000 A 
ATOM      6  C   UNL     1      47.334   5.697  13.513  0.00  0.00    +0.000 A 
ENDROOT
BRANCH   5   7
ATOM      7  C   UNL     1      47.426   7.917  12.328  0.00  0.00    +0.000 A 
ATOM      8  C   UNL     1      46.762   9.154  12.233  0.00  0.00    +0.000 A 
ATOM      9  C   UNL     1      47.407  10.301  11.757  0.00  0.00    +0.000 A 
ATOM     10  C   UNL     1      48.742  10.238  11.370  0.00  0.00    +0.000 A 
ATOM     11  C   UNL     1      49.426   9.031  11.471  0.00  0.00    +0.000 A 
ATOM     12 CL   UNL     1      51.079   8.946  10.997  0.00  0.00    +0.000 Cl
ATOM     13  C   UNL     1      48.783   7.886  11.949  0.00  0.00    +0.000 A 
ENDBRANCH   5   7
BRANCH   1  15
ATOM     14  C   UNL     1      47.417   3.884  15.989  0.00  0.00    +0.000 C 
ATOM     15  O   UNL     1      47.315   3.633  14.592  0.00  0.00    +0.000 OA
ENDBRANCH   1  15
BRANCH   3  16
ATOM     16  C   UNL     1      43.243   5.442  12.402  0.00  0.00    +0.000 C 
BRANCH  16  17
ATOM     17  C   UNL     1      43.027   4.473  11.238  0.00  0.00    +0.000 C 
BRANCH  17  18
ATOM     18  N   UNL     1      43.734   4.917  10.026  0.00  0.00    +0.000 N 
ATOM     19  H   UNL     1      44.234   5.795  10.154  0.00  0.00    +0.000 HD
BRANCH  18  20
ATOM     20  C   UNL     1      44.511   3.968   9.340  0.00  0.00    +0.000 A 
ATOM     21  C   UNL     1      45.409   4.308   8.325  0.00  0.00    +0.000 A 
ATOM     22  C   UNL     1      46.211   3.338   7.723  0.00  0.00    +0.000 A 
ATOM     23  C   UNL     1      46.118   2.033   8.173  0.00  0.00    +0.000 A 
ATOM     24  N   UNL     1      45.295   1.643   9.184  0.00  0.00    +0.000 NA
ATOM     25  C   UNL     1      44.538   2.626   9.744  0.00  0.00    +0.000 A 
BRANCH  23  26
ATOM     26  C   UNL     1      46.977   0.981   7.540  0.00  0.00    +0.000 C 
ATOM     27  N   UNL     1      48.018   1.447   6.783  0.00  0.00    +0.000 N 
ATOM     28  O   UNL     1      46.770  -0.217   7.681  0.00  0.00    +0.000 OA
ATOM     29  H   UNL     1      48.146   2.446   6.667  0.00  0.00    +0.000 HD
ATOM     30  H   UNL     1      48.616   0.789   6.305  0.00  0.00    +0.000 HD
ENDBRANCH  23  26
ENDBRANCH  18  20
ENDBRANCH  17  18
ENDBRANCH  16  17
ENDBRANCH   3  16
TORSDOF 7
ENDMDL
MODEL 2
REMARK VINA RESULT:    -8.144      2.209      2.582
REMARK INTER + INTRA:         -12.640
REMARK INTER:                 -11.534
REMARK INTRA:                  -1.105
REMARK UNBOUND:                -1.163
REMARK  Name = 
REMARK  8 active torsions:
REMARK  status: ('A' for Active; 'I' for Inactive)
REMARK    1  A    between atoms: C_1  and  O_2
REMARK    2  A    between atoms: O_2  and  C_3
REMARK    3  A    between atoms: C_5  and  C_6
REMARK    4  A    between atoms: C_6  and  C_7
REMARK    5  A    between atoms: C_7  and  N_8
REMARK    6  A    between atoms: N_8  and  C_9
REMARK    7  A    between atoms: C_12  and  C_13
REMARK    8  A    between atoms: C_19  and  C_20
REMARK                            x       y       z     vdW  Elec       q    Type
REMARK                         _______ _______ _______ _____ _____    ______ ____
ROOT
ATOM      1  C   UNL     1      46.648   5.611  13.730  0.00  0.00    +0.000 A 
ATOM      2  C   UNL     1      45.602   4.717  13.542  0.00  0.00    +0.000 A 
ATOM      3  C   UNL     1      44.492   5.138  12.818  0.00  0.00    +0.000 A 
ATOM      4  N   UNL     1      44.387   6.391  12.308  0.00  0.00    +0.000 NA
ATOM      5  C   UNL     1      45.407   7.269  12.510  0.00  0.00    +0.000 A 
ATOM      6  C   UNL     1      46.544   6.901  13.221  0.00  0.00    +0.000 A 
ENDROOT
BRANCH   5   7
ATOM      7  C   UNL     1      45.251   8.609  11.897  0.00  0.00    +0.000 A 
ATOM      8  C   UNL     1      46.193   9.627  12.143  0.00  0.00    +0.000 A 
ATOM      9  C   UNL     1      46.040  10.913  11.614  0.00  0.00    +0.000 A 
ATOM     10  C   UNL     1      44.940  11.212  10.816  0.00  0.00    +0.000 A 
ATOM     11  C   UNL     1      44.005  10.218  10.544  0.00  0.00    +0.000 A 
ATOM     12 CL   UNL     1      42.642  10.579   9.555  0.00  0.00    +0.000 Cl
ATOM     13  C   UNL     1      44.158   8.932  11.069  0.00  0.00    +0.000 A 
ENDBRANCH   5   7
BRANCH   1  15
ATOM     14  C   UNL     1      47.635   4.647  15.649  0.00  0.00    +0.000 C 
ATOM     15  O   UNL     1      47.798   5.350  14.422  0.00  0.00    +0.000 OA
ENDBRANCH   1  15
BRANCH   3  16
ATOM     16  C   UNL     1      43.323   4.203  12.604  0.00  0.00    +0.000 C 
BRANCH  16  17
ATOM     17  C   UNL     1      43.586   3.265  11.424  0.00  0.00    +0.000 C 
BRANCH  17  18
ATOM     18  N   UNL     1      43.765   4.012  10.169  0.00  0.00    +0.000 N 
ATOM     19  H   UNL     1      43.905   5.010  10.314  0.00  0.00    +0.000 HD
BRANCH  18  20
ATOM     20  C   UNL     1      44.663   3.490   9.222  0.00  0.00    +0.000 A 
ATOM     21  C   UNL     1      45.392   4.292   8.340  0.00  0.00    +0.000 A 
ATOM     22  C   UNL     1      46.325   3.732   7.467  0.00  0.00    +0.000 A 
ATOM     23  C   UNL     1      46.535   2.366   7.514  0.00  0.00    +0.000 A 
ATOM     24  N   UNL     1      45.890   1.534   8.376  0.00  0.00    +0.000 NA
ATOM     25  C   UNL     1      44.994   2.128   9.212  0.00  0.00    +0.000 A 
BRANCH  23  26
ATOM     26  C   UNL     1      47.538   1.750   6.586  0.00  0.00    +0.000 C 
ATOM     27  N   UNL     1      48.667   2.492   6.362  0.00  0.00    +0.000 N 
ATOM     28  O   UNL     1      47.370   0.659   6.056  0.00  0.00    +0.000 OA
ATOM     29  H   UNL     1      48.762   3.402   6.798  0.00  0.00    +0.000 HD
ATOM     30  H   UNL     1      49.368   2.147   5.724  0.00  0.00    +0.000 HD
ENDBRANCH  23  26
ENDBRANCH  18  20
ENDBRANCH  17  18
ENDBRANCH  16  17
ENDBRANCH   3  16
TORSDOF 7
ENDMDL
MODEL 3
REMARK VINA RESULT:    -8.019      1.416      1.830
REMARK INTER + INTRA:         -12.463
REMARK INTER:                 -11.417
REMARK INTRA:                  -1.046
REMARK UNBOUND:                -1.163
REMARK  Name = 
REMARK  8 active torsions:
REMARK  status: ('A' for Active; 'I' for Inactive)
REMARK    1  A    between atoms: C_1  and  O_2
REMARK    2  A    between atoms: O_2  and  C_3
REMARK    3  A    between atoms: C_5  and  C_6
REMARK    4  A    between atoms: C_6  and  C_7
REMARK    5  A    between atoms: C_7  and  N_8
REMARK    6  A    between atoms: N_8  and  C_9
REMARK    7  A    between atoms: C_12  and  C_13
REMARK    8  A    between atoms: C_19  and  C_20
REMARK                            x       y       z     vdW  Elec       q    Type
REMARK                         _______ _______ _______ _____ _____    ______ ____
ROOT
ATOM      1  C   UNL     1      46.825   4.376  13.910  0.00  0.00    +0.000 A 
ATOM      2  C   UNL     1      45.487   4.316  13.543  0.00  0.00    +0.000 A 
ATOM      3  C   UNL     1      44.961   5.356  12.784  0.00  0.00    +0.000 A 
ATOM      4  N   UNL     1      45.699   6.429  12.408  0.00  0.00    +0.000 NA
ATOM      5  C   UNL     1      47.006   6.492  12.784  0.00  0.00    +0.000 A 
ATOM      6  C   UNL     1      47.587   5.479  13.539  0.00  0.00    +0.000 A 
ENDROOT
BRANCH   5   7
ATOM      7  C   UNL     1      47.770   7.670  12.312  0.00  0.00    +0.000 A 
ATOM      8  C   UNL     1      49.114   7.543  11.914  0.00  0.00    +0.000 A 
ATOM      9  C   UNL     1      49.869   8.650  11.509  0.00  0.00    +0.000 A 
ATOM     10  C   UNL     1      49.292   9.915  11.489  0.00  0.00    +0.000 A 
ATOM     11  C   UNL     1      47.961  10.064  11.861  0.00  0.00    +0.000 A 
ATOM     12 CL   UNL     1      47.238  11.627  11.835  0.00  0.00    +0.000 Cl
ATOM     13  C   UNL     1      47.204   8.959  12.261  0.00  0.00    +0.000 A 
ENDBRANCH   5   7
BRANCH   1  15
ATOM     14  C   UNL     1      47.600   3.727  16.047  0.00  0.00    +0.000 C 
ATOM     15  O   UNL     1      47.484   3.439  14.658  0.00  0.00    +0.000 OA
ENDBRANCH   1  15
BRANCH   3  16
ATOM     16  C   UNL     1      43.504   5.339  12.377  0.00  0.00    +0.000 C 
BRANCH  16  17
ATOM     17  C   UNL     1      43.364   5.169  10.863  0.00  0.00    +0.000 C 
BRANCH  17  18
ATOM     18  N   UNL     1      43.482   3.757  10.466  0.00  0.00    +0.000 N 
ATOM     19  H   UNL     1      42.592   3.339  10.201  0.00  0.00    +0.000 HD
BRANCH  18  20
ATOM     20  C   UNL     1      44.507   3.417   9.566  0.00  0.00    +0.000 A 
ATOM     21  C   UNL     1      44.925   2.102   9.347  0.00  0.00    +0.000 A 
ATOM     22  C   UNL     1      45.897   1.808   8.390  0.00  0.00    +0.000 A 
ATOM     23  C   UNL     1      46.420   2.847   7.641  0.00  0.00    +0.000 A 
ATOM     24  N   UNL     1      46.029   4.143   7.776  0.00  0.00    +0.000 NA
ATOM     25  C   UNL     1      45.074   4.378   8.717  0.00  0.00    +0.000 A 
BRANCH  23  26
ATOM     26  C   UNL     1      47.461   2.547   6.606  0.00  0.00    +0.000 C 
ATOM     27  N   UNL     1      47.332   3.227   5.425  0.00  0.00    +0.000 N 
ATOM     28  O   UNL     1      48.370   1.748   6.792  0.00  0.00    +0.000 OA
ATOM     29  H   UNL     1      46.553   3.863   5.297  0.00  0.00    +0.000 HD
ATOM     30  H   UNL     1      47.984   3.048   4.677  0.00  0.00    +0.000 HD
ENDBRANCH  23  26
ENDBRANCH  18  20
ENDBRANCH  17  18
ENDBRANCH  16  17
ENDBRANCH   3  16
TORSDOF 7
ENDMDL
MODEL 4
REMARK VINA RESULT:    -7.887      2.322      4.263
REMARK INTER + INTRA:         -12.277
REMARK INTER:                 -11.581
REMARK INTRA:                  -0.696
REMARK UNBOUND:                -1.163
REMARK  Name = 
REMARK  8 active torsions:
REMARK  status: ('A' for Active; 'I' for Inactive)
REMARK    1  A    between atoms: C_1  and  O_2
REMARK    2  A    between atoms: O_2  and  C_3
REMARK    3  A    between atoms: C_5  and  C_6
REMARK    4  A    between atoms: C_6  and  C_7
REMARK    5  A    between atoms: C_7  and  N_8
REMARK    6  A    between atoms: N_8  and  C_9
REMARK    7  A    between atoms: C_12  and  C_13
REMARK    8  A    between atoms: C_19  and  C_20
REMARK                            x       y       z     vdW  Elec       q    Type
REMARK                         _______ _______ _______ _____ _____    ______ ____
ROOT
ATOM      1  C   UNL     1      46.867   6.236  12.249  0.00  0.00    +0.000 A 
ATOM      2  C   UNL     1      45.604   5.717  11.997  0.00  0.00    +0.000 A 
ATOM      3  C   UNL     1      45.053   4.836  12.921  0.00  0.00    +0.000 A 
ATOM      4  N   UNL     1      45.710   4.454  14.045  0.00  0.00    +0.000 NA
ATOM      5  C   UNL     1      46.955   4.952  14.279  0.00  0.00    +0.000 A 
ATOM      6  C   UNL     1      47.553   5.841  13.392  0.00  0.00    +0.000 A 
ENDROOT
BRANCH   5   7
ATOM      7  C   UNL     1      47.606   4.527  15.540  0.00  0.00    +0.000 A 
ATOM      8  C   UNL     1      47.720   3.163  15.867  0.00  0.00    +0.000 A 
ATOM      9  C   UNL     1      48.289   2.741  17.074  0.00  0.00    +0.000 A 
ATOM     10  C   UNL     1      48.764   3.679  17.985  0.00  0.00    +0.000 A 
ATOM     11  C   UNL     1      48.678   5.033  17.677  0.00  0.00    +0.000 A 
ATOM     12 CL   UNL     1      49.267   6.201  18.798  0.00  0.00    +0.000 Cl
ATOM     13  C   UNL     1      48.114   5.455  16.470  0.00  0.00    +0.000 A 
ENDBRANCH   5   7
BRANCH   1  15
ATOM     14  C   UNL     1      48.733   7.662  11.982  0.00  0.00    +0.000 C 
ATOM     15  O   UNL     1      47.543   7.104  11.436  0.00  0.00    +0.000 OA
ENDBRANCH   1  15
BRANCH   3  16
ATOM     16  C   UNL     1      43.687   4.234  12.678  0.00  0.00    +0.000 C 
BRANCH  16  17
ATOM     17  C   UNL     1      43.742   3.196  11.556  0.00  0.00    +0.000 C 
BRANCH  17  18
ATOM     18  N   UNL     1      43.747   3.834  10.230  0.00  0.00    +0.000 N 
ATOM     19  H   UNL     1      43.758   4.851  10.275  0.00  0.00    +0.000 HD
BRANCH  18  20
ATOM     20  C   UNL     1      44.653   3.342   9.274  0.00  0.00    +0.000 A 
ATOM     21  C   UNL     1      45.354   4.170   8.392  0.00  0.00    +0.000 A 
ATOM     22  C   UNL     1      46.297   3.641   7.510  0.00  0.00    +0.000 A 
ATOM     23  C   UNL     1      46.545   2.281   7.547  0.00  0.00    +0.000 A 
ATOM     24  N   UNL     1      45.928   1.427   8.408  0.00  0.00    +0.000 NA
ATOM     25  C   UNL     1      45.022   1.990   9.253  0.00  0.00    +0.000 A 
BRANCH  23  26
ATOM     26  C   UNL     1      47.558   1.699   6.609  0.00  0.00    +0.000 C 
ATOM     27  N   UNL     1      48.629   2.504   6.326  0.00  0.00    +0.000 N 
ATOM     28  O   UNL     1      47.447   0.582   6.121  0.00  0.00    +0.000 OA
ATOM     29  H   UNL     1      48.678   3.433   6.729  0.00  0.00    +0.000 HD
ATOM     30  H   UNL     1      49.333   2.182   5.678  0.00  0.00    +0.000 HD
ENDBRANCH  23  26
ENDBRANCH  18  20
ENDBRANCH  17  18
ENDBRANCH  16  17
ENDBRANCH   3  16
TORSDOF 7
ENDMDL
MODEL 5
REMARK VINA RESULT:    -7.097      2.008      2.309
REMARK INTER + INTRA:         -11.163
REMARK INTER:                 -10.311
REMARK INTRA:                  -0.852
REMARK UNBOUND:                -1.163
REMARK  Name = 
REMARK  8 active torsions:
REMARK  status: ('A' for Active; 'I' for Inactive)
REMARK    1  A    between atoms: C_1  and  O_2
REMARK    2  A    between atoms: O_2  and  C_3
REMARK    3  A    between atoms: C_5  and  C_6
REMARK    4  A    between atoms: C_6  and  C_7
REMARK    5  A    between atoms: C_7  and  N_8
REMARK    6  A    between atoms: N_8  and  C_9
REMARK    7  A    between atoms: C_12  and  C_13
REMARK    8  A    between atoms: C_19  and  C_20
REMARK                            x       y       z     vdW  Elec       q    Type
REMARK                         _______ _______ _______ _____ _____    ______ ____
ROOT
ATOM      1  C   UNL     1      46.979   4.661  14.427  0.00  0.00    +0.000 A 
ATOM      2  C   UNL     1      46.209   4.846  13.285  0.00  0.00    +0.000 A 
ATOM      3  C   UNL     1      46.388   6.012  12.547  0.00  0.00    +0.000 A 
ATOM      4  N   UNL     1      47.270   6.976  12.911  0.00  0.00    +0.000 NA
ATOM      5  C   UNL     1      48.010   6.798  14.039  0.00  0.00    +0.000 A 
ATOM      6  C   UNL     1      47.877   5.650  14.814  0.00  0.00    +0.000 A 
ENDROOT
BRANCH   5   7
ATOM      7  C   UNL     1      48.981   7.868  14.364  0.00  0.00    +0.000 A 
ATOM      8  C   UNL     1      50.276   7.551  14.818  0.00  0.00    +0.000 A 
ATOM      9  C   UNL     1      51.194   8.545  15.176  0.00  0.00    +0.000 A 
ATOM     10  C   UNL     1      50.838   9.887  15.082  0.00  0.00    +0.000 A 
ATOM     11  C   UNL     1      49.571  10.226  14.620  0.00  0.00    +0.000 A 
ATOM     12 CL   UNL     1      49.124  11.885  14.497  0.00  0.00    +0.000 Cl
ATOM     13  C   UNL     1      48.655   9.234  14.258  0.00  0.00    +0.000 A 
ENDBRANCH   5   7
BRANCH   1  15
ATOM     14  C   UNL     1      47.481   3.755  16.551  0.00  0.00    +0.000 C 
ATOM     15  O   UNL     1      46.914   3.577  15.258  0.00  0.00    +0.000 OA
ENDBRANCH   1  15
BRANCH   3  16
ATOM     16  C   UNL     1      45.559   6.262  11.308  0.00  0.00    +0.000 C 
BRANCH  16  17
ATOM     17  C   UNL     1      44.380   5.290  11.236  0.00  0.00    +0.000 C 
BRANCH  17  18
ATOM     18  N   UNL     1      44.002   5.001   9.843  0.00  0.00    +0.000 N 
ATOM     19  H   UNL     1      43.897   5.839   9.275  0.00  0.00    +0.000 HD
BRANCH  18  20
ATOM     20  C   UNL     1      44.720   3.998   9.169  0.00  0.00    +0.000 A 
ATOM     21  C   UNL     1      45.630   4.271   8.144  0.00  0.00    +0.000 A 
ATOM     22  C   UNL     1      46.373   3.248   7.554  0.00  0.00    +0.000 A 
ATOM     23  C   UNL     1      46.208   1.958   8.025  0.00  0.00    +0.000 A 
ATOM     24  N   UNL     1      45.370   1.630   9.045  0.00  0.00    +0.000 NA
ATOM     25  C   UNL     1      44.673   2.663   9.593  0.00  0.00    +0.000 A 
BRANCH  23  26
ATOM     26  C   UNL     1      47.002   0.849   7.404  0.00  0.00    +0.000 C 
ATOM     27  N   UNL     1      47.895   1.231   6.440  0.00  0.00    +0.000 N 
ATOM     28  O   UNL     1      46.869  -0.324   7.728  0.00  0.00    +0.000 OA
ATOM     29  H   UNL     1      47.962   2.209   6.179  0.00  0.00    +0.000 HD
ATOM     30  H   UNL     1      48.439   0.529   5.962  0.00  0.00    +0.000 HD
ENDBRANCH  23  26
ENDBRANCH  18  20
ENDBRANCH  17  18
ENDBRANCH  16  17
ENDBRANCH   3  16
TORSDOF 7
ENDMDL
MODEL 6
REMARK VINA RESULT:    -6.873      3.823      7.458
REMARK INTER + INTRA:         -10.848
REMARK INTER:                  -9.392
REMARK INTRA:                  -1.456
REMARK UNBOUND:                -1.163
REMARK  Name = 
REMARK  8 active torsions:
REMARK  status: ('A' for Active; 'I' for Inactive)
REMARK    1  A    between atoms: C_1  and  O_2
REMARK    2  A    between atoms: O_2  and  C_3
REMARK    3  A    between atoms: C_5  and  C_6
REMARK    4  A    between atoms: C_6  and  C_7
REMARK    5  A    between atoms: C_7  and  N_8
REMARK    6  A    between atoms: N_8  and  C_9
REMARK    7  A    between atoms: C_12  and  C_13
REMARK    8  A    between atoms: C_19  and  C_20
REMARK                            x       y       z     vdW  Elec       q    Type
REMARK                         _______ _______ _______ _____ _____    ______ ____
ROOT
ATOM      1  C   UNL     1      45.387   9.453  12.040  0.00  0.00    +0.000 A 
ATOM      2  C   UNL     1      46.774   9.476  11.986  0.00  0.00    +0.000 A 
ATOM      3  C   UNL     1      47.452   8.267  11.869  0.00  0.00    +0.000 A 
ATOM      4  N   UNL     1      46.811   7.073  11.826  0.00  0.00    +0.000 NA
ATOM      5  C   UNL     1      45.452   7.055  11.897  0.00  0.00    +0.000 A 
ATOM      6  C   UNL     1      44.721   8.233  12.009  0.00  0.00    +0.000 A 
ENDROOT
BRANCH   5   7
ATOM      7  C   UNL     1      44.807   5.724  11.807  0.00  0.00    +0.000 A 
ATOM      8  C   UNL     1      44.090   5.197  12.898  0.00  0.00    +0.000 A 
ATOM      9  C   UNL     1      43.513   3.922  12.852  0.00  0.00    +0.000 A 
ATOM     10  C   UNL     1      43.636   3.144  11.705  0.00  0.00    +0.000 A 
ATOM     11  C   UNL     1      44.324   3.650  10.608  0.00  0.00    +0.000 A 
ATOM     12 CL   UNL     1      44.477   2.695   9.183  0.00  0.00    +0.000 Cl
ATOM     13  C   UNL     1      44.898   4.924  10.651  0.00  0.00    +0.000 A 
ENDBRANCH   5   7
BRANCH   1  15
ATOM     14  C   UNL     1      43.623  10.733  11.125  0.00  0.00    +0.000 C 
ATOM     15  O   UNL     1      44.581  10.552  12.161  0.00  0.00    +0.000 OA
ENDBRANCH   1  15
BRANCH   3  16
ATOM     16  C   UNL     1      48.964   8.244  11.824  0.00  0.00    +0.000 C 
BRANCH  16  17
ATOM     17  C   UNL     1      49.525   7.257  12.849  0.00  0.00    +0.000 C 
BRANCH  17  18
ATOM     18  N   UNL     1      49.134   7.622  14.220  0.00  0.00    +0.000 N 
ATOM     19  H   UNL     1      48.543   8.450  14.261  0.00  0.00    +0.000 HD
BRANCH  18  20
ATOM     20  C   UNL     1      48.656   6.597  15.055  0.00  0.00    +0.000 A 
ATOM     21  C   UNL     1      47.701   5.662  14.645  0.00  0.00    +0.000 A 
ATOM     22  C   UNL     1      47.311   4.620  15.486  0.00  0.00    +0.000 A 
ATOM     23  C   UNL     1      47.911   4.515  16.728  0.00  0.00    +0.000 A 
ATOM     24  N   UNL     1      48.874   5.367  17.173  0.00  0.00    +0.000 NA
ATOM     25  C   UNL     1      49.226   6.363  16.314  0.00  0.00    +0.000 A 
BRANCH  23  26
ATOM     26  C   UNL     1      47.506   3.398  17.641  0.00  0.00    +0.000 C 
ATOM     27  N   UNL     1      48.320   3.197  18.723  0.00  0.00    +0.000 N 
ATOM     28  O   UNL     1      46.518   2.703  17.442  0.00  0.00    +0.000 OA
ATOM     29  H   UNL     1      49.144   3.775  18.845  0.00  0.00    +0.000 HD
ATOM     30  H   UNL     1      48.118   2.441  19.361  0.00  0.00    +0.000 HD
ENDBRANCH  23  26
ENDBRANCH  18  20
ENDBRANCH  17  18
ENDBRANCH  16  17
ENDBRANCH   3  16
TORSDOF 7
ENDMDL
MODEL 7
REMARK VINA RESULT:    -6.570      3.924      7.715
REMARK INTER + INTRA:         -10.421
REMARK INTER:                  -9.670
REMARK INTRA:                  -0.751
REMARK UNBOUND:                -1.163
REMARK  Name = 
REMARK  8 active torsions:
REMARK  status: ('A' for Active; 'I' for Inactive)
REMARK    1  A    between atoms: C_1  and  O_2
REMARK    2  A    between atoms: O_2  and  C_3
REMARK    3  A    between atoms: C_5  and  C_6
REMARK    4  A    between atoms: C_6  and  C_7
REMARK    5  A    between atoms: C_7  and  N_8
REMARK    6  A    between atoms: N_8  and  C_9
REMARK    7  A    between atoms: C_12  and  C_13
REMARK    8  A    between atoms: C_19  and  C_20
REMARK                            x       y       z     vdW  Elec       q    Type
REMARK                         _______ _______ _______ _____ _____    ______ ____
ROOT
ATOM      1  C   UNL     1      45.518   8.620  12.429  0.00  0.00    +0.000 A 
ATOM      2  C   UNL     1      46.707   8.463  13.129  0.00  0.00    +0.000 A 
ATOM      3  C   UNL     1      47.347   7.229  13.082  0.00  0.00    +0.000 A 
ATOM      4  N   UNL     1      46.842   6.173  12.396  0.00  0.00    +0.000 NA
ATOM      5  C   UNL     1      45.668   6.326  11.725  0.00  0.00    +0.000 A 
ATOM      6  C   UNL     1      44.988   7.539  11.732  0.00  0.00    +0.000 A 
ENDROOT
BRANCH   5   7
ATOM      7  C   UNL     1      45.188   5.150  10.964  0.00  0.00    +0.000 A 
ATOM      8  C   UNL     1      44.375   4.178  11.578  0.00  0.00    +0.000 A 
ATOM      9  C   UNL     1      43.949   3.035  10.892  0.00  0.00    +0.000 A 
ATOM     10  C   UNL     1      44.324   2.839   9.566  0.00  0.00    +0.000 A 
ATOM     11  C   UNL     1      45.112   3.794   8.932  0.00  0.00    +0.000 A 
ATOM     12 CL   UNL     1      45.577   3.561   7.290  0.00  0.00    +0.000 Cl
ATOM     13  C   UNL     1      45.535   4.938   9.615  0.00  0.00    +0.000 A 
ENDBRANCH   5   7
BRANCH   1  15
ATOM     14  C   UNL     1      44.429  10.228  11.083  0.00  0.00    +0.000 C 
ATOM     15  O   UNL     1      44.771   9.764  12.384  0.00  0.00    +0.000 OA
ENDBRANCH   1  15
BRANCH   3  16
ATOM     16  C   UNL     1      48.635   7.010  13.843  0.00  0.00    +0.000 C 
BRANCH  16  17
ATOM     17  C   UNL     1      48.679   7.881  15.100  0.00  0.00    +0.000 C 
BRANCH  17  18
ATOM     18  N   UNL     1      48.169   7.159  16.276  0.00  0.00    +0.000 N 
ATOM     19  H   UNL     1      47.157   7.044  16.268  0.00  0.00    +0.000 HD
BRANCH  18  20
ATOM     20  C   UNL     1      48.826   5.973  16.648  0.00  0.00    +0.000 A 
ATOM     21  C   UNL     1      48.164   4.752  16.805  0.00  0.00    +0.000 A 
ATOM     22  C   UNL     1      48.871   3.587  17.105  0.00  0.00    +0.000 A 
ATOM     23  C   UNL     1      50.247   3.661  17.216  0.00  0.00    +0.000 A 
ATOM     24  N   UNL     1      50.956   4.809  17.036  0.00  0.00    +0.000 NA
ATOM     25  C   UNL     1      50.223   5.916  16.739  0.00  0.00    +0.000 A 
BRANCH  23  26
ATOM     26  C   UNL     1      51.021   2.418  17.533  0.00  0.00    +0.000 C 
ATOM     27  N   UNL     1      52.003   2.559  18.476  0.00  0.00    +0.000 N 
ATOM     28  O   UNL     1      50.800   1.343  16.990  0.00  0.00    +0.000 OA
ATOM     29  H   UNL     1      52.175   3.469  18.888  0.00  0.00    +0.000 HD
ATOM     30  H   UNL     1      52.580   1.765  18.713  0.00  0.00    +0.000 HD
ENDBRANCH  23  26
ENDBRANCH  18  20
ENDBRANCH  17  18
ENDBRANCH  16  17
ENDBRANCH   3  16
TORSDOF 7
ENDMDL
MODEL 8
REMARK VINA RESULT:    -6.261      3.878      6.384
REMARK INTER + INTRA:          -9.986
REMARK INTER:                  -8.576
REMARK INTRA:                  -1.410
REMARK UNBOUND:                -1.163
REMARK  Name = 
REMARK  8 active torsions:
REMARK  status: ('A' for Active; 'I' for Inactive)
REMARK    1  A    between atoms: C_1  and  O_2
REMARK    2  A    between atoms: O_2  and  C_3
REMARK    3  A    between atoms: C_5  and  C_6
REMARK    4  A    between atoms: C_6  and  C_7
REMARK    5  A    between atoms: C_7  and  N_8
REMARK    6  A    between atoms: N_8  and  C_9
REMARK    7  A    between atoms: C_12  and  C_13
REMARK    8  A    between atoms: C_19  and  C_20
REMARK                            x       y       z     vdW  Elec       q    Type
REMARK                         _______ _______ _______ _____ _____    ______ ____
ROOT
ATOM      1  C   UNL     1      48.195   8.960  17.832  0.00  0.00    +0.000 A 
ATOM      2  C   UNL     1      48.229   9.515  16.560  0.00  0.00    +0.000 A 
ATOM      3  C   UNL     1      48.508   8.682  15.481  0.00  0.00    +0.000 A 
ATOM      4  N   UNL     1      48.764   7.358  15.630  0.00  0.00    +0.000 NA
ATOM      5  C   UNL     1      48.745   6.822  16.881  0.00  0.00    +0.000 A 
ATOM      6  C   UNL     1      48.467   7.606  17.996  0.00  0.00    +0.000 A 
ENDROOT
BRANCH   5   7
ATOM      7  C   UNL     1      48.995   5.365  16.976  0.00  0.00    +0.000 A 
ATOM      8  C   UNL     1      47.953   4.441  16.768  0.00  0.00    +0.000 A 
ATOM      9  C   UNL     1      48.156   3.063  16.899  0.00  0.00    +0.000 A 
ATOM     10  C   UNL     1      49.413   2.573  17.238  0.00  0.00    +0.000 A 
ATOM     11  C   UNL     1      50.463   3.465  17.433  0.00  0.00    +0.000 A 
ATOM     12 CL   UNL     1      52.023   2.867  17.850  0.00  0.00    +0.000 Cl
ATOM     13  C   UNL     1      50.263   4.842  17.298  0.00  0.00    +0.000 A 
ENDBRANCH   5   7
BRANCH   1  15
ATOM     14  C   UNL     1      47.553   8.855  20.105  0.00  0.00    +0.000 C 
ATOM     15  O   UNL     1      47.943   9.647  18.988  0.00  0.00    +0.000 OA
ENDBRANCH   1  15
BRANCH   3  16
ATOM     16  C   UNL     1      48.572   9.247  14.080  0.00  0.00    +0.000 C 
BRANCH  16  17
ATOM     17  C   UNL     1      47.483   8.636  13.196  0.00  0.00    +0.000 C 
BRANCH  17  18
ATOM     18  N   UNL     1      47.936   7.386  12.566  0.00  0.00    +0.000 N 
ATOM     19  H   UNL     1      48.811   7.037  12.953  0.00  0.00    +0.000 HD
BRANCH  18  20
ATOM     20  C   UNL     1      46.990   6.360  12.400  0.00  0.00    +0.000 A 
ATOM     21  C   UNL     1      46.681   5.439  13.405  0.00  0.00    +0.000 A 
ATOM     22  C   UNL     1      45.682   4.483  13.218  0.00  0.00    +0.000 A 
ATOM     23  C   UNL     1      44.984   4.484  12.024  0.00  0.00    +0.000 A 
ATOM     24  N   UNL     1      45.207   5.377  11.022  0.00  0.00    +0.000 NA
ATOM     25  C   UNL     1      46.186   6.294  11.254  0.00  0.00    +0.000 A 
BRANCH  23  26
ATOM     26  C   UNL     1      43.905   3.466  11.810  0.00  0.00    +0.000 C 
ATOM     27  N   UNL     1      43.848   2.463  12.741  0.00  0.00    +0.000 N 
ATOM     28  O   UNL     1      43.123   3.515  10.870  0.00  0.00    +0.000 OA
ATOM     29  H   UNL     1      44.527   2.439  13.494  0.00  0.00    +0.000 HD
ATOM     30  H   UNL     1      43.163   1.730  12.638  0.00  0.00    +0.000 HD
ENDBRANCH  23  26
ENDBRANCH  18  20
ENDBRANCH  17  18
ENDBRANCH  16  17
ENDBRANCH   3  16
TORSDOF 7
ENDMDL
MODEL 9
REMARK VINA RESULT:    -6.192      3.621      6.170
REMARK INTER + INTRA:          -9.888
REMARK INTER:                  -8.592
REMARK INTRA:                  -1.296
REMARK UNBOUND:                -1.163
REMARK  Name = 
REMARK  8 active torsions:
REMARK  status: ('A' for Active; 'I' for Inactive)
REMARK    1  A    between atoms: C_1  and  O_2
REMARK    2  A    between atoms: O_2  and  C_3
REMARK    3  A    between atoms: C_5  and  C_6
REMARK    4  A    between atoms: C_6  and  C_7
REMARK    5  A    between atoms: C_7  and  N_8
REMARK    6  A    between atoms: N_8  and  C_9
REMARK    7  A    between atoms: C_12  and  C_13
REMARK    8  A    between atoms: C_19  and  C_20
REMARK                            x       y       z     vdW  Elec       q    Type
REMARK                         _______ _______ _______ _____ _____    ______ ____
ROOT
ATOM      1  C   UNL     1      51.180   8.630  14.551  0.00  0.00    +0.000 A 
ATOM      2  C   UNL     1      50.367   8.542  13.429  0.00  0.00    +0.000 A 
ATOM      3  C   UNL     1      49.314   7.633  13.443  0.00  0.00    +0.000 A 
ATOM      4  N   UNL     1      49.066   6.822  14.502  0.00  0.00    +0.000 NA
ATOM      5  C   UNL     1      49.875   6.900  15.593  0.00  0.00    +0.000 A 
ATOM      6  C   UNL     1      50.940   7.793  15.637  0.00  0.00    +0.000 A 
ENDROOT
BRANCH   5   7
ATOM      7  C   UNL     1      49.531   6.016  16.731  0.00  0.00    +0.000 A 
ATOM      8  C   UNL     1      50.193   6.144  17.967  0.00  0.00    +0.000 A 
ATOM      9  C   UNL     1      49.918   5.288  19.040  0.00  0.00    +0.000 A 
ATOM     10  C   UNL     1      48.966   4.284  18.903  0.00  0.00    +0.000 A 
ATOM     11  C   UNL     1      48.286   4.148  17.697  0.00  0.00    +0.000 A 
ATOM     12 CL   UNL     1      47.103   2.909  17.520  0.00  0.00    +0.000 Cl
ATOM     13  C   UNL     1      48.557   5.004  16.626  0.00  0.00    +0.000 A 
ENDBRANCH   5   7
BRANCH   1  15
ATOM     14  C   UNL     1      53.513   8.920  14.305  0.00  0.00    +0.000 C 
ATOM     15  O   UNL     1      52.254   9.465  14.687  0.00  0.00    +0.000 OA
ENDBRANCH   1  15
BRANCH   3  16
ATOM     16  C   UNL     1      48.414   7.492  12.236  0.00  0.00    +0.000 C 
BRANCH  16  17
ATOM     17  C   UNL     1      47.104   8.256  12.441  0.00  0.00    +0.000 C 
BRANCH  17  18
ATOM     18  N   UNL     1      46.150   7.483  13.253  0.00  0.00    +0.000 N 
ATOM     19  H   UNL     1      45.401   8.052  13.641  0.00  0.00    +0.000 HD
BRANCH  18  20
ATOM     20  C   UNL     1      45.666   6.277  12.717  0.00  0.00    +0.000 A 
ATOM     21  C   UNL     1      45.914   5.030  13.299  0.00  0.00    +0.000 A 
ATOM     22  C   UNL     1      45.351   3.868  12.770  0.00  0.00    +0.000 A 
ATOM     23  C   UNL     1      44.520   3.979  11.670  0.00  0.00    +0.000 A 
ATOM     24  N   UNL     1      44.206   5.165  11.081  0.00  0.00    +0.000 NA
ATOM     25  C   UNL     1      44.773   6.270  11.637  0.00  0.00    +0.000 A 
BRANCH  23  26
ATOM     26  C   UNL     1      43.904   2.741  11.094  0.00  0.00    +0.000 C 
ATOM     27  N   UNL     1      44.526   2.236   9.983  0.00  0.00    +0.000 N 
ATOM     28  O   UNL     1      42.912   2.208  11.573  0.00  0.00    +0.000 OA
ATOM     29  H   UNL     1      45.331   2.716   9.598  0.00  0.00    +0.000 HD
ATOM     30  H   UNL     1      44.143   1.420   9.529  0.00  0.00    +0.000 HD
ENDBRANCH  23  26
ENDBRANCH  18  20
ENDBRANCH  17  18
ENDBRANCH  16  17
ENDBRANCH   3  16
TORSDOF 7
ENDMDL
