MODEL 1
REMARK VINA RESULT:    -8.600      0.000      0.000
REMARK INTER + INTRA:         -13.579
REMARK INTER:                 -12.119
REMARK INTRA:                  -1.460
REMARK UNBOUND:                -1.460
REMARK  Name = 
REMARK  7 active torsions:
REMARK  status: ('A' for Active; 'I' for Inactive)
REMARK    1  A    between atoms: C_2  and  C_4
REMARK    2  A    between atoms: C_4  and  N_5
REMARK    3  A    between atoms: C_4  and  C_18
REMARK    4  A    between atoms: C_6  and  C_8
REMARK    5  A    between atoms: C_21  and  C_22
REMARK    6  A    between atoms: C_22  and  N_23
REMARK    7  A    between atoms: C_24  and  C_26
REMARK                            x       y       z     vdW  Elec       q    Type
REMARK                         _______ _______ _______ _____ _____    ______ ____
ROOT
ATOM      1  C   UNL     1      48.241   6.799  14.157  0.00  0.00    +0.000 C 
ENDROOT
BRANCH   1   2
ATOM      2  C   UNL     1      47.214   5.996  13.369  0.00  0.00    +0.000 A 
ATOM      3  C   UNL     1      46.620   6.541  12.220  0.00  0.00    +0.000 A 
ATOM      4  C   UNL     1      45.721   5.789  11.449  0.00  0.00    +0.000 A 
ATOM      5  C   UNL     1      45.389   4.476  11.811  0.00  0.00    +0.000 A 
ATOM      6  C   UNL     1      45.975   3.932  12.960  0.00  0.00    +0.000 A 
ATOM      7  C   UNL     1      46.869   4.683  13.730  0.00  0.00    +0.000 A 
BRANCH   5   8
ATOM      8  C   UNL     1      44.437   3.657  10.976  0.00  0.00    +0.000 C 
BRANCH   8   9
ATOM      9  N   UNL     1      45.128   2.911   9.948  0.00  0.00    +0.000 N 
ATOM     10  C   UNL     1      45.332   3.464   8.702  0.00  0.00    +0.000 C 
ATOM     11  O   UNL     1      44.949   4.588   8.394  0.00  0.00    +0.000 OA
ATOM     12  H   UNL     1      45.647   2.092  10.228  0.00  0.00    +0.000 HD
BRANCH  10  13
ATOM     13  C   UNL     1      46.080   2.632   7.714  0.00  0.00    +0.000 A 
ATOM     14  C   UNL     1      46.456   1.313   7.997  0.00  0.00    +0.000 A 
ATOM     15  C   UNL     1      47.133   0.551   7.039  0.00  0.00    +0.000 A 
ATOM     16  C   UNL     1      47.431   1.103   5.793  0.00  0.00    +0.000 A 
ATOM     17  C   UNL     1      47.049   2.410   5.499  0.00  0.00    +0.000 A 
ATOM     18  C   UNL     1      46.368   3.173   6.456  0.00  0.00    +0.000 A 
ENDBRANCH  10  13
ENDBRANCH   8   9
ENDBRANCH   5   8
ENDBRANCH   1   2
BRANCH   1  20
ATOM     19  N   UNL     1      47.238   8.960  14.818  0.00  0.00    +0.000 N 
ATOM     20  C   UNL     1      48.111   8.333  13.962  0.00  0.00    +0.000 C 
ATOM     21  O   UNL     1      48.639   8.982  13.063  0.00  0.00    +0.000 OA
ATOM     22  H   UNL     1      47.029   9.928  14.609  0.00  0.00    +0.000 HD
ATOM     23  H   UNL     1      46.513   8.418  15.280  0.00  0.00    +0.000 HD
ENDBRANCH   1  20
BRANCH   1  24
ATOM     24  N   UNL     1      48.124   6.506  15.582  0.00  0.00    +0.000 N 
ATOM     25  C   UNL     1      49.199   6.232  16.379  0.00  0.00    +0.000 C 
ATOM     26  O   UNL     1      50.346   6.224  15.934  0.00  0.00    +0.000 OA
ATOM     27  H   UNL     1      47.188   6.503  15.971  0.00  0.00    +0.000 HD
BRANCH  25  28
ATOM     28  C   UNL     1      48.918   6.006  17.806  0.00  0.00    +0.000 A 
ATOM     29  C   UNL     1      49.174   4.767  18.375  0.00  0.00    +0.000 A 
ATOM     30  S   UNL     1      48.792   4.681  20.035  0.00  0.00    +0.000 S 
ATOM     31  C   UNL     1      48.223   6.283  20.045  0.00  0.00    +0.000 A 
ATOM     32  N   UNL     1      47.700   6.832  21.174  0.00  0.00    +0.000 NA
ATOM     33  C   UNL     1      47.277   8.045  21.034  0.00  0.00    +0.000 A 
ATOM     34  N   UNL     1      47.345   8.762  19.868  0.00  0.00    +0.000 N 
ATOM     35  C   UNL     1      47.925   8.271  18.723  0.00  0.00    +0.000 A 
ATOM     36  O   UNL     1      48.078   8.982  17.737  0.00  0.00    +0.000 OA
ATOM     37  C   UNL     1      48.366   6.891  18.811  0.00  0.00    +0.000 A 
ATOM     38  H   UNL     1      47.033   9.720  19.833  0.00  0.00    +0.000 HD
ENDBRANCH  25  28
ENDBRANCH   1  24
TORSDOF 7
ENDMDL
MODEL 2
REMARK VINA RESULT:    -8.450      2.755      4.382
REMARK INTER + INTRA:         -13.368
REMARK INTER:                 -12.207
REMARK INTRA:                  -1.161
REMARK UNBOUND:                -1.460
REMARK  Name = 
REMARK  7 active torsions:
REMARK  status: ('A' for Active; 'I' for Inactive)
REMARK    1  A    between atoms: C_2  and  C_4
REMARK    2  A    between atoms: C_4  and  N_5
REMARK    3  A    between atoms: C_4  and  C_18
REMARK    4  A    between atoms: C_6  and  C_8
REMARK    5  A    between atoms: C_21  and  C_22
REMARK    6  A    between atoms: C_22  and  N_23
REMARK    7  A    between atoms: C_24  and  C_26
REMARK                            x       y       z     vdW  Elec       q    Type
REMARK                         _______ _______ _______ _____ _____    ______ ____
ROOT
ATOM      1  C   UNL     1      46.934   5.005  15.023  0.00  0.00    +0.000 C 
ENDROOT
BRANCH   1   2
ATOM      2  C   UNL     1      46.085   4.818  13.772  0.00  0.00    +0.000 A 
ATOM      3  C   UNL     1      45.440   5.917  13.183  0.00  0.00    +0.000 A 
ATOM      4  C   UNL     1      44.708   5.771  11.996  0.00  0.00    +0.000 A 
ATOM      5  C   UNL     1      44.596   4.521  11.371  0.00  0.00    +0.000 A 
ATOM      6  C   UNL     1      45.233   3.422  11.959  0.00  0.00    +0.000 A 
ATOM      7  C   UNL     1      45.961   3.568  13.144  0.00  0.00    +0.000 A 
BRANCH   5   8
ATOM      8  C   UNL     1      43.824   4.361  10.085  0.00  0.00    +0.000 C 
BRANCH   8   9
ATOM      9  N   UNL     1      44.501   3.481   9.158  0.00  0.00    +0.000 N 
ATOM     10  C   UNL     1      45.514   3.959   8.354  0.00  0.00    +0.000 C 
ATOM     11  O   UNL     1      45.891   5.126   8.371  0.00  0.00    +0.000 OA
ATOM     12  H   UNL     1      44.377   2.486   9.276  0.00  0.00    +0.000 HD
BRANCH  10  13
ATOM     13  C   UNL     1      46.174   2.971   7.449  0.00  0.00    +0.000 A 
ATOM     14  C   UNL     1      46.582   3.317   6.156  0.00  0.00    +0.000 A 
ATOM     15  C   UNL     1      47.223   2.375   5.343  0.00  0.00    +0.000 A 
ATOM     16  C   UNL     1      47.462   1.088   5.823  0.00  0.00    +0.000 A 
ATOM     17  C   UNL     1      47.071   0.741   7.114  0.00  0.00    +0.000 A 
ATOM     18  C   UNL     1      46.432   1.683   7.931  0.00  0.00    +0.000 A 
ENDBRANCH  10  13
ENDBRANCH   8   9
ENDBRANCH   5   8
ENDBRANCH   1   2
BRANCH   1  20
ATOM     19  N   UNL     1      46.954   3.480  16.969  0.00  0.00    +0.000 N 
ATOM     20  C   UNL     1      47.378   3.669  15.676  0.00  0.00    +0.000 C 
ATOM     21  O   UNL     1      48.136   2.847  15.167  0.00  0.00    +0.000 OA
ATOM     22  H   UNL     1      47.355   2.690  17.457  0.00  0.00    +0.000 HD
ATOM     23  H   UNL     1      46.683   4.284  17.529  0.00  0.00    +0.000 HD
ENDBRANCH   1  20
BRANCH   1  24
ATOM     24  N   UNL     1      48.129   5.782  14.710  0.00  0.00    +0.000 N 
ATOM     25  C   UNL     1      48.828   6.489  15.647  0.00  0.00    +0.000 C 
ATOM     26  O   UNL     1      48.488   6.502  16.829  0.00  0.00    +0.000 OA
ATOM     27  H   UNL     1      48.427   5.789  13.741  0.00  0.00    +0.000 HD
BRANCH  25  28
ATOM     28  C   UNL     1      50.040   7.180  15.179  0.00  0.00    +0.000 A 
ATOM     29  C   UNL     1      51.192   7.157  15.952  0.00  0.00    +0.000 A 
ATOM     30  S   UNL     1      52.501   8.004  15.260  0.00  0.00    +0.000 S 
ATOM     31  C   UNL     1      51.562   8.477  13.924  0.00  0.00    +0.000 A 
ATOM     32  N   UNL     1      52.079   9.278  12.954  0.00  0.00    +0.000 NA
ATOM     33  C   UNL     1      51.249   9.585  12.013  0.00  0.00    +0.000 A 
ATOM     34  N   UNL     1      49.950   9.151  11.950  0.00  0.00    +0.000 N 
ATOM     35  C   UNL     1      49.406   8.288  12.872  0.00  0.00    +0.000 A 
ATOM     36  O   UNL     1      48.283   7.825  12.717  0.00  0.00    +0.000 OA
ATOM     37  C   UNL     1      50.281   7.956  13.981  0.00  0.00    +0.000 A 
ATOM     38  H   UNL     1      49.362   9.394  11.168  0.00  0.00    +0.000 HD
ENDBRANCH  25  28
ENDBRANCH   1  24
TORSDOF 7
ENDMDL
MODEL 3
REMARK VINA RESULT:    -8.222      2.841      4.142
REMARK INTER + INTRA:         -13.046
REMARK INTER:                 -12.052
REMARK INTRA:                  -0.994
REMARK UNBOUND:                -1.460
REMARK  Name = 
REMARK  7 active torsions:
REMARK  status: ('A' for Active; 'I' for Inactive)
REMARK    1  A    between atoms: C_2  and  C_4
REMARK    2  A    between atoms: C_4  and  N_5
REMARK    3  A    between atoms: C_4  and  C_18
REMARK    4  A    between atoms: C_6  and  C_8
REMARK    5  A    between atoms: C_21  and  C_22
REMARK    6  A    between atoms: C_22  and  N_23
REMARK    7  A    between atoms: C_24  and  C_26
REMARK                            x       y       z     vdW  Elec       q    Type
REMARK                         _______ _______ _______ _____ _____    ______ ____
ROOT
ATOM      1  C   UNL     1      46.938   5.025  15.036  0.00  0.00    +0.000 C 
ENDROOT
BRANCH   1   2
ATOM      2  C   UNL     1      46.216   4.882  13.701  0.00  0.00    +0.000 A 
ATOM      3  C   UNL     1      45.771   3.623  13.269  0.00  0.00    +0.000 A 
ATOM      4  C   UNL     1      45.050   3.486  12.074  0.00  0.00    +0.000 A 
ATOM      5  C   UNL     1      44.762   4.604  11.278  0.00  0.00    +0.000 A 
ATOM      6  C   UNL     1      45.209   5.860  11.703  0.00  0.00    +0.000 A 
ATOM      7  C   UNL     1      45.931   5.996  12.894  0.00  0.00    +0.000 A 
BRANCH   5   8
ATOM      8  C   UNL     1      43.972   4.465  10.001  0.00  0.00    +0.000 C 
BRANCH   8   9
ATOM      9  N   UNL     1      44.606   3.557   9.071  0.00  0.00    +0.000 N 
ATOM     10  C   UNL     1      45.645   3.987   8.273  0.00  0.00    +0.000 C 
ATOM     11  O   UNL     1      46.082   5.133   8.298  0.00  0.00    +0.000 OA
ATOM     12  H   UNL     1      44.432   2.569   9.183  0.00  0.00    +0.000 HD
BRANCH  10  13
ATOM     13  C   UNL     1      46.258   2.972   7.366  0.00  0.00    +0.000 A 
ATOM     14  C   UNL     1      46.589   3.275   6.040  0.00  0.00    +0.000 A 
ATOM     15  C   UNL     1      47.187   2.309   5.224  0.00  0.00    +0.000 A 
ATOM     16  C   UNL     1      47.462   1.040   5.732  0.00  0.00    +0.000 A 
ATOM     17  C   UNL     1      47.148   0.736   7.055  0.00  0.00    +0.000 A 
ATOM     18  C   UNL     1      46.552   1.702   7.875  0.00  0.00    +0.000 A 
ENDBRANCH  10  13
ENDBRANCH   8   9
ENDBRANCH   5   8
ENDBRANCH   1   2
BRANCH   1  20
ATOM     19  N   UNL     1      46.915   3.453  16.944  0.00  0.00    +0.000 N 
ATOM     20  C   UNL     1      47.358   3.669  15.661  0.00  0.00    +0.000 C 
ATOM     21  O   UNL     1      48.115   2.851  15.143  0.00  0.00    +0.000 OA
ATOM     22  H   UNL     1      47.302   2.647  17.418  0.00  0.00    +0.000 HD
ATOM     23  H   UNL     1      46.646   4.246  17.520  0.00  0.00    +0.000 HD
ENDBRANCH   1  20
BRANCH   1  24
ATOM     24  N   UNL     1      48.133   5.847  14.877  0.00  0.00    +0.000 N 
ATOM     25  C   UNL     1      48.757   6.468  15.921  0.00  0.00    +0.000 C 
ATOM     26  O   UNL     1      48.344   6.360  17.075  0.00  0.00    +0.000 OA
ATOM     27  H   UNL     1      48.490   5.955  13.935  0.00  0.00    +0.000 HD
BRANCH  25  28
ATOM     28  C   UNL     1      49.981   7.221  15.602  0.00  0.00    +0.000 A 
ATOM     29  C   UNL     1      49.903   8.379  14.841  0.00  0.00    +0.000 A 
ATOM     30  S   UNL     1      51.412   9.125  14.567  0.00  0.00    +0.000 S 
ATOM     31  C   UNL     1      52.234   7.900  15.413  0.00  0.00    +0.000 A 
ATOM     32  N   UNL     1      53.590   7.910  15.517  0.00  0.00    +0.000 NA
ATOM     33  C   UNL     1      54.087   6.906  16.159  0.00  0.00    +0.000 A 
ATOM     34  N   UNL     1      53.345   5.898  16.719  0.00  0.00    +0.000 N 
ATOM     35  C   UNL     1      51.971   5.882  16.697  0.00  0.00    +0.000 A 
ATOM     36  O   UNL     1      51.339   5.031  17.312  0.00  0.00    +0.000 OA
ATOM     37  C   UNL     1      51.364   6.960  15.939  0.00  0.00    +0.000 A 
ATOM     38  H   UNL     1      53.790   5.160  17.243  0.00  0.00    +0.000 HD
ENDBRANCH  25  28
ENDBRANCH   1  24
TORSDOF 7
ENDMDL
MODEL 4
REMARK VINA RESULT:    -8.109      1.447      2.203
REMARK INTER + INTRA:         -12.886
REMARK INTER:                 -11.751
REMARK INTRA:                  -1.136
REMARK UNBOUND:                -1.460
REMARK  Name = 
REMARK  7 active torsions:
REMARK  status: ('A' for Active; 'I' for Inactive)
REMARK    1  A    between atoms: C_2  and  C_4
REMARK    2  A    between atoms: C_4  and  N_5
REMARK    3  A    between atoms: C_4  and  C_18
REMARK    4  A    between atoms: C_6  and  C_8
REMARK    5  A    between atoms: C_21  and  C_22
REMARK    6  A    between atoms: C_22  and  N_23
REMARK    7  A    between atoms: C_24  and  C_26
REMARK                            x       y       z     vdW  Elec       q    Type
REMARK                         _______ _______ _______ _____ _____    ______ ____
ROOT
ATOM      1  C   UNL     1      48.192   7.025  13.832  0.00  0.00    +0.000 C 
ENDROOT
BRANCH   1   2
ATOM      2  C   UNL     1      47.186   6.101  13.157  0.00  0.00    +0.000 A 
ATOM      3  C   UNL     1      46.443   6.548  12.054  0.00  0.00    +0.000 A 
ATOM      4  C   UNL     1      45.561   5.688  11.384  0.00  0.00    +0.000 A 
ATOM      5  C   UNL     1      45.394   4.361  11.805  0.00  0.00    +0.000 A 
ATOM      6  C   UNL     1      46.129   3.914  12.909  0.00  0.00    +0.000 A 
ATOM      7  C   UNL     1      47.007   4.772  13.578  0.00  0.00    +0.000 A 
BRANCH   5   8
ATOM      8  C   UNL     1      44.460   3.427  11.078  0.00  0.00    +0.000 C 
BRANCH   8   9
ATOM      9  N   UNL     1      45.129   2.725  10.004  0.00  0.00    +0.000 N 
ATOM     10  C   UNL     1      45.258   3.309   8.762  0.00  0.00    +0.000 C 
ATOM     11  O   UNL     1      44.824   4.425   8.496  0.00  0.00    +0.000 OA
ATOM     12  H   UNL     1      45.688   1.919  10.243  0.00  0.00    +0.000 HD
BRANCH  10  13
ATOM     13  C   UNL     1      45.989   2.523   7.724  0.00  0.00    +0.000 A 
ATOM     14  C   UNL     1      46.342   3.083   6.490  0.00  0.00    +0.000 A 
ATOM     15  C   UNL     1      47.050   2.327   5.550  0.00  0.00    +0.000 A 
ATOM     16  C   UNL     1      47.413   1.012   5.843  0.00  0.00    +0.000 A 
ATOM     17  C   UNL     1      47.077   0.454   7.074  0.00  0.00    +0.000 A 
ATOM     18  C   UNL     1      46.371   1.209   8.018  0.00  0.00    +0.000 A 
ENDBRANCH  10  13
ENDBRANCH   8   9
ENDBRANCH   5   8
ENDBRANCH   1   2
BRANCH   1  20
ATOM     19  N   UNL     1      46.940   9.057  14.477  0.00  0.00    +0.000 N 
ATOM     20  C   UNL     1      47.884   8.532  13.628  0.00  0.00    +0.000 C 
ATOM     21  O   UNL     1      48.336   9.234  12.726  0.00  0.00    +0.000 OA
ATOM     22  H   UNL     1      46.619   9.992  14.262  0.00  0.00    +0.000 HD
ATOM     23  H   UNL     1      46.282   8.435  14.939  0.00  0.00    +0.000 HD
ENDBRANCH   1  20
BRANCH   1  24
ATOM     24  N   UNL     1      48.241   6.757  15.265  0.00  0.00    +0.000 N 
ATOM     25  C   UNL     1      49.396   6.789  15.993  0.00  0.00    +0.000 C 
ATOM     26  O   UNL     1      50.478   7.059  15.473  0.00  0.00    +0.000 OA
ATOM     27  H   UNL     1      47.362   6.528  15.716  0.00  0.00    +0.000 HD
BRANCH  25  28
ATOM     28  C   UNL     1      49.269   6.545  17.439  0.00  0.00    +0.000 A 
ATOM     29  C   UNL     1      49.516   7.571  18.339  0.00  0.00    +0.000 A 
ATOM     30  S   UNL     1      49.321   7.117  19.972  0.00  0.00    +0.000 S 
ATOM     31  C   UNL     1      48.946   5.516  19.539  0.00  0.00    +0.000 A 
ATOM     32  N   UNL     1      48.711   4.571  20.489  0.00  0.00    +0.000 NA
ATOM     33  C   UNL     1      48.469   3.391  20.023  0.00  0.00    +0.000 A 
ATOM     34  N   UNL     1      48.428   3.074  18.690  0.00  0.00    +0.000 N 
ATOM     35  C   UNL     1      48.594   4.009  17.696  0.00  0.00    +0.000 A 
ATOM     36  O   UNL     1      48.430   3.714  16.518  0.00  0.00    +0.000 OA
ATOM     37  C   UNL     1      48.924   5.341  18.166  0.00  0.00    +0.000 A 
ATOM     38  H   UNL     1      48.195   2.140  18.389  0.00  0.00    +0.000 HD
ENDBRANCH  25  28
ENDBRANCH   1  24
TORSDOF 7
ENDMDL
MODEL 5
REMARK VINA RESULT:    -6.993      3.843      8.996
REMARK INTER + INTRA:         -11.314
REMARK INTER:                  -9.930
REMARK INTRA:                  -1.385
REMARK UNBOUND:                -1.460
REMARK  Name = 
REMARK  7 active torsions:
REMARK  status: ('A' for Active; 'I' for Inactive)
REMARK    1  A    between atoms: C_2  and  C_4
REMARK    2  A    between atoms: C_4  and  N_5
REMARK    3  A    between atoms: C_4  and  C_18
REMARK    4  A    between atoms: C_6  and  C_8
REMARK    5  A    between atoms: C_21  and  C_22
REMARK    6  A    between atoms: C_22  and  N_23
REMARK    7  A    between atoms: C_24  and  C_26
REMARK                            x       y       z     vdW  Elec       q    Type
REMARK                         _______ _______ _______ _____ _____    ______ ____
ROOT
ATOM      1  C   UNL     1      47.870   7.186  13.643  0.00  0.00    +0.000 C 
ENDROOT
BRANCH   1   2
ATOM      2  C   UNL     1      48.249   6.491  14.946  0.00  0.00    +0.000 A 
ATOM      3  C   UNL     1      47.653   5.270  15.295  0.00  0.00    +0.000 A 
ATOM      4  C   UNL     1      48.038   4.588  16.458  0.00  0.00    +0.000 A 
ATOM      5  C   UNL     1      49.023   5.114  17.305  0.00  0.00    +0.000 A 
ATOM      6  C   UNL     1      49.616   6.335  16.963  0.00  0.00    +0.000 A 
ATOM      7  C   UNL     1      49.229   7.016  15.804  0.00  0.00    +0.000 A 
BRANCH   5   8
ATOM      8  C   UNL     1      49.454   4.377  18.549  0.00  0.00    +0.000 C 
BRANCH   8   9
ATOM      9  N   UNL     1      50.788   3.834  18.418  0.00  0.00    +0.000 N 
ATOM     10  C   UNL     1      50.994   2.637  17.766  0.00  0.00    +0.000 C 
ATOM     11  O   UNL     1      50.086   1.975  17.274  0.00  0.00    +0.000 OA
ATOM     12  H   UNL     1      51.568   4.448  18.604  0.00  0.00    +0.000 HD
BRANCH  10  13
ATOM     13  C   UNL     1      52.408   2.170  17.653  0.00  0.00    +0.000 A 
ATOM     14  C   UNL     1      53.486   3.056  17.759  0.00  0.00    +0.000 A 
ATOM     15  C   UNL     1      54.800   2.582  17.675  0.00  0.00    +0.000 A 
ATOM     16  C   UNL     1      55.039   1.220  17.493  0.00  0.00    +0.000 A 
ATOM     17  C   UNL     1      53.971   0.330  17.400  0.00  0.00    +0.000 A 
ATOM     18  C   UNL     1      52.655   0.803  17.487  0.00  0.00    +0.000 A 
ENDBRANCH  10  13
ENDBRANCH   8   9
ENDBRANCH   5   8
ENDBRANCH   1   2
BRANCH   1  20
ATOM     19  N   UNL     1      49.973   6.872  12.381  0.00  0.00    +0.000 N 
ATOM     20  C   UNL     1      49.084   7.789  12.888  0.00  0.00    +0.000 C 
ATOM     21  O   UNL     1      49.345   8.987  12.803  0.00  0.00    +0.000 OA
ATOM     22  H   UNL     1      50.840   7.246  12.019  0.00  0.00    +0.000 HD
ATOM     23  H   UNL     1      49.999   5.933  12.769  0.00  0.00    +0.000 HD
ENDBRANCH   1  20
BRANCH   1  24
ATOM     24  N   UNL     1      47.193   6.252  12.751  0.00  0.00    +0.000 N 
ATOM     25  C   UNL     1      46.220   6.631  11.871  0.00  0.00    +0.000 C 
ATOM     26  O   UNL     1      45.861   7.803  11.773  0.00  0.00    +0.000 OA
ATOM     27  H   UNL     1      47.469   5.279  12.816  0.00  0.00    +0.000 HD
BRANCH  25  28
ATOM     28  C   UNL     1      45.670   5.576  11.005  0.00  0.00    +0.000 A 
ATOM     29  C   UNL     1      45.820   5.660   9.628  0.00  0.00    +0.000 A 
ATOM     30  S   UNL     1      45.126   4.354   8.779  0.00  0.00    +0.000 S 
ATOM     31  C   UNL     1      44.554   3.651  10.217  0.00  0.00    +0.000 A 
ATOM     32  N   UNL     1      43.817   2.506  10.191  0.00  0.00    +0.000 NA
ATOM     33  C   UNL     1      43.421   2.098  11.351  0.00  0.00    +0.000 A 
ATOM     34  N   UNL     1      43.707   2.725  12.536  0.00  0.00    +0.000 N 
ATOM     35  C   UNL     1      44.502   3.844  12.615  0.00  0.00    +0.000 A 
ATOM     36  O   UNL     1      44.837   4.305  13.699  0.00  0.00    +0.000 OA
ATOM     37  C   UNL     1      44.928   4.376  11.334  0.00  0.00    +0.000 A 
ATOM     38  H   UNL     1      43.401   2.334  13.413  0.00  0.00    +0.000 HD
ENDBRANCH  25  28
ENDBRANCH   1  24
TORSDOF 7
ENDMDL
MODEL 6
REMARK VINA RESULT:    -6.793      6.386      8.397
REMARK INTER + INTRA:         -11.032
REMARK INTER:                  -9.680
REMARK INTRA:                  -1.352
REMARK UNBOUND:                -1.460
REMARK  Name = 
REMARK  7 active torsions:
REMARK  status: ('A' for Active; 'I' for Inactive)
REMARK    1  A    between atoms: C_2  and  C_4
REMARK    2  A    between atoms: C_4  and  N_5
REMARK    3  A    between atoms: C_4  and  C_18
REMARK    4  A    between atoms: C_6  and  C_8
REMARK    5  A    between atoms: C_21  and  C_22
REMARK    6  A    between atoms: C_22  and  N_23
REMARK    7  A    between atoms: C_24  and  C_26
REMARK                            x       y       z     vdW  Elec       q    Type
REMARK                         _______ _______ _______ _____ _____    ______ ____
ROOT
ATOM      1  C   UNL     1      43.559  10.421  11.237  0.00  0.00    +0.000 C 
ENDROOT
BRANCH   1   2
ATOM      2  C   UNL     1      43.880   8.931  11.256  0.00  0.00    +0.000 A 
ATOM      3  C   UNL     1      45.180   8.491  11.549  0.00  0.00    +0.000 A 
ATOM      4  C   UNL     1      45.474   7.122  11.633  0.00  0.00    +0.000 A 
ATOM      5  C   UNL     1      44.478   6.160  11.419  0.00  0.00    +0.000 A 
ATOM      6  C   UNL     1      43.181   6.595  11.120  0.00  0.00    +0.000 A 
ATOM      7  C   UNL     1      42.889   7.960  11.034  0.00  0.00    +0.000 A 
BRANCH   5   8
ATOM      8  C   UNL     1      44.784   4.687  11.525  0.00  0.00    +0.000 C 
BRANCH   8   9
ATOM      9  N   UNL     1      45.473   4.195  10.352  0.00  0.00    +0.000 N 
ATOM     10  C   UNL     1      44.948   3.151   9.620  0.00  0.00    +0.000 C 
ATOM     11  O   UNL     1      43.898   2.588   9.910  0.00  0.00    +0.000 OA
ATOM     12  H   UNL     1      46.205   4.768   9.959  0.00  0.00    +0.000 HD
BRANCH  10  13
ATOM     13  C   UNL     1      45.713   2.730   8.409  0.00  0.00    +0.000 A 
ATOM     14  C   UNL     1      45.979   3.619   7.361  0.00  0.00    +0.000 A 
ATOM     15  C   UNL     1      46.722   3.200   6.252  0.00  0.00    +0.000 A 
ATOM     16  C   UNL     1      47.207   1.894   6.190  0.00  0.00    +0.000 A 
ATOM     17  C   UNL     1      46.957   1.008   7.235  0.00  0.00    +0.000 A 
ATOM     18  C   UNL     1      46.216   1.426   8.348  0.00  0.00    +0.000 A 
ENDBRANCH  10  13
ENDBRANCH   8   9
ENDBRANCH   5   8
ENDBRANCH   1   2
BRANCH   1  20
ATOM     19  N   UNL     1      44.397  12.184   9.720  0.00  0.00    +0.000 N 
ATOM     20  C   UNL     1      43.627  11.051   9.820  0.00  0.00    +0.000 C 
ATOM     21  O   UNL     1      42.983  10.675   8.844  0.00  0.00    +0.000 OA
ATOM     22  H   UNL     1      44.333  12.689   8.845  0.00  0.00    +0.000 HD
ATOM     23  H   UNL     1      44.602  12.726  10.555  0.00  0.00    +0.000 HD
ENDBRANCH   1  20
BRANCH   1  24
ATOM     24  N   UNL     1      42.226  10.657  11.780  0.00  0.00    +0.000 N 
ATOM     25  C   UNL     1      41.799  11.882  12.208  0.00  0.00    +0.000 C 
ATOM     26  O   UNL     1      42.525  12.873  12.149  0.00  0.00    +0.000 OA
ATOM     27  H   UNL     1      41.611   9.854  11.842  0.00  0.00    +0.000 HD
BRANCH  25  28
ATOM     28  C   UNL     1      40.409  11.963  12.684  0.00  0.00    +0.000 A 
ATOM     29  C   UNL     1      40.131  12.540  13.915  0.00  0.00    +0.000 A 
ATOM     30  S   UNL     1      38.472  12.554  14.309  0.00  0.00    +0.000 S 
ATOM     31  C   UNL     1      38.066  11.745  12.870  0.00  0.00    +0.000 A 
ATOM     32  N   UNL     1      36.778  11.400  12.601  0.00  0.00    +0.000 NA
ATOM     33  C   UNL     1      36.615  10.763  11.489  0.00  0.00    +0.000 A 
ATOM     34  N   UNL     1      37.624  10.452  10.615  0.00  0.00    +0.000 N 
ATOM     35  C   UNL     1      38.928  10.838  10.815  0.00  0.00    +0.000 A 
ATOM     36  O   UNL     1      39.781  10.650   9.955  0.00  0.00    +0.000 OA
ATOM     37  C   UNL     1      39.175  11.509  12.077  0.00  0.00    +0.000 A 
ATOM     38  H   UNL     1      37.426   9.986   9.743  0.00  0.00    +0.000 HD
ENDBRANCH  25  28
ENDBRANCH   1  24
TORSDOF 7
ENDMDL
MODEL 7
REMARK VINA RESULT:    -6.784      4.154     10.486
REMARK INTER + INTRA:         -11.020
REMARK INTER:                  -9.722
REMARK INTRA:                  -1.299
REMARK UNBOUND:                -1.460
REMARK  Name = 
REMARK  7 active torsions:
REMARK  status: ('A' for Active; 'I' for Inactive)
REMARK    1  A    between atoms: C_2  and  C_4
REMARK    2  A    between atoms: C_4  and  N_5
REMARK    3  A    between atoms: C_4  and  C_18
REMARK    4  A    between atoms: C_6  and  C_8
REMARK    5  A    between atoms: C_21  and  C_22
REMARK    6  A    between atoms: C_22  and  N_23
REMARK    7  A    between atoms: C_24  and  C_26
REMARK                            x       y       z     vdW  Elec       q    Type
REMARK                         _______ _______ _______ _____ _____    ______ ____
ROOT
ATOM      1  C   UNL     1      48.178   4.650  16.313  0.00  0.00    +0.000 C 
ENDROOT
BRANCH   1   2
ATOM      2  C   UNL     1      48.460   5.709  17.372  0.00  0.00    +0.000 A 
ATOM      3  C   UNL     1      48.645   7.049  17.000  0.00  0.00    +0.000 A 
ATOM      4  C   UNL     1      48.841   8.044  17.969  0.00  0.00    +0.000 A 
ATOM      5  C   UNL     1      48.864   7.722  19.334  0.00  0.00    +0.000 A 
ATOM      6  C   UNL     1      48.686   6.385  19.707  0.00  0.00    +0.000 A 
ATOM      7  C   UNL     1      48.493   5.393  18.740  0.00  0.00    +0.000 A 
BRANCH   5   8
ATOM      8  C   UNL     1      49.058   8.789  20.381  0.00  0.00    +0.000 C 
BRANCH   8   9
ATOM      9  N   UNL     1      48.006   9.782  20.338  0.00  0.00    +0.000 N 
ATOM     10  C   UNL     1      46.903   9.666  21.157  0.00  0.00    +0.000 C 
ATOM     11  O   UNL     1      46.747   8.740  21.947  0.00  0.00    +0.000 OA
ATOM     12  H   UNL     1      48.203  10.659  19.878  0.00  0.00    +0.000 HD
BRANCH  10  13
ATOM     13  C   UNL     1      45.883  10.752  21.066  0.00  0.00    +0.000 A 
ATOM     14  C   UNL     1      45.940  11.732  20.068  0.00  0.00    +0.000 A 
ATOM     15  C   UNL     1      44.953  12.721  19.993  0.00  0.00    +0.000 A 
ATOM     16  C   UNL     1      43.904  12.730  20.912  0.00  0.00    +0.000 A 
ATOM     17  C   UNL     1      43.834  11.750  21.900  0.00  0.00    +0.000 A 
ATOM     18  C   UNL     1      44.819  10.757  21.974  0.00  0.00    +0.000 A 
ENDBRANCH  10  13
ENDBRANCH   8   9
ENDBRANCH   5   8
ENDBRANCH   1   2
BRANCH   1  20
ATOM     19  N   UNL     1      48.561   2.249  16.762  0.00  0.00    +0.000 N 
ATOM     20  C   UNL     1      47.688   3.300  16.901  0.00  0.00    +0.000 C 
ATOM     21  O   UNL     1      46.573   3.095  17.375  0.00  0.00    +0.000 OA
ATOM     22  H   UNL     1      48.199   1.335  17.003  0.00  0.00    +0.000 HD
ATOM     23  H   UNL     1      49.282   2.288  16.046  0.00  0.00    +0.000 HD
ENDBRANCH   1  20
BRANCH   1  24
ATOM     24  N   UNL     1      47.173   5.132  15.372  0.00  0.00    +0.000 N 
ATOM     25  C   UNL     1      46.904   4.515  14.183  0.00  0.00    +0.000 C 
ATOM     26  O   UNL     1      47.498   3.495  13.838  0.00  0.00    +0.000 OA
ATOM     27  H   UNL     1      46.671   5.974  15.633  0.00  0.00    +0.000 HD
BRANCH  25  28
ATOM     28  C   UNL     1      45.826   5.099  13.370  0.00  0.00    +0.000 A 
ATOM     29  C   UNL     1      44.755   4.311  12.971  0.00  0.00    +0.000 A 
ATOM     30  S   UNL     1      43.597   5.146  12.037  0.00  0.00    +0.000 S 
ATOM     31  C   UNL     1      44.508   6.580  12.088  0.00  0.00    +0.000 A 
ATOM     32  N   UNL     1      44.092   7.697  11.432  0.00  0.00    +0.000 NA
ATOM     33  C   UNL     1      44.893   8.705  11.528  0.00  0.00    +0.000 A 
ATOM     34  N   UNL     1      46.068   8.701  12.235  0.00  0.00    +0.000 N 
ATOM     35  C   UNL     1      46.493   7.617  12.967  0.00  0.00    +0.000 A 
ATOM     36  O   UNL     1      47.484   7.690  13.684  0.00  0.00    +0.000 OA
ATOM     37  C   UNL     1      45.657   6.438  12.847  0.00  0.00    +0.000 A 
ATOM     38  H   UNL     1      46.631   9.534  12.304  0.00  0.00    +0.000 HD
ENDBRANCH  25  28
ENDBRANCH   1  24
TORSDOF 7
ENDMDL
MODEL 8
REMARK VINA RESULT:    -6.511      3.467      5.054
REMARK INTER + INTRA:         -10.634
REMARK INTER:                  -9.387
REMARK INTRA:                  -1.247
REMARK UNBOUND:                -1.460
REMARK  Name = 
REMARK  7 active torsions:
REMARK  status: ('A' for Active; 'I' for Inactive)
REMARK    1  A    between atoms: C_2  and  C_4
REMARK    2  A    between atoms: C_4  and  N_5
REMARK    3  A    between atoms: C_4  and  C_18
REMARK    4  A    between atoms: C_6  and  C_8
REMARK    5  A    between atoms: C_21  and  C_22
REMARK    6  A    between atoms: C_22  and  N_23
REMARK    7  A    between atoms: C_24  and  C_26
REMARK                            x       y       z     vdW  Elec       q    Type
REMARK                         _______ _______ _______ _____ _____    ______ ____
ROOT
ATOM      1  C   UNL     1      48.948   3.625  17.596  0.00  0.00    +0.000 C 
ENDROOT
BRANCH   1   2
ATOM      2  C   UNL     1      48.333   4.440  16.465  0.00  0.00    +0.000 A 
ATOM      3  C   UNL     1      48.836   5.714  16.156  0.00  0.00    +0.000 A 
ATOM      4  C   UNL     1      48.321   6.448  15.078  0.00  0.00    +0.000 A 
ATOM      5  C   UNL     1      47.287   5.930  14.286  0.00  0.00    +0.000 A 
ATOM      6  C   UNL     1      46.780   4.663  14.594  0.00  0.00    +0.000 A 
ATOM      7  C   UNL     1      47.291   3.932  15.672  0.00  0.00    +0.000 A 
BRANCH   5   8
ATOM      8  C   UNL     1      46.742   6.708  13.114  0.00  0.00    +0.000 C 
BRANCH   8   9
ATOM      9  N   UNL     1      46.548   5.867  11.953  0.00  0.00    +0.000 N 
ATOM     10  C   UNL     1      45.278   5.497  11.563  0.00  0.00    +0.000 C 
ATOM     11  O   UNL     1      44.264   5.844  12.160  0.00  0.00    +0.000 OA
ATOM     12  H   UNL     1      47.324   5.753  11.318  0.00  0.00    +0.000 HD
BRANCH  10  13
ATOM     13  C   UNL     1      45.173   4.652  10.336  0.00  0.00    +0.000 A 
ATOM     14  C   UNL     1      45.796   5.017   9.137  0.00  0.00    +0.000 A 
ATOM     15  C   UNL     1      45.700   4.189   8.012  0.00  0.00    +0.000 A 
ATOM     16  C   UNL     1      44.988   2.992   8.086  0.00  0.00    +0.000 A 
ATOM     17  C   UNL     1      44.378   2.617   9.281  0.00  0.00    +0.000 A 
ATOM     18  C   UNL     1      44.475   3.442  10.408  0.00  0.00    +0.000 A 
ENDBRANCH  10  13
ENDBRANCH   8   9
ENDBRANCH   5   8
ENDBRANCH   1   2
BRANCH   1  20
ATOM     19  N   UNL     1      50.641   1.866  17.991  0.00  0.00    +0.000 N 
ATOM     20  C   UNL     1      49.717   2.368  17.107  0.00  0.00    +0.000 C 
ATOM     21  O   UNL     1      49.629   1.873  15.986  0.00  0.00    +0.000 OA
ATOM     22  H   UNL     1      51.252   1.144  17.633  0.00  0.00    +0.000 HD
ATOM     23  H   UNL     1      51.010   2.466  18.723  0.00  0.00    +0.000 HD
ENDBRANCH   1  20
BRANCH   1  24
ATOM     24  N   UNL     1      49.867   4.451  18.372  0.00  0.00    +0.000 N 
ATOM     25  C   UNL     1      49.685   4.728  19.697  0.00  0.00    +0.000 C 
ATOM     26  O   UNL     1      48.725   4.281  20.323  0.00  0.00    +0.000 OA
ATOM     27  H   UNL     1      50.664   4.834  17.877  0.00  0.00    +0.000 HD
BRANCH  25  28
ATOM     28  C   UNL     1      50.729   5.536  20.348  0.00  0.00    +0.000 A 
ATOM     29  C   UNL     1      50.376   6.653  21.093  0.00  0.00    +0.000 A 
ATOM     30  S   UNL     1      51.707   7.471  21.778  0.00  0.00    +0.000 S 
ATOM     31  C   UNL     1      52.809   6.392  21.063  0.00  0.00    +0.000 A 
ATOM     32  N   UNL     1      54.151   6.559  21.216  0.00  0.00    +0.000 NA
ATOM     33  C   UNL     1      54.874   5.688  20.595  0.00  0.00    +0.000 A 
ATOM     34  N   UNL     1      54.374   4.656  19.844  0.00  0.00    +0.000 N 
ATOM     35  C   UNL     1      53.027   4.410  19.716  0.00  0.00    +0.000 A 
ATOM     36  O   UNL     1      52.620   3.409  19.140  0.00  0.00    +0.000 OA
ATOM     37  C   UNL     1      52.170   5.393  20.350  0.00  0.00    +0.000 A 
ATOM     38  H   UNL     1      54.992   3.984  19.415  0.00  0.00    +0.000 HD
ENDBRANCH  25  28
ENDBRANCH   1  24
TORSDOF 7
ENDMDL
MODEL 9
REMARK VINA RESULT:    -6.416      1.802      2.667
REMARK INTER + INTRA:         -10.501
REMARK INTER:                  -9.590
REMARK INTRA:                  -0.911
REMARK UNBOUND:                -1.460
REMARK  Name = 
REMARK  7 active torsions:
REMARK  status: ('A' for Active; 'I' for Inactive)
REMARK    1  A    between atoms: C_2  and  C_4
REMARK    2  A    between atoms: C_4  and  N_5
REMARK    3  A    between atoms: C_4  and  C_18
REMARK    4  A    between atoms: C_6  and  C_8
REMARK    5  A    between atoms: C_21  and  C_22
REMARK    6  A    between atoms: C_22  and  N_23
REMARK    7  A    between atoms: C_24  and  C_26
REMARK                            x       y       z     vdW  Elec       q    Type
REMARK                         _______ _______ _______ _____ _____    ______ ____
ROOT
ATOM      1  C   UNL     1      49.141   8.813  14.592  0.00  0.00    +0.000 C 
ENDROOT
BRANCH   1   2
ATOM      2  C   UNL     1      48.150   8.145  13.646  0.00  0.00    +0.000 A 
ATOM      3  C   UNL     1      47.969   6.754  13.679  0.00  0.00    +0.000 A 
ATOM      4  C   UNL     1      47.016   6.133  12.859  0.00  0.00    +0.000 A 
ATOM      5  C   UNL     1      46.224   6.887  11.981  0.00  0.00    +0.000 A 
ATOM      6  C   UNL     1      46.406   8.274  11.942  0.00  0.00    +0.000 A 
ATOM      7  C   UNL     1      47.359   8.893  12.758  0.00  0.00    +0.000 A 
BRANCH   5   8
ATOM      8  C   UNL     1      45.185   6.227  11.110  0.00  0.00    +0.000 C 
BRANCH   8   9
ATOM      9  N   UNL     1      45.774   5.264  10.206  0.00  0.00    +0.000 N 
ATOM     10  C   UNL     1      44.982   4.339   9.558  0.00  0.00    +0.000 C 
ATOM     11  O   UNL     1      43.766   4.275   9.706  0.00  0.00    +0.000 OA
ATOM     12  H   UNL     1      46.718   5.429   9.889  0.00  0.00    +0.000 HD
BRANCH  10  13
ATOM     13  C   UNL     1      45.673   3.404   8.621  0.00  0.00    +0.000 A 
ATOM     14  C   UNL     1      45.673   2.020   8.831  0.00  0.00    +0.000 A 
ATOM     15  C   UNL     1      46.308   1.168   7.920  0.00  0.00    +0.000 A 
ATOM     16  C   UNL     1      46.937   1.697   6.794  0.00  0.00    +0.000 A 
ATOM     17  C   UNL     1      46.929   3.072   6.572  0.00  0.00    +0.000 A 
ATOM     18  C   UNL     1      46.292   3.926   7.481  0.00  0.00    +0.000 A 
ENDBRANCH  10  13
ENDBRANCH   8   9
ENDBRANCH   5   8
ENDBRANCH   1   2
BRANCH   1  20
ATOM     19  N   UNL     1      48.437  10.928  15.664  0.00  0.00    +0.000 N 
ATOM     20  C   UNL     1      49.062  10.363  14.578  0.00  0.00    +0.000 C 
ATOM     21  O   UNL     1      49.418  11.084  13.649  0.00  0.00    +0.000 OA
ATOM     22  H   UNL     1      48.245  11.919  15.600  0.00  0.00    +0.000 HD
ATOM     23  H   UNL     1      47.801  10.366  16.222  0.00  0.00    +0.000 HD
ENDBRANCH   1  20
BRANCH   1  24
ATOM     24  N   UNL     1      48.920   8.355  15.959  0.00  0.00    +0.000 N 
ATOM     25  C   UNL     1      49.859   7.676  16.681  0.00  0.00    +0.000 C 
ATOM     26  O   UNL     1      50.966   7.415  16.214  0.00  0.00    +0.000 OA
ATOM     27  H   UNL     1      48.013   8.555  16.366  0.00  0.00    +0.000 HD
BRANCH  25  28
ATOM     28  C   UNL     1      49.499   7.327  18.065  0.00  0.00    +0.000 A 
ATOM     29  C   UNL     1      49.393   8.324  19.025  0.00  0.00    +0.000 A 
ATOM     30  S   UNL     1      48.966   7.746  20.572  0.00  0.00    +0.000 S 
ATOM     31  C   UNL     1      48.955   6.135  20.028  0.00  0.00    +0.000 A 
ATOM     32  N   UNL     1      48.702   5.109  20.886  0.00  0.00    +0.000 NA
ATOM     33  C   UNL     1      48.756   3.936  20.348  0.00  0.00    +0.000 A 
ATOM     34  N   UNL     1      49.025   3.698  19.026  0.00  0.00    +0.000 N 
ATOM     35  C   UNL     1      49.221   4.706  18.111  0.00  0.00    +0.000 A 
ATOM     36  O   UNL     1      49.337   4.460  16.916  0.00  0.00    +0.000 OA
ATOM     37  C   UNL     1      49.226   6.042  18.675  0.00  0.00    +0.000 A 
ATOM     38  H   UNL     1      49.014   2.759  18.658  0.00  0.00    +0.000 HD
ENDBRANCH  25  28
ENDBRANCH   1  24
TORSDOF 7
ENDMDL
