MODEL 1
REMARK VINA RESULT:    -8.360      0.000      0.000
REMARK INTER + INTRA:         -11.111
REMARK INTER:                 -10.803
REMARK INTRA:                  -0.308
REMARK UNBOUND:                -0.308
REMARK  Name = 
REMARK  6 active torsions:
REMARK  status: ('A' for Active; 'I' for Inactive)
REMARK    1  A    between atoms: C_1  and  C_2
REMARK    2  A    between atoms: C_2  and  N_3
REMARK    3  A    between atoms: C_2  and  C_16
REMARK    4  A    between atoms: C_4  and  C_6
REMARK    5  A    between atoms: C_19  and  O_20
REMARK    6  A    between atoms: O_20  and  C_21
REMARK                            x       y       z     vdW  Elec       q    Type
REMARK                         _______ _______ _______ _____ _____    ______ ____
ROOT
ATOM      1  C   UNL     1      43.657   4.035  13.199  0.00  0.00    +0.000 C 
ATOM      2  C   UNL     1      44.191   5.375  12.674  0.00  0.00    +0.000 C 
ENDROOT
BRANCH   2   3
ATOM      3  C   UNL     1      44.420   5.257  11.174  0.00  0.00    +0.000 A 
ATOM      4  C   UNL     1      45.580   5.718  10.530  0.00  0.00    +0.000 A 
ATOM      5  C   UNL     1      45.884   5.277   9.231  0.00  0.00    +0.000 A 
ATOM      6  C   UNL     1      45.131   4.255   8.636  0.00  0.00    +0.000 A 
ATOM      7  C   UNL     1      44.105   3.708   9.404  0.00  0.00    +0.000 A 
ATOM      8 CL   UNL     1      44.178   1.989   9.775  0.00  0.00    +0.000 Cl
ATOM      9  C   UNL     1      43.569   4.402  10.483  0.00  0.00    +0.000 A 
BRANCH   6  10
ATOM     10  O   UNL     1      45.650   3.727   7.494  0.00  0.00    +0.000 OA
BRANCH  10  11
ATOM     11  C   UNL     1      46.916   3.041   7.424  0.00  0.00    +0.000 C 
ATOM     12  C   UNL     1      47.845   3.375   6.258  0.00  0.00    +0.000 C 
ATOM     13  C   UNL     1      47.675   2.438   5.072  0.00  0.00    +0.000 C 
ATOM     14  N   UNL     1      47.804   1.029   5.416  0.00  0.00    +0.000 NA
ATOM     15  C   UNL     1      47.013   0.600   6.561  0.00  0.00    +0.000 C 
ATOM     16  C   UNL     1      46.939   1.551   7.762  0.00  0.00    +0.000 C 
ATOM     17  H   UNL     1      48.776   0.759   5.532  0.00  0.00    +0.000 HD
ENDBRANCH  10  11
ENDBRANCH   6  10
ENDBRANCH   2   3
BRANCH   2  18
ATOM     18  N   UNL     1      45.383   5.819  13.343  0.00  0.00    +0.000 N 
ATOM     19  C   UNL     1      46.323   4.928  13.794  0.00  0.00    +0.000 C 
ATOM     20  O   UNL     1      46.284   3.724  13.556  0.00  0.00    +0.000 OA
ATOM     21  H   UNL     1      45.280   6.684  13.860  0.00  0.00    +0.000 HD
BRANCH  19  22
ATOM     22  C   UNL     1      47.439   5.524  14.536  0.00  0.00    +0.000 A 
ATOM     23  C   UNL     1      48.206   6.515  13.941  0.00  0.00    +0.000 A 
ATOM     24  S   UNL     1      49.409   7.140  14.971  0.00  0.00    +0.000 S 
ATOM     25  C   UNL     1      48.977   6.066  16.222  0.00  0.00    +0.000 A 
ATOM     26  N   UNL     1      49.639   6.070  17.411  0.00  0.00    +0.000 NA
ATOM     27  C   UNL     1      49.209   5.198  18.262  0.00  0.00    +0.000 A 
ATOM     28  N   UNL     1      48.184   4.317  18.031  0.00  0.00    +0.000 N 
ATOM     29  C   UNL     1      47.482   4.285  16.854  0.00  0.00    +0.000 A 
ATOM     30  O   UNL     1      46.549   3.502  16.689  0.00  0.00    +0.000 OA
ATOM     31  C   UNL     1      47.920   5.251  15.865  0.00  0.00    +0.000 A 
ATOM     32  H   UNL     1      47.894   3.660  18.741  0.00  0.00    +0.000 HD
ENDBRANCH  19  22
ENDBRANCH   2  18
TORSDOF 5
ENDMDL
MODEL 2
REMARK VINA RESULT:    -7.600      4.266     10.141
REMARK INTER + INTRA:         -10.129
REMARK INTER:                  -8.761
REMARK INTRA:                  -1.368
REMARK UNBOUND:                -0.308
REMARK  Name = 
REMARK  6 active torsions:
REMARK  status: ('A' for Active; 'I' for Inactive)
REMARK    1  A    between atoms: C_1  and  C_2
REMARK    2  A    between atoms: C_2  and  N_3
REMARK    3  A    between atoms: C_2  and  C_16
REMARK    4  A    between atoms: C_4  and  C_6
REMARK    5  A    between atoms: C_19  and  O_20
REMARK    6  A    between atoms: O_20  and  C_21
REMARK                            x       y       z     vdW  Elec       q    Type
REMARK                         _______ _______ _______ _____ _____    ______ ____
ROOT
ATOM      1  C   UNL     1      47.968   3.173  16.848  0.00  0.00    +0.000 C 
ATOM      2  C   UNL     1      48.078   4.591  16.271  0.00  0.00    +0.000 C 
ENDROOT
BRANCH   2   3
ATOM      3  C   UNL     1      47.931   5.594  17.406  0.00  0.00    +0.000 A 
ATOM      4  C   UNL     1      47.134   5.368  18.540  0.00  0.00    +0.000 A 
ATOM      5  C   UNL     1      47.309   6.156  19.690  0.00  0.00    +0.000 A 
ATOM      6  C   UNL     1      48.382   7.054  19.775  0.00  0.00    +0.000 A 
ATOM      7  C   UNL     1      49.248   7.097  18.685  0.00  0.00    +0.000 A 
ATOM      8 CL   UNL     1      50.940   6.698  18.960  0.00  0.00    +0.000 Cl
ATOM      9  C   UNL     1      48.852   6.635  17.435  0.00  0.00    +0.000 A 
BRANCH   6  10
ATOM     10  O   UNL     1      48.614   7.582  21.009  0.00  0.00    +0.000 OA
BRANCH  10  11
ATOM     11  C   UNL     1      48.402   8.966  21.348  0.00  0.00    +0.000 C 
ATOM     12  C   UNL     1      46.973   9.503  21.297  0.00  0.00    +0.000 C 
ATOM     13  C   UNL     1      46.624  10.144  19.964  0.00  0.00    +0.000 C 
ATOM     14  N   UNL     1      47.555  11.186  19.554  0.00  0.00    +0.000 NA
ATOM     15  C   UNL     1      48.962  10.817  19.624  0.00  0.00    +0.000 C 
ATOM     16  C   UNL     1      49.413   9.989  20.834  0.00  0.00    +0.000 C 
ATOM     17  H   UNL     1      47.389  12.055  20.053  0.00  0.00    +0.000 HD
ENDBRANCH  10  11
ENDBRANCH   6  10
ENDBRANCH   2   3
BRANCH   2  18
ATOM     18  N   UNL     1      47.134   4.858  15.222  0.00  0.00    +0.000 N 
ATOM     19  C   UNL     1      47.468   5.633  14.140  0.00  0.00    +0.000 C 
ATOM     20  O   UNL     1      48.606   6.042  13.926  0.00  0.00    +0.000 OA
ATOM     21  H   UNL     1      46.165   4.871  15.518  0.00  0.00    +0.000 HD
BRANCH  19  22
ATOM     22  C   UNL     1      46.375   5.890  13.198  0.00  0.00    +0.000 A 
ATOM     23  C   UNL     1      46.041   7.197  12.875  0.00  0.00    +0.000 A 
ATOM     24  S   UNL     1      44.799   7.305  11.714  0.00  0.00    +0.000 S 
ATOM     25  C   UNL     1      44.633   5.610  11.651  0.00  0.00    +0.000 A 
ATOM     26  N   UNL     1      43.712   5.024  10.839  0.00  0.00    +0.000 NA
ATOM     27  C   UNL     1      43.693   3.734  10.900  0.00  0.00    +0.000 A 
ATOM     28  N   UNL     1      44.504   2.975  11.704  0.00  0.00    +0.000 N 
ATOM     29  C   UNL     1      45.453   3.521  12.528  0.00  0.00    +0.000 A 
ATOM     30  O   UNL     1      46.185   2.811  13.217  0.00  0.00    +0.000 OA
ATOM     31  C   UNL     1      45.522   4.969  12.493  0.00  0.00    +0.000 A 
ATOM     32  H   UNL     1      44.441   1.967  11.703  0.00  0.00    +0.000 HD
ENDBRANCH  19  22
ENDBRANCH   2  18
TORSDOF 5
ENDMDL
MODEL 3
REMARK VINA RESULT:    -7.586      4.762      9.969
REMARK INTER + INTRA:         -10.111
REMARK INTER:                  -8.894
REMARK INTRA:                  -1.218
REMARK UNBOUND:                -0.308
REMARK  Name = 
REMARK  6 active torsions:
REMARK  status: ('A' for Active; 'I' for Inactive)
REMARK    1  A    between atoms: C_1  and  C_2
REMARK    2  A    between atoms: C_2  and  N_3
REMARK    3  A    between atoms: C_2  and  C_16
REMARK    4  A    between atoms: C_4  and  C_6
REMARK    5  A    between atoms: C_19  and  O_20
REMARK    6  A    between atoms: O_20  and  C_21
REMARK                            x       y       z     vdW  Elec       q    Type
REMARK                         _______ _______ _______ _____ _____    ______ ____
ROOT
ATOM      1  C   UNL     1      46.963   3.018  17.447  0.00  0.00    +0.000 C 
ATOM      2  C   UNL     1      47.842   3.749  16.422  0.00  0.00    +0.000 C 
ENDROOT
BRANCH   2   3
ATOM      3  C   UNL     1      48.935   4.504  17.164  0.00  0.00    +0.000 A 
ATOM      4  C   UNL     1      49.261   5.846  16.905  0.00  0.00    +0.000 A 
ATOM      5  C   UNL     1      50.016   6.578  17.836  0.00  0.00    +0.000 A 
ATOM      6  C   UNL     1      50.307   6.034  19.094  0.00  0.00    +0.000 A 
ATOM      7  C   UNL     1      49.794   4.766  19.360  0.00  0.00    +0.000 A 
ATOM      8 CL   UNL     1      48.685   4.592  20.717  0.00  0.00    +0.000 Cl
ATOM      9  C   UNL     1      49.414   3.915  18.329  0.00  0.00    +0.000 A 
BRANCH   6  10
ATOM     10  O   UNL     1      50.819   6.903  20.010  0.00  0.00    +0.000 OA
BRANCH  10  11
ATOM     11  C   UNL     1      52.001   6.647  20.793  0.00  0.00    +0.000 C 
ATOM     12  C   UNL     1      53.231   6.099  20.071  0.00  0.00    +0.000 C 
ATOM     13  C   UNL     1      53.313   4.581  20.101  0.00  0.00    +0.000 C 
ATOM     14  N   UNL     1      53.238   4.017  21.442  0.00  0.00    +0.000 NA
ATOM     15  C   UNL     1      52.139   4.514  22.258  0.00  0.00    +0.000 C 
ATOM     16  C   UNL     1      51.820   6.012  22.171  0.00  0.00    +0.000 C 
ATOM     17  H   UNL     1      54.120   4.108  21.937  0.00  0.00    +0.000 HD
ENDBRANCH  10  11
ENDBRANCH   6  10
ENDBRANCH   2   3
BRANCH   2  18
ATOM     18  N   UNL     1      47.104   4.628  15.558  0.00  0.00    +0.000 N 
ATOM     19  C   UNL     1      46.867   4.306  14.246  0.00  0.00    +0.000 C 
ATOM     20  O   UNL     1      47.147   3.216  13.754  0.00  0.00    +0.000 OA
ATOM     21  H   UNL     1      47.188   5.612  15.784  0.00  0.00    +0.000 HD
BRANCH  19  22
ATOM     22  C   UNL     1      46.180   5.340  13.466  0.00  0.00    +0.000 A 
ATOM     23  C   UNL     1      46.795   6.566  13.260  0.00  0.00    +0.000 A 
ATOM     24  S   UNL     1      45.885   7.616  12.274  0.00  0.00    +0.000 S 
ATOM     25  C   UNL     1      44.618   6.485  12.141  0.00  0.00    +0.000 A 
ATOM     26  N   UNL     1      43.497   6.767  11.422  0.00  0.00    +0.000 NA
ATOM     27  C   UNL     1      42.617   5.820  11.415  0.00  0.00    +0.000 A 
ATOM     28  N   UNL     1      42.751   4.621  12.067  0.00  0.00    +0.000 N 
ATOM     29  C   UNL     1      43.866   4.290  12.792  0.00  0.00    +0.000 A 
ATOM     30  O   UNL     1      43.967   3.194  13.341  0.00  0.00    +0.000 OA
ATOM     31  C   UNL     1      44.890   5.316  12.827  0.00  0.00    +0.000 A 
ATOM     32  H   UNL     1      42.026   3.921  12.019  0.00  0.00    +0.000 HD
ENDBRANCH  19  22
ENDBRANCH   2  18
TORSDOF 5
ENDMDL
MODEL 4
REMARK VINA RESULT:    -7.545      3.483      9.489
REMARK INTER + INTRA:         -10.059
REMARK INTER:                  -8.884
REMARK INTRA:                  -1.175
REMARK UNBOUND:                -0.308
REMARK  Name = 
REMARK  6 active torsions:
REMARK  status: ('A' for Active; 'I' for Inactive)
REMARK    1  A    between atoms: C_1  and  C_2
REMARK    2  A    between atoms: C_2  and  N_3
REMARK    3  A    between atoms: C_2  and  C_16
REMARK    4  A    between atoms: C_4  and  C_6
REMARK    5  A    between atoms: C_19  and  O_20
REMARK    6  A    between atoms: O_20  and  C_21
REMARK                            x       y       z     vdW  Elec       q    Type
REMARK                         _______ _______ _______ _____ _____    ______ ____
ROOT
ATOM      1  C   UNL     1      49.139   8.108  11.444  0.00  0.00    +0.000 C 
ATOM      2  C   UNL     1      47.971   7.965  12.431  0.00  0.00    +0.000 C 
ENDROOT
BRANCH   2   3
ATOM      3  C   UNL     1      48.518   8.035  13.849  0.00  0.00    +0.000 A 
ATOM      4  C   UNL     1      48.195   9.061  14.753  0.00  0.00    +0.000 A 
ATOM      5  C   UNL     1      48.440   8.891  16.126  0.00  0.00    +0.000 A 
ATOM      6  C   UNL     1      48.849   7.645  16.622  0.00  0.00    +0.000 A 
ATOM      7  C   UNL     1      48.972   6.613  15.694  0.00  0.00    +0.000 A 
ATOM      8 CL   UNL     1      47.969   5.183  15.913  0.00  0.00    +0.000 Cl
ATOM      9  C   UNL     1      49.121   6.882  14.338  0.00  0.00    +0.000 A 
BRANCH   6  10
ATOM     10  O   UNL     1      48.817   7.510  17.976  0.00  0.00    +0.000 OA
BRANCH  10  11
ATOM     11  C   UNL     1      47.606   7.479  18.757  0.00  0.00    +0.000 C 
ATOM     12  C   UNL     1      47.319   8.664  19.677  0.00  0.00    +0.000 C 
ATOM     13  C   UNL     1      47.819   8.452  21.097  0.00  0.00    +0.000 C 
ATOM     14  N   UNL     1      47.332   7.223  21.711  0.00  0.00    +0.000 NA
ATOM     15  C   UNL     1      47.488   6.025  20.898  0.00  0.00    +0.000 C 
ATOM     16  C   UNL     1      47.203   6.152  19.396  0.00  0.00    +0.000 C 
ATOM     17  H   UNL     1      46.371   7.318  22.027  0.00  0.00    +0.000 HD
ENDBRANCH  10  11
ENDBRANCH   6  10
ENDBRANCH   2   3
BRANCH   2  18
ATOM     18  N   UNL     1      47.198   6.770  12.235  0.00  0.00    +0.000 N 
ATOM     19  C   UNL     1      45.900   6.824  11.794  0.00  0.00    +0.000 C 
ATOM     20  O   UNL     1      45.354   7.858  11.419  0.00  0.00    +0.000 OA
ATOM     21  H   UNL     1      47.447   6.000  12.844  0.00  0.00    +0.000 HD
BRANCH  19  22
ATOM     22  C   UNL     1      45.212   5.530  11.728  0.00  0.00    +0.000 A 
ATOM     23  C   UNL     1      44.580   5.032  12.857  0.00  0.00    +0.000 A 
ATOM     24  S   UNL     1      43.774   3.557  12.579  0.00  0.00    +0.000 S 
ATOM     25  C   UNL     1      44.293   3.514  10.956  0.00  0.00    +0.000 A 
ATOM     26  N   UNL     1      43.950   2.484  10.136  0.00  0.00    +0.000 NA
ATOM     27  C   UNL     1      44.420   2.580   8.936  0.00  0.00    +0.000 A 
ATOM     28  N   UNL     1      45.207   3.607   8.482  0.00  0.00    +0.000 N 
ATOM     29  C   UNL     1      45.567   4.671   9.268  0.00  0.00    +0.000 A 
ATOM     30  O   UNL     1      46.250   5.591   8.823  0.00  0.00    +0.000 OA
ATOM     31  C   UNL     1      45.059   4.616  10.626  0.00  0.00    +0.000 A 
ATOM     32  H   UNL     1      45.540   3.624   7.530  0.00  0.00    +0.000 HD
ENDBRANCH  19  22
ENDBRANCH   2  18
TORSDOF 5
ENDMDL
MODEL 5
REMARK VINA RESULT:    -7.498      3.910      8.664
REMARK INTER + INTRA:          -9.997
REMARK INTER:                  -8.910
REMARK INTRA:                  -1.088
REMARK UNBOUND:                -0.308
REMARK  Name = 
REMARK  6 active torsions:
REMARK  status: ('A' for Active; 'I' for Inactive)
REMARK    1  A    between atoms: C_1  and  C_2
REMARK    2  A    between atoms: C_2  and  N_3
REMARK    3  A    between atoms: C_2  and  C_16
REMARK    4  A    between atoms: C_4  and  C_6
REMARK    5  A    between atoms: C_19  and  O_20
REMARK    6  A    between atoms: O_20  and  C_21
REMARK                            x       y       z     vdW  Elec       q    Type
REMARK                         _______ _______ _______ _____ _____    ______ ____
ROOT
ATOM      1  C   UNL     1      49.827   8.082  11.654  0.00  0.00    +0.000 C 
ATOM      2  C   UNL     1      48.435   7.844  12.255  0.00  0.00    +0.000 C 
ENDROOT
BRANCH   2   3
ATOM      3  C   UNL     1      48.589   7.508  13.732  0.00  0.00    +0.000 A 
ATOM      4  C   UNL     1      48.130   6.310  14.304  0.00  0.00    +0.000 A 
ATOM      5  C   UNL     1      48.601   5.909  15.566  0.00  0.00    +0.000 A 
ATOM      6  C   UNL     1      49.647   6.607  16.184  0.00  0.00    +0.000 A 
ATOM      7  C   UNL     1      50.187   7.679  15.476  0.00  0.00    +0.000 A 
ATOM      8 CL   UNL     1      51.895   7.612  15.055  0.00  0.00    +0.000 Cl
ATOM      9  C   UNL     1      49.473   8.298  14.457  0.00  0.00    +0.000 A 
BRANCH   6  10
ATOM     10  O   UNL     1      50.198   6.002  17.273  0.00  0.00    +0.000 OA
BRANCH  10  11
ATOM     11  C   UNL     1      49.485   5.733  18.495  0.00  0.00    +0.000 C 
ATOM     12  C   UNL     1      48.808   4.371  18.642  0.00  0.00    +0.000 C 
ATOM     13  C   UNL     1      47.351   4.379  18.209  0.00  0.00    +0.000 C 
ATOM     14  N   UNL     1      46.550   5.400  18.871  0.00  0.00    +0.000 NA
ATOM     15  C   UNL     1      47.124   6.738  18.858  0.00  0.00    +0.000 C 
ATOM     16  C   UNL     1      48.636   6.856  19.088  0.00  0.00    +0.000 C 
ATOM     17  H   UNL     1      46.301   5.127  19.817  0.00  0.00    +0.000 HD
ENDBRANCH  10  11
ENDBRANCH   6  10
ENDBRANCH   2   3
BRANCH   2  18
ATOM     18  N   UNL     1      47.682   6.828  11.572  0.00  0.00    +0.000 N 
ATOM     19  C   UNL     1      46.316   6.904  11.462  0.00  0.00    +0.000 C 
ATOM     20  O   UNL     1      45.661   7.880  11.816  0.00  0.00    +0.000 OA
ATOM     21  H   UNL     1      48.092   5.903  11.606  0.00  0.00    +0.000 HD
BRANCH  19  22
ATOM     22  C   UNL     1      45.680   5.751  10.817  0.00  0.00    +0.000 A 
ATOM     23  C   UNL     1      45.835   5.556   9.453  0.00  0.00    +0.000 A 
ATOM     24  S   UNL     1      45.089   4.132   8.889  0.00  0.00    +0.000 S 
ATOM     25  C   UNL     1      44.490   3.764  10.441  0.00  0.00    +0.000 A 
ATOM     26  N   UNL     1      43.738   2.651  10.659  0.00  0.00    +0.000 NA
ATOM     27  C   UNL     1      43.346   2.503  11.881  0.00  0.00    +0.000 A 
ATOM     28  N   UNL     1      43.629   3.370  12.905  0.00  0.00    +0.000 N 
ATOM     29  C   UNL     1      44.392   4.496  12.736  0.00  0.00    +0.000 A 
ATOM     30  O   UNL     1      44.652   5.239  13.681  0.00  0.00    +0.000 OA
ATOM     31  C   UNL     1      44.865   4.707  11.381  0.00  0.00    +0.000 A 
ATOM     32  H   UNL     1      43.295   3.195  13.841  0.00  0.00    +0.000 HD
ENDBRANCH  19  22
ENDBRANCH   2  18
TORSDOF 5
ENDMDL
MODEL 6
REMARK VINA RESULT:    -7.429      4.738      9.749
REMARK INTER + INTRA:          -9.908
REMARK INTER:                  -8.974
REMARK INTRA:                  -0.934
REMARK UNBOUND:                -0.308
REMARK  Name = 
REMARK  6 active torsions:
REMARK  status: ('A' for Active; 'I' for Inactive)
REMARK    1  A    between atoms: C_1  and  C_2
REMARK    2  A    between atoms: C_2  and  N_3
REMARK    3  A    between atoms: C_2  and  C_16
REMARK    4  A    between atoms: C_4  and  C_6
REMARK    5  A    between atoms: C_19  and  O_20
REMARK    6  A    between atoms: O_20  and  C_21
REMARK                            x       y       z     vdW  Elec       q    Type
REMARK                         _______ _______ _______ _____ _____    ______ ____
ROOT
ATOM      1  C   UNL     1      46.959   3.015  17.419  0.00  0.00    +0.000 C 
ATOM      2  C   UNL     1      47.816   3.754  16.382  0.00  0.00    +0.000 C 
ENDROOT
BRANCH   2   3
ATOM      3  C   UNL     1      48.911   4.522  17.108  0.00  0.00    +0.000 A 
ATOM      4  C   UNL     1      49.192   5.877  16.873  0.00  0.00    +0.000 A 
ATOM      5  C   UNL     1      49.956   6.608  17.798  0.00  0.00    +0.000 A 
ATOM      6  C   UNL     1      50.301   6.042  19.033  0.00  0.00    +0.000 A 
ATOM      7  C   UNL     1      49.831   4.754  19.283  0.00  0.00    +0.000 A 
ATOM      8 CL   UNL     1      48.771   4.517  20.668  0.00  0.00    +0.000 Cl
ATOM      9  C   UNL     1      49.442   3.918  18.242  0.00  0.00    +0.000 A 
BRANCH   6  10
ATOM     10  O   UNL     1      50.817   6.902  19.954  0.00  0.00    +0.000 OA
BRANCH  10  11
ATOM     11  C   UNL     1      50.109   8.040  20.483  0.00  0.00    +0.000 C 
ATOM     12  C   UNL     1      48.708   7.809  21.048  0.00  0.00    +0.000 C 
ATOM     13  C   UNL     1      47.607   8.046  20.027  0.00  0.00    +0.000 C 
ATOM     14  N   UNL     1      47.671   9.354  19.390  0.00  0.00    +0.000 NA
ATOM     15  C   UNL     1      48.979   9.721  18.867  0.00  0.00    +0.000 C 
ATOM     16  C   UNL     1      50.203   9.358  19.717  0.00  0.00    +0.000 C 
ATOM     17  H   UNL     1      47.310  10.084  19.997  0.00  0.00    +0.000 HD
ENDBRANCH  10  11
ENDBRANCH   6  10
ENDBRANCH   2   3
BRANCH   2  18
ATOM     18  N   UNL     1      47.058   4.625  15.526  0.00  0.00    +0.000 N 
ATOM     19  C   UNL     1      46.839   4.317  14.208  0.00  0.00    +0.000 C 
ATOM     20  O   UNL     1      47.154   3.244  13.701  0.00  0.00    +0.000 OA
ATOM     21  H   UNL     1      47.110   5.607  15.769  0.00  0.00    +0.000 HD
BRANCH  19  22
ATOM     22  C   UNL     1      46.125   5.343  13.440  0.00  0.00    +0.000 A 
ATOM     23  C   UNL     1      46.697   6.595  13.272  0.00  0.00    +0.000 A 
ATOM     24  S   UNL     1      45.765   7.633  12.295  0.00  0.00    +0.000 S 
ATOM     25  C   UNL     1      44.543   6.459  12.116  0.00  0.00    +0.000 A 
ATOM     26  N   UNL     1      43.424   6.716  11.384  0.00  0.00    +0.000 NA
ATOM     27  C   UNL     1      42.581   5.738  11.341  0.00  0.00    +0.000 A 
ATOM     28  N   UNL     1      42.748   4.530  11.967  0.00  0.00    +0.000 N 
ATOM     29  C   UNL     1      43.863   4.223  12.704  0.00  0.00    +0.000 A 
ATOM     30  O   UNL     1      43.997   3.120  13.230  0.00  0.00    +0.000 OA
ATOM     31  C   UNL     1      44.848   5.286  12.779  0.00  0.00    +0.000 A 
ATOM     32  H   UNL     1      42.051   3.804  11.892  0.00  0.00    +0.000 HD
ENDBRANCH  19  22
ENDBRANCH   2  18
TORSDOF 5
ENDMDL
MODEL 7
REMARK VINA RESULT:    -7.294      3.950      9.245
REMARK INTER + INTRA:          -9.734
REMARK INTER:                  -8.329
REMARK INTRA:                  -1.405
REMARK UNBOUND:                -0.308
REMARK  Name = 
REMARK  6 active torsions:
REMARK  status: ('A' for Active; 'I' for Inactive)
REMARK    1  A    between atoms: C_1  and  C_2
REMARK    2  A    between atoms: C_2  and  N_3
REMARK    3  A    between atoms: C_2  and  C_16
REMARK    4  A    between atoms: C_4  and  C_6
REMARK    5  A    between atoms: C_19  and  O_20
REMARK    6  A    between atoms: O_20  and  C_21
REMARK                            x       y       z     vdW  Elec       q    Type
REMARK                         _______ _______ _______ _____ _____    ______ ____
ROOT
ATOM      1  C   UNL     1      49.711   7.415  12.837  0.00  0.00    +0.000 C 
ATOM      2  C   UNL     1      48.265   7.176  13.293  0.00  0.00    +0.000 C 
ENDROOT
BRANCH   2   3
ATOM      3  C   UNL     1      48.282   6.673  14.730  0.00  0.00    +0.000 A 
ATOM      4  C   UNL     1      47.754   5.432  15.120  0.00  0.00    +0.000 A 
ATOM      5  C   UNL     1      48.103   4.880  16.364  0.00  0.00    +0.000 A 
ATOM      6  C   UNL     1      49.102   5.476  17.146  0.00  0.00    +0.000 A 
ATOM      7  C   UNL     1      49.720   6.605  16.615  0.00  0.00    +0.000 A 
ATOM      8 CL   UNL     1      51.457   6.541  16.338  0.00  0.00    +0.000 Cl
ATOM      9  C   UNL     1      49.110   7.353  15.614  0.00  0.00    +0.000 A 
BRANCH   6  10
ATOM     10  O   UNL     1      49.544   4.738  18.203  0.00  0.00    +0.000 OA
BRANCH  10  11
ATOM     11  C   UNL     1      49.436   5.153  19.579  0.00  0.00    +0.000 C 
ATOM     12  C   UNL     1      48.061   5.581  20.089  0.00  0.00    +0.000 C 
ATOM     13  C   UNL     1      47.828   7.080  19.990  0.00  0.00    +0.000 C 
ATOM     14  N   UNL     1      48.862   7.877  20.634  0.00  0.00    +0.000 NA
ATOM     15  C   UNL     1      50.228   7.519  20.278  0.00  0.00    +0.000 C 
ATOM     16  C   UNL     1      50.552   6.025  20.150  0.00  0.00    +0.000 C 
ATOM     17  H   UNL     1      48.748   7.894  21.644  0.00  0.00    +0.000 HD
ENDBRANCH  10  11
ENDBRANCH   6  10
ENDBRANCH   2   3
BRANCH   2  18
ATOM     18  N   UNL     1      47.537   6.277  12.441  0.00  0.00    +0.000 N 
ATOM     19  C   UNL     1      46.413   6.685  11.767  0.00  0.00    +0.000 C 
ATOM     20  O   UNL     1      46.026   7.850  11.739  0.00  0.00    +0.000 OA
ATOM     21  H   UNL     1      47.583   5.303  12.716  0.00  0.00    +0.000 HD
BRANCH  19  22
ATOM     22  C   UNL     1      45.727   5.634  11.009  0.00  0.00    +0.000 A 
ATOM     23  C   UNL     1      45.836   5.603   9.627  0.00  0.00    +0.000 A 
ATOM     24  S   UNL     1      45.036   4.275   8.921  0.00  0.00    +0.000 S 
ATOM     25  C   UNL     1      44.474   3.735  10.436  0.00  0.00    +0.000 A 
ATOM     26  N   UNL     1      43.700   2.620  10.542  0.00  0.00    +0.000 NA
ATOM     27  C   UNL     1      43.341   2.334  11.750  0.00  0.00    +0.000 A 
ATOM     28  N   UNL     1      43.678   3.063  12.861  0.00  0.00    +0.000 N 
ATOM     29  C   UNL     1      44.465   4.184  12.804  0.00  0.00    +0.000 A 
ATOM     30  O   UNL     1      44.773   4.800  13.822  0.00  0.00    +0.000 OA
ATOM     31  C   UNL     1      44.902   4.547  11.469  0.00  0.00    +0.000 A 
ATOM     32  H   UNL     1      43.367   2.784  13.780  0.00  0.00    +0.000 HD
ENDBRANCH  19  22
ENDBRANCH   2  18
TORSDOF 5
ENDMDL
MODEL 8
REMARK VINA RESULT:    -7.234      3.420      5.056
REMARK INTER + INTRA:          -9.656
REMARK INTER:                  -8.183
REMARK INTRA:                  -1.473
REMARK UNBOUND:                -0.308
REMARK  Name = 
REMARK  6 active torsions:
REMARK  status: ('A' for Active; 'I' for Inactive)
REMARK    1  A    between atoms: C_1  and  C_2
REMARK    2  A    between atoms: C_2  and  N_3
REMARK    3  A    between atoms: C_2  and  C_16
REMARK    4  A    between atoms: C_4  and  C_6
REMARK    5  A    between atoms: C_19  and  O_20
REMARK    6  A    between atoms: O_20  and  C_21
REMARK                            x       y       z     vdW  Elec       q    Type
REMARK                         _______ _______ _______ _____ _____    ______ ____
ROOT
ATOM      1  C   UNL     1      49.495   8.842  13.200  0.00  0.00    +0.000 C 
ATOM      2  C   UNL     1      49.329   7.397  13.691  0.00  0.00    +0.000 C 
ENDROOT
BRANCH   2   3
ATOM      3  C   UNL     1      48.075   6.807  13.062  0.00  0.00    +0.000 A 
ATOM      4  C   UNL     1      47.328   5.773  13.650  0.00  0.00    +0.000 A 
ATOM      5  C   UNL     1      46.018   5.516  13.211  0.00  0.00    +0.000 A 
ATOM      6  C   UNL     1      45.391   6.386  12.308  0.00  0.00    +0.000 A 
ATOM      7  C   UNL     1      46.124   7.500  11.904  0.00  0.00    +0.000 A 
ATOM      8 CL   UNL     1      45.464   9.093  12.258  0.00  0.00    +0.000 Cl
ATOM      9  C   UNL     1      47.509   7.527  12.016  0.00  0.00    +0.000 A 
BRANCH   6  10
ATOM     10  O   UNL     1      44.053   6.198  12.139  0.00  0.00    +0.000 OA
BRANCH  10  11
ATOM     11  C   UNL     1      43.481   5.224  11.243  0.00  0.00    +0.000 C 
ATOM     12  C   UNL     1      42.750   4.032  11.858  0.00  0.00    +0.000 C 
ATOM     13  C   UNL     1      43.641   2.815  12.043  0.00  0.00    +0.000 C 
ATOM     14  N   UNL     1      44.324   2.399  10.825  0.00  0.00    +0.000 NA
ATOM     15  C   UNL     1      45.007   3.465  10.107  0.00  0.00    +0.000 C 
ATOM     16  C   UNL     1      44.295   4.820  10.015  0.00  0.00    +0.000 C 
ATOM     17  H   UNL     1      43.702   1.890  10.203  0.00  0.00    +0.000 HD
ENDBRANCH  10  11
ENDBRANCH   6  10
ENDBRANCH   2   3
BRANCH   2  18
ATOM     18  N   UNL     1      49.290   7.279  15.123  0.00  0.00    +0.000 N 
ATOM     19  C   UNL     1      50.441   7.170  15.861  0.00  0.00    +0.000 C 
ATOM     20  O   UNL     1      51.566   7.291  15.384  0.00  0.00    +0.000 OA
ATOM     21  H   UNL     1      48.463   6.824  15.488  0.00  0.00    +0.000 HD
BRANCH  19  22
ATOM     22  C   UNL     1      50.240   6.967  17.300  0.00  0.00    +0.000 A 
ATOM     23  C   UNL     1      50.676   7.931  18.196  0.00  0.00    +0.000 A 
ATOM     24  S   UNL     1      50.296   7.563  19.815  0.00  0.00    +0.000 S 
ATOM     25  C   UNL     1      49.588   6.078  19.370  0.00  0.00    +0.000 A 
ATOM     26  N   UNL     1      49.060   5.244  20.307  0.00  0.00    +0.000 NA
ATOM     27  C   UNL     1      48.565   4.151  19.827  0.00  0.00    +0.000 A 
ATOM     28  N   UNL     1      48.556   3.812  18.498  0.00  0.00    +0.000 N 
ATOM     29  C   UNL     1      49.065   4.626  17.520  0.00  0.00    +0.000 A 
ATOM     30  O   UNL     1      49.016   4.306  16.334  0.00  0.00    +0.000 OA
ATOM     31  C   UNL     1      49.628   5.872  18.004  0.00  0.00    +0.000 A 
ATOM     32  H   UNL     1      48.150   2.942  18.187  0.00  0.00    +0.000 HD
ENDBRANCH  19  22
ENDBRANCH   2  18
TORSDOF 5
ENDMDL
MODEL 9
REMARK VINA RESULT:    -7.209      3.594      5.364
REMARK INTER + INTRA:          -9.624
REMARK INTER:                  -8.236
REMARK INTRA:                  -1.388
REMARK UNBOUND:                -0.308
REMARK  Name = 
REMARK  6 active torsions:
REMARK  status: ('A' for Active; 'I' for Inactive)
REMARK    1  A    between atoms: C_1  and  C_2
REMARK    2  A    between atoms: C_2  and  N_3
REMARK    3  A    between atoms: C_2  and  C_16
REMARK    4  A    between atoms: C_4  and  C_6
REMARK    5  A    between atoms: C_19  and  O_20
REMARK    6  A    between atoms: O_20  and  C_21
REMARK                            x       y       z     vdW  Elec       q    Type
REMARK                         _______ _______ _______ _____ _____    ______ ____
ROOT
ATOM      1  C   UNL     1      49.445   8.452  14.177  0.00  0.00    +0.000 C 
ATOM      2  C   UNL     1      49.117   6.984  14.485  0.00  0.00    +0.000 C 
ENDROOT
BRANCH   2   3
ATOM      3  C   UNL     1      47.961   6.544  13.599  0.00  0.00    +0.000 A 
ATOM      4  C   UNL     1      47.090   5.494  13.929  0.00  0.00    +0.000 A 
ATOM      5  C   UNL     1      45.860   5.365  13.262  0.00  0.00    +0.000 A 
ATOM      6  C   UNL     1      45.421   6.369  12.388  0.00  0.00    +0.000 A 
ATOM      7  C   UNL     1      46.251   7.479  12.246  0.00  0.00    +0.000 A 
ATOM      8 CL   UNL     1      45.604   9.055  12.687  0.00  0.00    +0.000 Cl
ATOM      9  C   UNL     1      47.600   7.413  12.575  0.00  0.00    +0.000 A 
BRANCH   6  10
ATOM     10  O   UNL     1      44.122   6.279  11.989  0.00  0.00    +0.000 OA
BRANCH  10  11
ATOM     11  C   UNL     1      43.638   5.323  11.026  0.00  0.00    +0.000 C 
ATOM     12  C   UNL     1      42.712   4.214  11.524  0.00  0.00    +0.000 C 
ATOM     13  C   UNL     1      43.454   2.938  11.888  0.00  0.00    +0.000 C 
ATOM     14  N   UNL     1      44.302   2.428  10.819  0.00  0.00    +0.000 NA
ATOM     15  C   UNL     1      45.187   3.413  10.213  0.00  0.00    +0.000 C 
ATOM     16  C   UNL     1      44.618   4.816   9.970  0.00  0.00    +0.000 C 
ATOM     17  H   UNL     1      43.759   1.949  10.106  0.00  0.00    +0.000 HD
ENDBRANCH  10  11
ENDBRANCH   6  10
ENDBRANCH   2   3
BRANCH   2  18
ATOM     18  N   UNL     1      48.826   6.740  15.871  0.00  0.00    +0.000 N 
ATOM     19  C   UNL     1      49.763   6.196  16.713  0.00  0.00    +0.000 C 
ATOM     20  O   UNL     1      50.931   6.000  16.390  0.00  0.00    +0.000 OA
ATOM     21  H   UNL     1      47.853   6.537  16.069  0.00  0.00    +0.000 HD
BRANCH  19  22
ATOM     22  C   UNL     1      49.291   5.923  18.074  0.00  0.00    +0.000 A 
ATOM     23  C   UNL     1      49.447   4.655  18.612  0.00  0.00    +0.000 A 
ATOM     24  S   UNL     1      48.909   4.539  20.224  0.00  0.00    +0.000 S 
ATOM     25  C   UNL     1      48.401   6.165  20.231  0.00  0.00    +0.000 A 
ATOM     26  N   UNL     1      47.826   6.717  21.334  0.00  0.00    +0.000 NA
ATOM     27  C   UNL     1      47.484   7.955  21.194  0.00  0.00    +0.000 A 
ATOM     28  N   UNL     1      47.656   8.691  20.049  0.00  0.00    +0.000 N 
ATOM     29  C   UNL     1      48.240   8.180  18.919  0.00  0.00    +0.000 A 
ATOM     30  O   UNL     1      48.406   8.874  17.917  0.00  0.00    +0.000 OA
ATOM     31  C   UNL     1      48.650   6.793  19.025  0.00  0.00    +0.000 A 
ATOM     32  H   UNL     1      47.369   9.657  20.005  0.00  0.00    +0.000 HD
ENDBRANCH  19  22
ENDBRANCH   2  18
TORSDOF 5
ENDMDL
