MODEL 1
REMARK VINA RESULT:    -7.607      0.000      0.000
REMARK INTER + INTRA:         -11.769
REMARK INTER:                 -10.721
REMARK INTRA:                  -1.048
REMARK UNBOUND:                -1.048
REMARK  Name = 
REMARK  7 active torsions:
REMARK  status: ('A' for Active; 'I' for Inactive)
REMARK    1  A    between atoms: C_2  and  C_3
REMARK    2  A    between atoms: C_6  and  O_7
REMARK    3  A    between atoms: O_7  and  C_8
REMARK    4  A    between atoms: C_8  and  C_9
REMARK    5  A    between atoms: C_9  and  C_10
REMARK    6  A    between atoms: C_14  and  O_15
REMARK    7  A    between atoms: O_15  and  C_16
REMARK                            x       y       z     vdW  Elec       q    Type
REMARK                         _______ _______ _______ _____ _____    ______ ____
ROOT
ATOM      1  C   UNL     1      43.863   4.713  12.438  0.00  0.00    +0.000 C 
ENDROOT
BRANCH   1   2
ATOM      2  C   UNL     1      45.262   5.255  12.605  0.00  0.00    +0.000 A 
ATOM      3  C   UNL     1      45.800   6.139  11.664  0.00  0.00    +0.000 A 
ATOM      4  C   UNL     1      47.077   6.676  11.847  0.00  0.00    +0.000 A 
ATOM      5  C   UNL     1      47.837   6.335  12.973  0.00  0.00    +0.000 A 
ATOM      6  C   UNL     1      47.313   5.452  13.913  0.00  0.00    +0.000 A 
ATOM      7  C   UNL     1      46.030   4.924  13.732  0.00  0.00    +0.000 A 
BRANCH   6   8
ATOM      8  O   UNL     1      47.941   5.070  15.073  0.00  0.00    +0.000 OA
BRANCH   8   9
ATOM      9  C   UNL     1      47.252   4.221  16.015  0.00  0.00    +0.000 C 
ATOM     10  C   UNL     1      47.355   4.595  17.516  0.00  0.00    +0.000 C 
ATOM     11  C   UNL     1      47.612   3.111  17.831  0.00  0.00    +0.000 C 
ATOM     12  C   UNL     1      48.030   2.923  16.367  0.00  0.00    +0.000 C 
ENDBRANCH   8   9
ENDBRANCH   6   8
ENDBRANCH   1   2
BRANCH   1  13
ATOM     13  C   UNL     1      43.856   3.399  11.655  0.00  0.00    +0.000 C 
BRANCH  13  14
ATOM     14  O   UNL     1      43.568   3.669  10.278  0.00  0.00    +0.000 OA
BRANCH  14  18
ATOM     15  C   UNL     1      46.516   2.429   7.589  0.00  0.00    +0.000 A 
ATOM     16  C   UNL     1      46.223   3.793   7.678  0.00  0.00    +0.000 A 
ATOM     17  C   UNL     1      45.241   4.248   8.566  0.00  0.00    +0.000 A 
ATOM     18  C   UNL     1      44.546   3.345   9.373  0.00  0.00    +0.000 A 
ATOM     19  C   UNL     1      44.842   1.983   9.282  0.00  0.00    +0.000 A 
ATOM     20  C   UNL     1      45.823   1.523   8.394  0.00  0.00    +0.000 A 
BRANCH  15  22
ATOM     21  N   UNL     1      48.338   1.601   5.937  0.00  0.00    +0.000 NA
ATOM     22  C   UNL     1      47.522   1.968   6.678  0.00  0.00    +0.000 C 
ENDBRANCH  15  22
ENDBRANCH  14  18
ENDBRANCH  13  14
ENDBRANCH   1  13
TORSDOF 7
ENDMDL
MODEL 2
REMARK VINA RESULT:    -6.687      1.772      3.610
REMARK INTER + INTRA:         -10.472
REMARK INTER:                  -9.637
REMARK INTRA:                  -0.834
REMARK UNBOUND:                -1.048
REMARK  Name = 
REMARK  7 active torsions:
REMARK  status: ('A' for Active; 'I' for Inactive)
REMARK    1  A    between atoms: C_2  and  C_3
REMARK    2  A    between atoms: C_6  and  O_7
REMARK    3  A    between atoms: O_7  and  C_8
REMARK    4  A    between atoms: C_8  and  C_9
REMARK    5  A    between atoms: C_9  and  C_10
REMARK    6  A    between atoms: C_14  and  O_15
REMARK    7  A    between atoms: O_15  and  C_16
REMARK                            x       y       z     vdW  Elec       q    Type
REMARK                         _______ _______ _______ _____ _____    ______ ____
ROOT
ATOM      1  C   UNL     1      43.676   4.589  12.254  0.00  0.00    +0.000 C 
ENDROOT
BRANCH   1   2
ATOM      2  C   UNL     1      45.001   5.141  12.724  0.00  0.00    +0.000 A 
ATOM      3  C   UNL     1      45.718   4.501  13.741  0.00  0.00    +0.000 A 
ATOM      4  C   UNL     1      46.965   4.989  14.140  0.00  0.00    +0.000 A 
ATOM      5  C   UNL     1      47.513   6.124  13.529  0.00  0.00    +0.000 A 
ATOM      6  C   UNL     1      46.806   6.770  12.520  0.00  0.00    +0.000 A 
ATOM      7  C   UNL     1      45.561   6.274  12.116  0.00  0.00    +0.000 A 
BRANCH   6   8
ATOM      8  O   UNL     1      47.251   7.865  11.822  0.00  0.00    +0.000 OA
BRANCH   8   9
ATOM      9  C   UNL     1      48.471   8.524  12.223  0.00  0.00    +0.000 C 
ATOM     10  C   UNL     1      48.788   9.893  11.569  0.00  0.00    +0.000 C 
ATOM     11  C   UNL     1      50.239   9.421  11.371  0.00  0.00    +0.000 C 
ATOM     12  C   UNL     1      49.737   7.978  11.508  0.00  0.00    +0.000 C 
ENDBRANCH   8   9
ENDBRANCH   6   8
ENDBRANCH   1   2
BRANCH   1  13
ATOM     13  C   UNL     1      43.524   4.700  10.736  0.00  0.00    +0.000 C 
BRANCH  13  14
ATOM     14  O   UNL     1      43.532   3.388  10.162  0.00  0.00    +0.000 OA
BRANCH  14  18
ATOM     15  C   UNL     1      46.552   2.322   7.476  0.00  0.00    +0.000 A 
ATOM     16  C   UNL     1      46.185   3.667   7.571  0.00  0.00    +0.000 A 
ATOM     17  C   UNL     1      45.177   4.065   8.458  0.00  0.00    +0.000 A 
ATOM     18  C   UNL     1      44.529   3.122   9.259  0.00  0.00    +0.000 A 
ATOM     19  C   UNL     1      44.899   1.778   9.161  0.00  0.00    +0.000 A 
ATOM     20  C   UNL     1      45.905   1.376   8.275  0.00  0.00    +0.000 A 
BRANCH  15  22
ATOM     21  N   UNL     1      48.420   1.588   5.832  0.00  0.00    +0.000 NA
ATOM     22  C   UNL     1      47.583   1.920   6.566  0.00  0.00    +0.000 C 
ENDBRANCH  15  22
ENDBRANCH  14  18
ENDBRANCH  13  14
ENDBRANCH   1  13
TORSDOF 7
ENDMDL
MODEL 3
REMARK VINA RESULT:    -6.660      1.258      1.815
REMARK INTER + INTRA:         -10.434
REMARK INTER:                  -9.551
REMARK INTRA:                  -0.883
REMARK UNBOUND:                -1.048
REMARK  Name = 
REMARK  7 active torsions:
REMARK  status: ('A' for Active; 'I' for Inactive)
REMARK    1  A    between atoms: C_2  and  C_3
REMARK    2  A    between atoms: C_6  and  O_7
REMARK    3  A    between atoms: O_7  and  C_8
REMARK    4  A    between atoms: C_8  and  C_9
REMARK    5  A    between atoms: C_9  and  C_10
REMARK    6  A    between atoms: C_14  and  O_15
REMARK    7  A    between atoms: O_15  and  C_16
REMARK                            x       y       z     vdW  Elec       q    Type
REMARK                         _______ _______ _______ _____ _____    ______ ____
ROOT
ATOM      1  C   UNL     1      44.865   4.097  12.065  0.00  0.00    +0.000 C 
ENDROOT
BRANCH   1   2
ATOM      2  C   UNL     1      45.986   4.974  12.569  0.00  0.00    +0.000 A 
ATOM      3  C   UNL     1      46.360   6.125  11.866  0.00  0.00    +0.000 A 
ATOM      4  C   UNL     1      47.366   6.960  12.361  0.00  0.00    +0.000 A 
ATOM      5  C   UNL     1      48.015   6.655  13.564  0.00  0.00    +0.000 A 
ATOM      6  C   UNL     1      47.654   5.510  14.268  0.00  0.00    +0.000 A 
ATOM      7  C   UNL     1      46.639   4.681  13.775  0.00  0.00    +0.000 A 
BRANCH   6   8
ATOM      8  O   UNL     1      48.187   5.124  15.473  0.00  0.00    +0.000 OA
BRANCH   8   9
ATOM      9  C   UNL     1      48.597   6.125  16.429  0.00  0.00    +0.000 C 
ATOM     10  C   UNL     1      50.118   6.287  16.680  0.00  0.00    +0.000 C 
ATOM     11  C   UNL     1      49.826   6.344  18.189  0.00  0.00    +0.000 C 
ATOM     12  C   UNL     1      48.482   5.659  17.906  0.00  0.00    +0.000 C 
ENDBRANCH   8   9
ENDBRANCH   6   8
ENDBRANCH   1   2
BRANCH   1  13
ATOM     13  C   UNL     1      43.980   4.834  11.059  0.00  0.00    +0.000 C 
BRANCH  13  14
ATOM     14  O   UNL     1      43.529   3.913  10.060  0.00  0.00    +0.000 OA
BRANCH  14  18
ATOM     15  C   UNL     1      46.524   2.433   7.549  0.00  0.00    +0.000 A 
ATOM     16  C   UNL     1      45.833   1.535   8.368  0.00  0.00    +0.000 A 
ATOM     17  C   UNL     1      44.824   1.992   9.224  0.00  0.00    +0.000 A 
ATOM     18  C   UNL     1      44.495   3.348   9.267  0.00  0.00    +0.000 A 
ATOM     19  C   UNL     1      45.186   4.243   8.446  0.00  0.00    +0.000 A 
ATOM     20  C   UNL     1      46.197   3.791   7.590  0.00  0.00    +0.000 A 
BRANCH  15  22
ATOM     21  N   UNL     1      48.397   1.576   5.971  0.00  0.00    +0.000 NA
ATOM     22  C   UNL     1      47.556   1.961   6.674  0.00  0.00    +0.000 C 
ENDBRANCH  15  22
ENDBRANCH  14  18
ENDBRANCH  13  14
ENDBRANCH   1  13
TORSDOF 7
ENDMDL
MODEL 4
REMARK VINA RESULT:    -6.405      2.090      4.161
REMARK INTER + INTRA:         -10.074
REMARK INTER:                  -9.724
REMARK INTRA:                  -0.350
REMARK UNBOUND:                -1.048
REMARK  Name = 
REMARK  7 active torsions:
REMARK  status: ('A' for Active; 'I' for Inactive)
REMARK    1  A    between atoms: C_2  and  C_3
REMARK    2  A    between atoms: C_6  and  O_7
REMARK    3  A    between atoms: O_7  and  C_8
REMARK    4  A    between atoms: C_8  and  C_9
REMARK    5  A    between atoms: C_9  and  C_10
REMARK    6  A    between atoms: C_14  and  O_15
REMARK    7  A    between atoms: O_15  and  C_16
REMARK                            x       y       z     vdW  Elec       q    Type
REMARK                         _______ _______ _______ _____ _____    ______ ____
ROOT
ATOM      1  C   UNL     1      45.050   3.160  11.914  0.00  0.00    +0.000 C 
ENDROOT
BRANCH   1   2
ATOM      2  C   UNL     1      45.613   4.462  12.431  0.00  0.00    +0.000 A 
ATOM      3  C   UNL     1      46.599   4.466  13.424  0.00  0.00    +0.000 A 
ATOM      4  C   UNL     1      47.152   5.672  13.866  0.00  0.00    +0.000 A 
ATOM      5  C   UNL     1      46.725   6.890  13.324  0.00  0.00    +0.000 A 
ATOM      6  C   UNL     1      45.740   6.897  12.339  0.00  0.00    +0.000 A 
ATOM      7  C   UNL     1      45.196   5.688  11.892  0.00  0.00    +0.000 A 
BRANCH   6   8
ATOM      8  O   UNL     1      45.267   8.019  11.706  0.00  0.00    +0.000 OA
BRANCH   8   9
ATOM      9  C   UNL     1      45.446   9.316  12.315  0.00  0.00    +0.000 C 
ATOM     10  C   UNL     1      44.587  10.484  11.766  0.00  0.00    +0.000 C 
ATOM     11  C   UNL     1      45.846  11.368  11.779  0.00  0.00    +0.000 C 
ATOM     12  C   UNL     1      46.688  10.085  11.786  0.00  0.00    +0.000 C 
ENDBRANCH   8   9
ENDBRANCH   6   8
ENDBRANCH   1   2
BRANCH   1  13
ATOM     13  C   UNL     1      43.595   3.312  11.467  0.00  0.00    +0.000 C 
BRANCH  13  14
ATOM     14  O   UNL     1      43.561   3.727  10.097  0.00  0.00    +0.000 OA
BRANCH  14  18
ATOM     15  C   UNL     1      46.513   2.323   7.493  0.00  0.00    +0.000 A 
ATOM     16  C   UNL     1      45.811   1.397   8.270  0.00  0.00    +0.000 A 
ATOM     17  C   UNL     1      44.815   1.827   9.155  0.00  0.00    +0.000 A 
ATOM     18  C   UNL     1      44.511   3.186   9.270  0.00  0.00    +0.000 A 
ATOM     19  C   UNL     1      45.215   4.108   8.490  0.00  0.00    +0.000 A 
ATOM     20  C   UNL     1      46.212   3.682   7.605  0.00  0.00    +0.000 A 
BRANCH  15  22
ATOM     21  N   UNL     1      48.353   1.511   5.853  0.00  0.00    +0.000 NA
ATOM     22  C   UNL     1      47.531   1.877   6.589  0.00  0.00    +0.000 C 
ENDBRANCH  15  22
ENDBRANCH  14  18
ENDBRANCH  13  14
ENDBRANCH   1  13
TORSDOF 7
ENDMDL
MODEL 5
REMARK VINA RESULT:    -6.313      3.020      4.803
REMARK INTER + INTRA:          -9.944
REMARK INTER:                  -9.261
REMARK INTRA:                  -0.683
REMARK UNBOUND:                -1.048
REMARK  Name = 
REMARK  7 active torsions:
REMARK  status: ('A' for Active; 'I' for Inactive)
REMARK    1  A    between atoms: C_2  and  C_3
REMARK    2  A    between atoms: C_6  and  O_7
REMARK    3  A    between atoms: O_7  and  C_8
REMARK    4  A    between atoms: C_8  and  C_9
REMARK    5  A    between atoms: C_9  and  C_10
REMARK    6  A    between atoms: C_14  and  O_15
REMARK    7  A    between atoms: O_15  and  C_16
REMARK                            x       y       z     vdW  Elec       q    Type
REMARK                         _______ _______ _______ _____ _____    ______ ____
ROOT
ATOM      1  C   UNL     1      44.940   5.157  11.890  0.00  0.00    +0.000 C 
ENDROOT
BRANCH   1   2
ATOM      2  C   UNL     1      45.641   6.488  12.018  0.00  0.00    +0.000 A 
ATOM      3  C   UNL     1      47.017   6.593  11.784  0.00  0.00    +0.000 A 
ATOM      4  C   UNL     1      47.653   7.836  11.857  0.00  0.00    +0.000 A 
ATOM      5  C   UNL     1      46.924   8.990  12.167  0.00  0.00    +0.000 A 
ATOM      6  C   UNL     1      45.556   8.896  12.407  0.00  0.00    +0.000 A 
ATOM      7  C   UNL     1      44.920   7.652  12.323  0.00  0.00    +0.000 A 
BRANCH   6   8
ATOM      8  O   UNL     1      44.728   9.956  12.682  0.00  0.00    +0.000 OA
BRANCH   8   9
ATOM      9  C   UNL     1      44.128  10.697  11.598  0.00  0.00    +0.000 C 
ATOM     10  C   UNL     1      43.715   9.899  10.335  0.00  0.00    +0.000 C 
ATOM     11  C   UNL     1      44.342  11.009   9.474  0.00  0.00    +0.000 C 
ATOM     12  C   UNL     1      45.161  11.432  10.700  0.00  0.00    +0.000 C 
ENDBRANCH   8   9
ENDBRANCH   6   8
ENDBRANCH   1   2
BRANCH   1  13
ATOM     13  C   UNL     1      43.921   5.163  10.751  0.00  0.00    +0.000 C 
BRANCH  13  14
ATOM     14  O   UNL     1      43.789   3.837  10.225  0.00  0.00    +0.000 OA
BRANCH  14  18
ATOM     15  C   UNL     1      46.580   2.426   7.453  0.00  0.00    +0.000 A 
ATOM     16  C   UNL     1      46.299   3.795   7.483  0.00  0.00    +0.000 A 
ATOM     17  C   UNL     1      45.370   4.307   8.396  0.00  0.00    +0.000 A 
ATOM     18  C   UNL     1      44.714   3.456   9.288  0.00  0.00    +0.000 A 
ATOM     19  C   UNL     1      44.998   2.088   9.256  0.00  0.00    +0.000 A 
ATOM     20  C   UNL     1      45.926   1.572   8.344  0.00  0.00    +0.000 A 
BRANCH  15  22
ATOM     21  N   UNL     1      48.304   1.492   5.753  0.00  0.00    +0.000 NA
ATOM     22  C   UNL     1      47.532   1.907   6.516  0.00  0.00    +0.000 C 
ENDBRANCH  15  22
ENDBRANCH  14  18
ENDBRANCH  13  14
ENDBRANCH   1  13
TORSDOF 7
ENDMDL
MODEL 6
REMARK VINA RESULT:    -6.157      3.426      8.010
REMARK INTER + INTRA:          -9.724
REMARK INTER:                  -9.066
REMARK INTRA:                  -0.658
REMARK UNBOUND:                -1.048
REMARK  Name = 
REMARK  7 active torsions:
REMARK  status: ('A' for Active; 'I' for Inactive)
REMARK    1  A    between atoms: C_2  and  C_3
REMARK    2  A    between atoms: C_6  and  O_7
REMARK    3  A    between atoms: O_7  and  C_8
REMARK    4  A    between atoms: C_8  and  C_9
REMARK    5  A    between atoms: C_9  and  C_10
REMARK    6  A    between atoms: C_14  and  O_15
REMARK    7  A    between atoms: O_15  and  C_16
REMARK                            x       y       z     vdW  Elec       q    Type
REMARK                         _______ _______ _______ _____ _____    ______ ____
ROOT
ATOM      1  C   UNL     1      46.358   5.339  13.614  0.00  0.00    +0.000 C 
ENDROOT
BRANCH   1   2
ATOM      2  C   UNL     1      45.268   5.144  12.587  0.00  0.00    +0.000 A 
ATOM      3  C   UNL     1      43.921   5.168  12.965  0.00  0.00    +0.000 A 
ATOM      4  C   UNL     1      42.915   5.035  12.004  0.00  0.00    +0.000 A 
ATOM      5  C   UNL     1      43.241   4.874  10.652  0.00  0.00    +0.000 A 
ATOM      6  C   UNL     1      44.578   4.844  10.266  0.00  0.00    +0.000 A 
ATOM      7  C   UNL     1      45.583   4.987  11.229  0.00  0.00    +0.000 A 
BRANCH   6   8
ATOM      8  O   UNL     1      45.023   4.730   8.972  0.00  0.00    +0.000 OA
BRANCH   8   9
ATOM      9  C   UNL     1      44.986   3.446   8.312  0.00  0.00    +0.000 C 
ATOM     10  C   UNL     1      45.263   2.192   9.180  0.00  0.00    +0.000 C 
ATOM     11  C   UNL     1      46.179   1.665   8.063  0.00  0.00    +0.000 C 
ATOM     12  C   UNL     1      46.291   3.104   7.542  0.00  0.00    +0.000 C 
ENDBRANCH   8   9
ENDBRANCH   6   8
ENDBRANCH   1   2
BRANCH   1  13
ATOM     13  C   UNL     1      46.910   4.002  14.112  0.00  0.00    +0.000 C 
BRANCH  13  14
ATOM     14  O   UNL     1      46.751   3.923  15.533  0.00  0.00    +0.000 OA
BRANCH  14  18
ATOM     15  C   UNL     1      50.238   4.038  17.834  0.00  0.00    +0.000 A 
ATOM     16  C   UNL     1      49.659   5.246  17.436  0.00  0.00    +0.000 A 
ATOM     17  C   UNL     1      48.491   5.250  16.664  0.00  0.00    +0.000 A 
ATOM     18  C   UNL     1      47.891   4.048  16.284  0.00  0.00    +0.000 A 
ATOM     19  C   UNL     1      48.473   2.842  16.685  0.00  0.00    +0.000 A 
ATOM     20  C   UNL     1      49.641   2.833  17.456  0.00  0.00    +0.000 A 
BRANCH  15  22
ATOM     21  N   UNL     1      52.403   4.033  19.265  0.00  0.00    +0.000 NA
ATOM     22  C   UNL     1      51.434   4.039  18.624  0.00  0.00    +0.000 C 
ENDBRANCH  15  22
ENDBRANCH  14  18
ENDBRANCH  13  14
ENDBRANCH   1  13
TORSDOF 7
ENDMDL
MODEL 7
REMARK VINA RESULT:    -6.037      3.116      7.494
REMARK INTER + INTRA:          -9.556
REMARK INTER:                  -8.794
REMARK INTRA:                  -0.762
REMARK UNBOUND:                -1.048
REMARK  Name = 
REMARK  7 active torsions:
REMARK  status: ('A' for Active; 'I' for Inactive)
REMARK    1  A    between atoms: C_2  and  C_3
REMARK    2  A    between atoms: C_6  and  O_7
REMARK    3  A    between atoms: O_7  and  C_8
REMARK    4  A    between atoms: C_8  and  C_9
REMARK    5  A    between atoms: C_9  and  C_10
REMARK    6  A    between atoms: C_14  and  O_15
REMARK    7  A    between atoms: O_15  and  C_16
REMARK                            x       y       z     vdW  Elec       q    Type
REMARK                         _______ _______ _______ _____ _____    ______ ____
ROOT
ATOM      1  C   UNL     1      44.916   6.906  11.821  0.00  0.00    +0.000 C 
ENDROOT
BRANCH   1   2
ATOM      2  C   UNL     1      44.511   5.464  11.627  0.00  0.00    +0.000 A 
ATOM      3  C   UNL     1      43.875   4.760  12.656  0.00  0.00    +0.000 A 
ATOM      4  C   UNL     1      43.460   3.440  12.456  0.00  0.00    +0.000 A 
ATOM      5  C   UNL     1      43.675   2.806  11.226  0.00  0.00    +0.000 A 
ATOM      6  C   UNL     1      44.311   3.496  10.199  0.00  0.00    +0.000 A 
ATOM      7  C   UNL     1      44.718   4.820  10.399  0.00  0.00    +0.000 A 
BRANCH   6   8
ATOM      8  O   UNL     1      44.546   2.998   8.941  0.00  0.00    +0.000 OA
BRANCH   8   9
ATOM      9  C   UNL     1      45.903   2.841   8.474  0.00  0.00    +0.000 C 
ATOM     10  C   UNL     1      46.199   3.234   7.005  0.00  0.00    +0.000 C 
ATOM     11  C   UNL     1      47.016   1.939   6.860  0.00  0.00    +0.000 C 
ATOM     12  C   UNL     1      46.258   1.382   8.073  0.00  0.00    +0.000 C 
ENDBRANCH   8   9
ENDBRANCH   6   8
ENDBRANCH   1   2
BRANCH   1  13
ATOM     13  C   UNL     1      46.398   7.034  12.173  0.00  0.00    +0.000 C 
BRANCH  13  14
ATOM     14  O   UNL     1      46.914   5.747  12.531  0.00  0.00    +0.000 OA
BRANCH  14  18
ATOM     15  C   UNL     1      48.175   5.087  16.461  0.00  0.00    +0.000 A 
ATOM     16  C   UNL     1      48.583   6.258  15.814  0.00  0.00    +0.000 A 
ATOM     17  C   UNL     1      48.182   6.515  14.498  0.00  0.00    +0.000 A 
ATOM     18  C   UNL     1      47.370   5.606  13.817  0.00  0.00    +0.000 A 
ATOM     19  C   UNL     1      46.963   4.437  14.466  0.00  0.00    +0.000 A 
ATOM     20  C   UNL     1      47.362   4.176  15.782  0.00  0.00    +0.000 A 
BRANCH  15  22
ATOM     21  N   UNL     1      48.917   4.614  18.902  0.00  0.00    +0.000 NA
ATOM     22  C   UNL     1      48.587   4.829  17.808  0.00  0.00    +0.000 C 
ENDBRANCH  15  22
ENDBRANCH  14  18
ENDBRANCH  13  14
ENDBRANCH   1  13
TORSDOF 7
ENDMDL
MODEL 8
REMARK VINA RESULT:    -5.993      3.145      7.963
REMARK INTER + INTRA:          -9.494
REMARK INTER:                  -8.800
REMARK INTRA:                  -0.694
REMARK UNBOUND:                -1.048
REMARK  Name = 
REMARK  7 active torsions:
REMARK  status: ('A' for Active; 'I' for Inactive)
REMARK    1  A    between atoms: C_2  and  C_3
REMARK    2  A    between atoms: C_6  and  O_7
REMARK    3  A    between atoms: O_7  and  C_8
REMARK    4  A    between atoms: C_8  and  C_9
REMARK    5  A    between atoms: C_9  and  C_10
REMARK    6  A    between atoms: C_14  and  O_15
REMARK    7  A    between atoms: O_15  and  C_16
REMARK                            x       y       z     vdW  Elec       q    Type
REMARK                         _______ _______ _______ _____ _____    ______ ____
ROOT
ATOM      1  C   UNL     1      46.046   6.928  11.751  0.00  0.00    +0.000 C 
ENDROOT
BRANCH   1   2
ATOM      2  C   UNL     1      45.471   5.856  10.856  0.00  0.00    +0.000 A 
ATOM      3  C   UNL     1      44.292   5.192  11.211  0.00  0.00    +0.000 A 
ATOM      4  C   UNL     1      43.736   4.234  10.357  0.00  0.00    +0.000 A 
ATOM      5  C   UNL     1      44.353   3.926   9.138  0.00  0.00    +0.000 A 
ATOM      6  C   UNL     1      45.530   4.577   8.779  0.00  0.00    +0.000 A 
ATOM      7  C   UNL     1      46.078   5.543   9.632  0.00  0.00    +0.000 A 
BRANCH   6   8
ATOM      8  O   UNL     1      46.206   4.390   7.600  0.00  0.00    +0.000 OA
BRANCH   8   9
ATOM      9  C   UNL     1      46.108   3.126   6.909  0.00  0.00    +0.000 C 
ATOM     10  C   UNL     1      46.966   1.953   7.449  0.00  0.00    +0.000 C 
ATOM     11  C   UNL     1      47.360   1.622   6.000  0.00  0.00    +0.000 C 
ATOM     12  C   UNL     1      46.966   3.055   5.616  0.00  0.00    +0.000 C 
ENDBRANCH   8   9
ENDBRANCH   6   8
ENDBRANCH   1   2
BRANCH   1  13
ATOM     13  C   UNL     1      47.515   6.660  12.081  0.00  0.00    +0.000 C 
BRANCH  13  14
ATOM     14  O   UNL     1      47.817   7.198  13.374  0.00  0.00    +0.000 OA
BRANCH  14  18
ATOM     15  C   UNL     1      48.136   4.634  16.659  0.00  0.00    +0.000 A 
ATOM     16  C   UNL     1      47.292   4.270  15.605  0.00  0.00    +0.000 A 
ATOM     17  C   UNL     1      47.158   5.102  14.487  0.00  0.00    +0.000 A 
ATOM     18  C   UNL     1      47.865   6.303  14.412  0.00  0.00    +0.000 A 
ATOM     19  C   UNL     1      48.708   6.663  15.467  0.00  0.00    +0.000 A 
ATOM     20  C   UNL     1      48.846   5.835  16.587  0.00  0.00    +0.000 A 
BRANCH  15  22
ATOM     21  N   UNL     1      48.382   3.090  18.730  0.00  0.00    +0.000 NA
ATOM     22  C   UNL     1      48.271   3.778  17.801  0.00  0.00    +0.000 C 
ENDBRANCH  15  22
ENDBRANCH  14  18
ENDBRANCH  13  14
ENDBRANCH   1  13
TORSDOF 7
ENDMDL
MODEL 9
REMARK VINA RESULT:    -5.651      3.149      7.006
REMARK INTER + INTRA:          -9.011
REMARK INTER:                  -8.158
REMARK INTRA:                  -0.854
REMARK UNBOUND:                -1.048
REMARK  Name = 
REMARK  7 active torsions:
REMARK  status: ('A' for Active; 'I' for Inactive)
REMARK    1  A    between atoms: C_2  and  C_3
REMARK    2  A    between atoms: C_6  and  O_7
REMARK    3  A    between atoms: O_7  and  C_8
REMARK    4  A    between atoms: C_8  and  C_9
REMARK    5  A    between atoms: C_9  and  C_10
REMARK    6  A    between atoms: C_14  and  O_15
REMARK    7  A    between atoms: O_15  and  C_16
REMARK                            x       y       z     vdW  Elec       q    Type
REMARK                         _______ _______ _______ _____ _____    ______ ____
ROOT
ATOM      1  C   UNL     1      46.194   4.757  13.812  0.00  0.00    +0.000 C 
ENDROOT
BRANCH   1   2
ATOM      2  C   UNL     1      45.160   4.781  12.712  0.00  0.00    +0.000 A 
ATOM      3  C   UNL     1      43.801   4.925  13.016  0.00  0.00    +0.000 A 
ATOM      4  C   UNL     1      42.852   4.994  11.992  0.00  0.00    +0.000 A 
ATOM      5  C   UNL     1      43.246   4.919  10.651  0.00  0.00    +0.000 A 
ATOM      6  C   UNL     1      44.595   4.771  10.338  0.00  0.00    +0.000 A 
ATOM      7  C   UNL     1      45.544   4.712  11.365  0.00  0.00    +0.000 A 
BRANCH   6   8
ATOM      8  O   UNL     1      45.109   4.723   9.067  0.00  0.00    +0.000 OA
BRANCH   8   9
ATOM      9  C   UNL     1      45.063   3.487   8.321  0.00  0.00    +0.000 C 
ATOM     10  C   UNL     1      45.276   2.172   9.113  0.00  0.00    +0.000 C 
ATOM     11  C   UNL     1      46.219   1.694   7.996  0.00  0.00    +0.000 C 
ATOM     12  C   UNL     1      46.387   3.161   7.577  0.00  0.00    +0.000 C 
ENDBRANCH   8   9
ENDBRANCH   6   8
ENDBRANCH   1   2
BRANCH   1  13
ATOM     13  C   UNL     1      47.401   5.632  13.472  0.00  0.00    +0.000 C 
BRANCH  13  14
ATOM     14  O   UNL     1      46.989   7.002  13.401  0.00  0.00    +0.000 OA
BRANCH  14  18
ATOM     15  C   UNL     1      49.784   9.444  11.479  0.00  0.00    +0.000 A 
ATOM     16  C   UNL     1      48.542   9.987  11.819  0.00  0.00    +0.000 A 
ATOM     17  C   UNL     1      47.578   9.202  12.463  0.00  0.00    +0.000 A 
ATOM     18  C   UNL     1      47.848   7.868  12.774  0.00  0.00    +0.000 A 
ATOM     19  C   UNL     1      49.091   7.328  12.433  0.00  0.00    +0.000 A 
ATOM     20  C   UNL     1      50.057   8.109  11.788  0.00  0.00    +0.000 A 
BRANCH  15  22
ATOM     21  N   UNL     1      51.559  10.910  10.281  0.00  0.00    +0.000 NA
ATOM     22  C   UNL     1      50.767  10.252  10.820  0.00  0.00    +0.000 C 
ENDBRANCH  15  22
ENDBRANCH  14  18
ENDBRANCH  13  14
ENDBRANCH   1  13
TORSDOF 7
ENDMDL
