MODEL 1
REMARK VINA RESULT:    -8.650      0.000      0.000
REMARK INTER + INTRA:         -11.493
REMARK INTER:                 -11.178
REMARK INTRA:                  -0.315
REMARK UNBOUND:                -0.315
REMARK  Name = 
REMARK  5 active torsions:
REMARK  status: ('A' for Active; 'I' for Inactive)
REMARK    1  A    between atoms: C_2  and  C_18
REMARK    2  A    between atoms: N_3  and  C_4
REMARK    3  A    between atoms: C_4  and  C_5
REMARK    4  A    between atoms: C_8  and  C_9
REMARK    5  A    between atoms: C_9  and  C_10
REMARK                            x       y       z     vdW  Elec       q    Type
REMARK                         _______ _______ _______ _____ _____    ______ ____
ROOT
ATOM      1  O   UNL     1      46.594   3.187  13.738  0.00  0.00    +0.000 OA
ATOM      2  C   UNL     1      46.392   4.348  14.077  0.00  0.00    +0.000 C 
ATOM      3  N   UNL     1      45.236   5.013  13.774  0.00  0.00    +0.000 N 
ATOM      4  H   UNL     1      45.191   6.017  13.921  0.00  0.00    +0.000 HD
ENDROOT
BRANCH   2   5
ATOM      5  C   UNL     1      47.368   5.093  14.884  0.00  0.00    +0.000 A 
ATOM      6  C   UNL     1      48.084   6.137  14.313  0.00  0.00    +0.000 A 
ATOM      7  S   UNL     1      49.178   6.883  15.389  0.00  0.00    +0.000 S 
ATOM      8  C   UNL     1      48.698   5.869  16.669  0.00  0.00    +0.000 A 
ATOM      9  N   UNL     1      49.233   6.008  17.909  0.00  0.00    +0.000 NA
ATOM     10  C   UNL     1      48.746   5.205  18.796  0.00  0.00    +0.000 A 
ATOM     11  N   UNL     1      47.776   4.265  18.547  0.00  0.00    +0.000 N 
ATOM     12  C   UNL     1      47.270   4.035  17.296  0.00  0.00    +0.000 A 
ATOM     13  O   UNL     1      46.521   3.087  17.085  0.00  0.00    +0.000 OA
ATOM     14  C   UNL     1      47.742   4.950  16.273  0.00  0.00    +0.000 A 
ATOM     15  H   UNL     1      47.463   3.643  19.278  0.00  0.00    +0.000 HD
ENDBRANCH   2   5
BRANCH   3  16
ATOM     16  C   UNL     1      44.234   4.479  12.886  0.00  0.00    +0.000 C 
BRANCH  16  17
ATOM     17  C   UNL     1      44.724   4.457  11.461  0.00  0.00    +0.000 A 
ATOM     18  C   UNL     1      44.393   3.384  10.625  0.00  0.00    +0.000 A 
ATOM     19  C   UNL     1      44.843   3.349   9.305  0.00  0.00    +0.000 A 
ATOM     20  C   UNL     1      45.634   4.385   8.792  0.00  0.00    +0.000 A 
ATOM     21  C   UNL     1      45.985   5.447   9.633  0.00  0.00    +0.000 A 
ATOM     22  C   UNL     1      45.544   5.477  10.961  0.00  0.00    +0.000 A 
BRANCH  20  23
ATOM     23  C   UNL     1      46.122   4.342   7.364  0.00  0.00    +0.000 C 
BRANCH  23  24
ATOM     24  C   UNL     1      46.172   2.933   6.729  0.00  0.00    +0.000 C 
ATOM     25  C   UNL     1      46.924   1.931   7.622  0.00  0.00    +0.000 C 
ATOM     26  C   UNL     1      47.353   0.673   6.879  0.00  0.00    +0.000 C 
ATOM     27  O   UNL     1      48.074   1.007   5.698  0.00  0.00    +0.000 OA
ATOM     28  C   UNL     1      47.247   1.698   4.768  0.00  0.00    +0.000 C 
ATOM     29  C   UNL     1      46.816   3.042   5.334  0.00  0.00    +0.000 C 
ENDBRANCH  23  24
ENDBRANCH  20  23
ENDBRANCH  16  17
ENDBRANCH   3  16
TORSDOF 5
ENDMDL
MODEL 2
REMARK VINA RESULT:    -8.438      1.511      2.248
REMARK INTER + INTRA:         -11.218
REMARK INTER:                 -10.296
REMARK INTRA:                  -0.923
REMARK UNBOUND:                -0.315
REMARK  Name = 
REMARK  5 active torsions:
REMARK  status: ('A' for Active; 'I' for Inactive)
REMARK    1  A    between atoms: C_2  and  C_18
REMARK    2  A    between atoms: N_3  and  C_4
REMARK    3  A    between atoms: C_4  and  C_5
REMARK    4  A    between atoms: C_8  and  C_9
REMARK    5  A    between atoms: C_9  and  C_10
REMARK                            x       y       z     vdW  Elec       q    Type
REMARK                         _______ _______ _______ _____ _____    ______ ____
ROOT
ATOM      1  O   UNL     1      48.046   7.375  12.634  0.00  0.00    +0.000 OA
ATOM      2  C   UNL     1      47.421   6.935  13.595  0.00  0.00    +0.000 C 
ATOM      3  N   UNL     1      46.065   6.761  13.574  0.00  0.00    +0.000 N 
ATOM      4  H   UNL     1      45.579   6.565  14.445  0.00  0.00    +0.000 HD
ENDROOT
BRANCH   2   5
ATOM      5  C   UNL     1      48.104   6.516  14.826  0.00  0.00    +0.000 A 
ATOM      6  C   UNL     1      49.023   7.363  15.431  0.00  0.00    +0.000 A 
ATOM      7  S   UNL     1      49.725   6.713  16.843  0.00  0.00    +0.000 S 
ATOM      8  C   UNL     1      48.789   5.296  16.723  0.00  0.00    +0.000 A 
ATOM      9  N   UNL     1      48.880   4.318  17.661  0.00  0.00    +0.000 NA
ATOM     10  C   UNL     1      48.081   3.320  17.472  0.00  0.00    +0.000 A 
ATOM     11  N   UNL     1      47.206   3.211  16.420  0.00  0.00    +0.000 N 
ATOM     12  C   UNL     1      47.142   4.133  15.410  0.00  0.00    +0.000 A 
ATOM     13  O   UNL     1      46.461   3.925  14.410  0.00  0.00    +0.000 OA
ATOM     14  C   UNL     1      47.978   5.303  15.602  0.00  0.00    +0.000 A 
ATOM     15  H   UNL     1      46.632   2.387  16.311  0.00  0.00    +0.000 HD
ENDBRANCH   2   5
BRANCH   3  16
ATOM     16  C   UNL     1      45.229   7.239  12.501  0.00  0.00    +0.000 C 
BRANCH  16  17
ATOM     17  C   UNL     1      45.115   6.215  11.402  0.00  0.00    +0.000 A 
ATOM     18  C   UNL     1      46.019   6.233  10.333  0.00  0.00    +0.000 A 
ATOM     19  C   UNL     1      45.922   5.292   9.307  0.00  0.00    +0.000 A 
ATOM     20  C   UNL     1      44.920   4.315   9.325  0.00  0.00    +0.000 A 
ATOM     21  C   UNL     1      44.001   4.310  10.381  0.00  0.00    +0.000 A 
ATOM     22  C   UNL     1      44.089   5.259  11.405  0.00  0.00    +0.000 A 
BRANCH  20  23
ATOM     23  C   UNL     1      44.816   3.302   8.211  0.00  0.00    +0.000 C 
BRANCH  23  24
ATOM     24  C   UNL     1      46.162   2.711   7.733  0.00  0.00    +0.000 C 
ATOM     25  C   UNL     1      46.416   3.001   6.243  0.00  0.00    +0.000 C 
ATOM     26  C   UNL     1      47.492   2.113   5.635  0.00  0.00    +0.000 C 
ATOM     27  O   UNL     1      47.214   0.740   5.889  0.00  0.00    +0.000 OA
ATOM     28  C   UNL     1      47.268   0.452   7.282  0.00  0.00    +0.000 C 
ATOM     29  C   UNL     1      46.169   1.198   8.023  0.00  0.00    +0.000 C 
ENDBRANCH  23  24
ENDBRANCH  20  23
ENDBRANCH  16  17
ENDBRANCH   3  16
TORSDOF 5
ENDMDL
MODEL 3
REMARK VINA RESULT:    -7.985      1.768      2.421
REMARK INTER + INTRA:         -10.634
REMARK INTER:                  -9.868
REMARK INTRA:                  -0.765
REMARK UNBOUND:                -0.315
REMARK  Name = 
REMARK  5 active torsions:
REMARK  status: ('A' for Active; 'I' for Inactive)
REMARK    1  A    between atoms: C_2  and  C_18
REMARK    2  A    between atoms: N_3  and  C_4
REMARK    3  A    between atoms: C_4  and  C_5
REMARK    4  A    between atoms: C_8  and  C_9
REMARK    5  A    between atoms: C_9  and  C_10
REMARK                            x       y       z     vdW  Elec       q    Type
REMARK                         _______ _______ _______ _____ _____    ______ ____
ROOT
ATOM      1  O   UNL     1      47.938   6.520  13.823  0.00  0.00    +0.000 OA
ATOM      2  C   UNL     1      47.225   5.718  14.418  0.00  0.00    +0.000 C 
ATOM      3  N   UNL     1      45.929   5.474  14.056  0.00  0.00    +0.000 N 
ATOM      4  H   UNL     1      45.334   4.940  14.683  0.00  0.00    +0.000 HD
ENDROOT
BRANCH   2   5
ATOM      5  C   UNL     1      47.738   4.923  15.541  0.00  0.00    +0.000 A 
ATOM      6  C   UNL     1      47.553   3.547  15.557  0.00  0.00    +0.000 A 
ATOM      7  S   UNL     1      48.204   2.786  16.938  0.00  0.00    +0.000 S 
ATOM      8  C   UNL     1      48.800   4.262  17.539  0.00  0.00    +0.000 A 
ATOM      9  N   UNL     1      49.507   4.310  18.699  0.00  0.00    +0.000 NA
ATOM     10  C   UNL     1      49.938   5.486  19.014  0.00  0.00    +0.000 A 
ATOM     11  N   UNL     1      49.714   6.622  18.276  0.00  0.00    +0.000 N 
ATOM     12  C   UNL     1      48.938   6.633  17.149  0.00  0.00    +0.000 A 
ATOM     13  O   UNL     1      48.635   7.690  16.604  0.00  0.00    +0.000 OA
ATOM     14  C   UNL     1      48.476   5.327  16.717  0.00  0.00    +0.000 A 
ATOM     15  H   UNL     1      50.050   7.519  18.597  0.00  0.00    +0.000 HD
ENDBRANCH   2   5
BRANCH   3  16
ATOM     16  C   UNL     1      45.231   6.254  13.065  0.00  0.00    +0.000 C 
BRANCH  16  17
ATOM     17  C   UNL     1      45.170   5.532  11.745  0.00  0.00    +0.000 A 
ATOM     18  C   UNL     1      45.926   5.992  10.660  0.00  0.00    +0.000 A 
ATOM     19  C   UNL     1      45.875   5.334   9.431  0.00  0.00    +0.000 A 
ATOM     20  C   UNL     1      45.069   4.203   9.258  0.00  0.00    +0.000 A 
ATOM     21  C   UNL     1      44.294   3.755  10.334  0.00  0.00    +0.000 A 
ATOM     22  C   UNL     1      44.334   4.421  11.564  0.00  0.00    +0.000 A 
BRANCH  20  23
ATOM     23  C   UNL     1      45.015   3.496   7.925  0.00  0.00    +0.000 C 
BRANCH  23  24
ATOM     24  C   UNL     1      46.328   2.804   7.495  0.00  0.00    +0.000 C 
ATOM     25  C   UNL     1      46.572   2.933   5.981  0.00  0.00    +0.000 C 
ATOM     26  C   UNL     1      47.602   1.943   5.454  0.00  0.00    +0.000 C 
ATOM     27  O   UNL     1      47.271   0.615   5.847  0.00  0.00    +0.000 OA
ATOM     28  C   UNL     1      47.333   0.467   7.262  0.00  0.00    +0.000 C 
ATOM     29  C   UNL     1      46.277   1.329   7.935  0.00  0.00    +0.000 C 
ENDBRANCH  23  24
ENDBRANCH  20  23
ENDBRANCH  16  17
ENDBRANCH   3  16
TORSDOF 5
ENDMDL
MODEL 4
REMARK VINA RESULT:    -7.415      2.345      3.511
REMARK INTER + INTRA:          -9.897
REMARK INTER:                  -9.446
REMARK INTRA:                  -0.451
REMARK UNBOUND:                -0.315
REMARK  Name = 
REMARK  5 active torsions:
REMARK  status: ('A' for Active; 'I' for Inactive)
REMARK    1  A    between atoms: C_2  and  C_18
REMARK    2  A    between atoms: N_3  and  C_4
REMARK    3  A    between atoms: C_4  and  C_5
REMARK    4  A    between atoms: C_8  and  C_9
REMARK    5  A    between atoms: C_9  and  C_10
REMARK                            x       y       z     vdW  Elec       q    Type
REMARK                         _______ _______ _______ _____ _____    ______ ____
ROOT
ATOM      1  O   UNL     1      50.350   6.536  15.774  0.00  0.00    +0.000 OA
ATOM      2  C   UNL     1      49.161   6.661  16.046  0.00  0.00    +0.000 C 
ATOM      3  N   UNL     1      48.180   6.628  15.093  0.00  0.00    +0.000 N 
ATOM      4  H   UNL     1      47.237   6.912  15.345  0.00  0.00    +0.000 HD
ENDROOT
BRANCH   2   5
ATOM      5  C   UNL     1      48.703   6.806  17.434  0.00  0.00    +0.000 A 
ATOM      6  C   UNL     1      48.180   8.016  17.868  0.00  0.00    +0.000 A 
ATOM      7  S   UNL     1      47.708   8.009  19.507  0.00  0.00    +0.000 S 
ATOM      8  C   UNL     1      48.140   6.372  19.681  0.00  0.00    +0.000 A 
ATOM      9  N   UNL     1      47.953   5.721  20.859  0.00  0.00    +0.000 NA
ATOM     10  C   UNL     1      48.282   4.472  20.839  0.00  0.00    +0.000 A 
ATOM     11  N   UNL     1      48.792   3.819  19.745  0.00  0.00    +0.000 N 
ATOM     12  C   UNL     1      49.075   4.455  18.567  0.00  0.00    +0.000 A 
ATOM     13  O   UNL     1      49.672   3.874  17.665  0.00  0.00    +0.000 OA
ATOM     14  C   UNL     1      48.671   5.848  18.516  0.00  0.00    +0.000 A 
ATOM     15  H   UNL     1      49.062   2.848  19.806  0.00  0.00    +0.000 HD
ENDBRANCH   2   5
BRANCH   3  16
ATOM     16  C   UNL     1      48.460   6.623  13.679  0.00  0.00    +0.000 C 
BRANCH  16  17
ATOM     17  C   UNL     1      47.280   6.115  12.891  0.00  0.00    +0.000 A 
ATOM     18  C   UNL     1      46.873   6.785  11.731  0.00  0.00    +0.000 A 
ATOM     19  C   UNL     1      45.781   6.327  10.994  0.00  0.00    +0.000 A 
ATOM     20  C   UNL     1      45.071   5.190  11.400  0.00  0.00    +0.000 A 
ATOM     21  C   UNL     1      45.461   4.533  12.573  0.00  0.00    +0.000 A 
ATOM     22  C   UNL     1      46.549   4.999  13.319  0.00  0.00    +0.000 A 
BRANCH  20  23
ATOM     23  C   UNL     1      43.887   4.700  10.603  0.00  0.00    +0.000 C 
BRANCH  23  24
ATOM     24  C   UNL     1      44.238   3.827   9.375  0.00  0.00    +0.000 C 
ATOM     25  C   UNL     1      44.528   2.370   9.775  0.00  0.00    +0.000 C 
ATOM     26  C   UNL     1      45.263   1.588   8.696  0.00  0.00    +0.000 C 
ATOM     27  O   UNL     1      46.431   2.286   8.276  0.00  0.00    +0.000 OA
ATOM     28  C   UNL     1      46.096   3.519   7.649  0.00  0.00    +0.000 C 
ATOM     29  C   UNL     1      45.436   4.461   8.644  0.00  0.00    +0.000 C 
ENDBRANCH  23  24
ENDBRANCH  20  23
ENDBRANCH  16  17
ENDBRANCH   3  16
TORSDOF 5
ENDMDL
MODEL 5
REMARK VINA RESULT:    -7.411      3.412      4.679
REMARK INTER + INTRA:          -9.892
REMARK INTER:                  -9.435
REMARK INTRA:                  -0.457
REMARK UNBOUND:                -0.315
REMARK  Name = 
REMARK  5 active torsions:
REMARK  status: ('A' for Active; 'I' for Inactive)
REMARK    1  A    between atoms: C_2  and  C_18
REMARK    2  A    between atoms: N_3  and  C_4
REMARK    3  A    between atoms: C_4  and  C_5
REMARK    4  A    between atoms: C_8  and  C_9
REMARK    5  A    between atoms: C_9  and  C_10
REMARK                            x       y       z     vdW  Elec       q    Type
REMARK                         _______ _______ _______ _____ _____    ______ ____
ROOT
ATOM      1  O   UNL     1      48.002   6.263  13.618  0.00  0.00    +0.000 OA
ATOM      2  C   UNL     1      47.267   7.221  13.401  0.00  0.00    +0.000 C 
ATOM      3  N   UNL     1      45.909   7.098  13.292  0.00  0.00    +0.000 N 
ATOM      4  H   UNL     1      45.370   7.883  12.939  0.00  0.00    +0.000 HD
ENDROOT
BRANCH   2   5
ATOM      5  C   UNL     1      47.799   8.586  13.294  0.00  0.00    +0.000 A 
ATOM      6  C   UNL     1      49.023   8.899  13.870  0.00  0.00    +0.000 A 
ATOM      7  S   UNL     1      49.481  10.528  13.657  0.00  0.00    +0.000 S 
ATOM      8  C   UNL     1      48.083  10.860  12.745  0.00  0.00    +0.000 A 
ATOM      9  N   UNL     1      47.871  12.093  12.216  0.00  0.00    +0.000 NA
ATOM     10  C   UNL     1      46.794  12.194  11.509  0.00  0.00    +0.000 A 
ATOM     11  N   UNL     1      45.905  11.171  11.294  0.00  0.00    +0.000 N 
ATOM     12  C   UNL     1      46.037   9.939  11.877  0.00  0.00    +0.000 A 
ATOM     13  O   UNL     1      45.145   9.101  11.786  0.00  0.00    +0.000 OA
ATOM     14  C   UNL     1      47.260   9.754  12.635  0.00  0.00    +0.000 A 
ATOM     15  H   UNL     1      45.063  11.325  10.759  0.00  0.00    +0.000 HD
ENDBRANCH   2   5
BRANCH   3  16
ATOM     16  C   UNL     1      45.239   5.823  13.242  0.00  0.00    +0.000 C 
BRANCH  16  17
ATOM     17  C   UNL     1      45.207   5.277  11.839  0.00  0.00    +0.000 A 
ATOM     18  C   UNL     1      44.541   4.075  11.570  0.00  0.00    +0.000 A 
ATOM     19  C   UNL     1      44.507   3.557  10.276  0.00  0.00    +0.000 A 
ATOM     20  C   UNL     1      45.139   4.227   9.221  0.00  0.00    +0.000 A 
ATOM     21  C   UNL     1      45.826   5.416   9.491  0.00  0.00    +0.000 A 
ATOM     22  C   UNL     1      45.871   5.931  10.791  0.00  0.00    +0.000 A 
BRANCH  20  23
ATOM     23  C   UNL     1      45.104   3.661   7.822  0.00  0.00    +0.000 C 
BRANCH  23  24
ATOM     24  C   UNL     1      46.397   2.943   7.371  0.00  0.00    +0.000 C 
ATOM     25  C   UNL     1      46.584   3.010   5.845  0.00  0.00    +0.000 C 
ATOM     26  C   UNL     1      47.588   1.994   5.320  0.00  0.00    +0.000 C 
ATOM     27  O   UNL     1      47.267   0.685   5.778  0.00  0.00    +0.000 OA
ATOM     28  C   UNL     1      47.381   0.593   7.194  0.00  0.00    +0.000 C 
ATOM     29  C   UNL     1      46.355   1.487   7.872  0.00  0.00    +0.000 C 
ENDBRANCH  23  24
ENDBRANCH  20  23
ENDBRANCH  16  17
ENDBRANCH   3  16
TORSDOF 5
ENDMDL
MODEL 6
REMARK VINA RESULT:    -7.398      4.179      8.799
REMARK INTER + INTRA:          -9.875
REMARK INTER:                  -9.104
REMARK INTRA:                  -0.771
REMARK UNBOUND:                -0.315
REMARK  Name = 
REMARK  5 active torsions:
REMARK  status: ('A' for Active; 'I' for Inactive)
REMARK    1  A    between atoms: C_2  and  C_18
REMARK    2  A    between atoms: N_3  and  C_4
REMARK    3  A    between atoms: C_4  and  C_5
REMARK    4  A    between atoms: C_8  and  C_9
REMARK    5  A    between atoms: C_9  and  C_10
REMARK                            x       y       z     vdW  Elec       q    Type
REMARK                         _______ _______ _______ _____ _____    ______ ____
ROOT
ATOM      1  O   UNL     1      48.863   6.297  12.822  0.00  0.00    +0.000 OA
ATOM      2  C   UNL     1      47.821   6.737  13.298  0.00  0.00    +0.000 C 
ATOM      3  N   UNL     1      47.804   7.618  14.344  0.00  0.00    +0.000 N 
ATOM      4  H   UNL     1      46.924   7.812  14.812  0.00  0.00    +0.000 HD
ENDROOT
BRANCH   2   5
ATOM      5  C   UNL     1      46.511   6.382  12.737  0.00  0.00    +0.000 A 
ATOM      6  C   UNL     1      45.714   7.364  12.163  0.00  0.00    +0.000 A 
ATOM      7  S   UNL     1      44.226   6.777  11.572  0.00  0.00    +0.000 S 
ATOM      8  C   UNL     1      44.615   5.181  12.017  0.00  0.00    +0.000 A 
ATOM      9  N   UNL     1      43.764   4.155  11.753  0.00  0.00    +0.000 NA
ATOM     10  C   UNL     1      44.204   2.992  12.103  0.00  0.00    +0.000 A 
ATOM     11  N   UNL     1      45.418   2.766  12.704  0.00  0.00    +0.000 N 
ATOM     12  C   UNL     1      46.267   3.778  13.062  0.00  0.00    +0.000 A 
ATOM     13  O   UNL     1      47.269   3.551  13.734  0.00  0.00    +0.000 OA
ATOM     14  C   UNL     1      45.848   5.101  12.640  0.00  0.00    +0.000 A 
ATOM     15  H   UNL     1      45.688   1.835  12.984  0.00  0.00    +0.000 HD
ENDBRANCH   2   5
BRANCH   3  16
ATOM     16  C   UNL     1      48.985   7.969  15.093  0.00  0.00    +0.000 C 
BRANCH  16  17
ATOM     17  C   UNL     1      49.461   6.814  15.934  0.00  0.00    +0.000 A 
ATOM     18  C   UNL     1      48.542   5.875  16.418  0.00  0.00    +0.000 A 
ATOM     19  C   UNL     1      48.970   4.802  17.201  0.00  0.00    +0.000 A 
ATOM     20  C   UNL     1      50.324   4.644  17.519  0.00  0.00    +0.000 A 
ATOM     21  C   UNL     1      51.241   5.595  17.057  0.00  0.00    +0.000 A 
ATOM     22  C   UNL     1      50.813   6.678  16.281  0.00  0.00    +0.000 A 
BRANCH  20  23
ATOM     23  C   UNL     1      50.782   3.484  18.369  0.00  0.00    +0.000 C 
BRANCH  23  24
ATOM     24  C   UNL     1      52.108   2.826  17.923  0.00  0.00    +0.000 C 
ATOM     25  C   UNL     1      51.921   1.335  17.590  0.00  0.00    +0.000 C 
ATOM     26  C   UNL     1      53.232   0.563  17.551  0.00  0.00    +0.000 C 
ATOM     27  O   UNL     1      53.975   0.770  18.747  0.00  0.00    +0.000 OA
ATOM     28  C   UNL     1      54.374   2.131  18.876  0.00  0.00    +0.000 C 
ATOM     29  C   UNL     1      53.158   3.030  19.032  0.00  0.00    +0.000 C 
ENDBRANCH  23  24
ENDBRANCH  20  23
ENDBRANCH  16  17
ENDBRANCH   3  16
TORSDOF 5
ENDMDL
MODEL 7
REMARK VINA RESULT:    -7.388      4.299      9.853
REMARK INTER + INTRA:          -9.863
REMARK INTER:                  -9.017
REMARK INTRA:                  -0.845
REMARK UNBOUND:                -0.315
REMARK  Name = 
REMARK  5 active torsions:
REMARK  status: ('A' for Active; 'I' for Inactive)
REMARK    1  A    between atoms: C_2  and  C_18
REMARK    2  A    between atoms: N_3  and  C_4
REMARK    3  A    between atoms: C_4  and  C_5
REMARK    4  A    between atoms: C_8  and  C_9
REMARK    5  A    between atoms: C_9  and  C_10
REMARK                            x       y       z     vdW  Elec       q    Type
REMARK                         _______ _______ _______ _____ _____    ______ ____
ROOT
ATOM      1  O   UNL     1      47.428   3.202  13.934  0.00  0.00    +0.000 OA
ATOM      2  C   UNL     1      46.847   4.164  14.426  0.00  0.00    +0.000 C 
ATOM      3  N   UNL     1      46.718   4.334  15.777  0.00  0.00    +0.000 N 
ATOM      4  H   UNL     1      46.081   5.045  16.126  0.00  0.00    +0.000 HD
ENDROOT
BRANCH   2   5
ATOM      5  C   UNL     1      46.289   5.233  13.588  0.00  0.00    +0.000 A 
ATOM      6  C   UNL     1      47.015   6.398  13.378  0.00  0.00    +0.000 A 
ATOM      7  S   UNL     1      46.213   7.534  12.390  0.00  0.00    +0.000 S 
ATOM      8  C   UNL     1      44.889   6.488  12.167  0.00  0.00    +0.000 A 
ATOM      9  N   UNL     1      43.843   6.844  11.376  0.00  0.00    +0.000 NA
ATOM     10  C   UNL     1      42.928   5.939  11.258  0.00  0.00    +0.000 A 
ATOM     11  N   UNL     1      42.964   4.712  11.872  0.00  0.00    +0.000 N 
ATOM     12  C   UNL     1      43.956   4.346  12.742  0.00  0.00    +0.000 A 
ATOM     13  O   UNL     1      43.875   3.306  13.388  0.00  0.00    +0.000 OA
ATOM     14  C   UNL     1      45.039   5.304  12.865  0.00  0.00    +0.000 A 
ATOM     15  H   UNL     1      42.199   4.062  11.767  0.00  0.00    +0.000 HD
ENDBRANCH   2   5
BRANCH   3  16
ATOM     16  C   UNL     1      47.091   3.323  16.734  0.00  0.00    +0.000 C 
BRANCH  16  17
ATOM     17  C   UNL     1      48.555   3.411  17.079  0.00  0.00    +0.000 A 
ATOM     18  C   UNL     1      49.349   2.258  17.055  0.00  0.00    +0.000 A 
ATOM     19  C   UNL     1      50.705   2.325  17.376  0.00  0.00    +0.000 A 
ATOM     20  C   UNL     1      51.298   3.544  17.727  0.00  0.00    +0.000 A 
ATOM     21  C   UNL     1      50.500   4.693  17.773  0.00  0.00    +0.000 A 
ATOM     22  C   UNL     1      49.137   4.626  17.464  0.00  0.00    +0.000 A 
BRANCH  20  23
ATOM     23  C   UNL     1      52.764   3.612  18.076  0.00  0.00    +0.000 C 
BRANCH  23  24
ATOM     24  C   UNL     1      53.093   3.412  19.574  0.00  0.00    +0.000 C 
ATOM     25  C   UNL     1      53.292   4.755  20.298  0.00  0.00    +0.000 C 
ATOM     26  C   UNL     1      54.006   4.613  21.635  0.00  0.00    +0.000 C 
ATOM     27  O   UNL     1      55.220   3.885  21.483  0.00  0.00    +0.000 OA
ATOM     28  C   UNL     1      54.968   2.544  21.076  0.00  0.00    +0.000 C 
ATOM     29  C   UNL     1      54.340   2.517  19.691  0.00  0.00    +0.000 C 
ENDBRANCH  23  24
ENDBRANCH  20  23
ENDBRANCH  16  17
ENDBRANCH   3  16
TORSDOF 5
ENDMDL
MODEL 8
REMARK VINA RESULT:    -7.386      4.249      6.301
REMARK INTER + INTRA:          -9.860
REMARK INTER:                  -8.802
REMARK INTRA:                  -1.058
REMARK UNBOUND:                -0.315
REMARK  Name = 
REMARK  5 active torsions:
REMARK  status: ('A' for Active; 'I' for Inactive)
REMARK    1  A    between atoms: C_2  and  C_18
REMARK    2  A    between atoms: N_3  and  C_4
REMARK    3  A    between atoms: C_4  and  C_5
REMARK    4  A    between atoms: C_8  and  C_9
REMARK    5  A    between atoms: C_9  and  C_10
REMARK                            x       y       z     vdW  Elec       q    Type
REMARK                         _______ _______ _______ _____ _____    ______ ____
ROOT
ATOM      1  O   UNL     1      51.768   6.141  16.556  0.00  0.00    +0.000 OA
ATOM      2  C   UNL     1      51.454   5.293  17.386  0.00  0.00    +0.000 C 
ATOM      3  N   UNL     1      50.193   5.206  17.909  0.00  0.00    +0.000 N 
ATOM      4  H   UNL     1      50.034   4.608  18.715  0.00  0.00    +0.000 HD
ENDROOT
BRANCH   2   5
ATOM      5  C   UNL     1      52.409   4.274  17.839  0.00  0.00    +0.000 A 
ATOM      6  C   UNL     1      53.627   4.660  18.385  0.00  0.00    +0.000 A 
ATOM      7  S   UNL     1      54.614   3.349  18.848  0.00  0.00    +0.000 S 
ATOM      8  C   UNL     1      53.430   2.220  18.381  0.00  0.00    +0.000 A 
ATOM      9  N   UNL     1      53.631   0.887  18.549  0.00  0.00    +0.000 NA
ATOM     10  C   UNL     1      52.633   0.146  18.195  0.00  0.00    +0.000 A 
ATOM     11  N   UNL     1      51.454   0.623  17.677  0.00  0.00    +0.000 N 
ATOM     12  C   UNL     1      51.243   1.949  17.414  0.00  0.00    +0.000 A 
ATOM     13  O   UNL     1      50.241   2.319  16.810  0.00  0.00    +0.000 OA
ATOM     14  C   UNL     1      52.310   2.832  17.846  0.00  0.00    +0.000 A 
ATOM     15  H   UNL     1      50.725  -0.013  17.387  0.00  0.00    +0.000 HD
ENDBRANCH   2   5
BRANCH   3  16
ATOM     16  C   UNL     1      49.175   6.199  17.673  0.00  0.00    +0.000 C 
BRANCH  16  17
ATOM     17  C   UNL     1      48.484   5.969  16.354  0.00  0.00    +0.000 A 
ATOM     18  C   UNL     1      47.738   4.802  16.150  0.00  0.00    +0.000 A 
ATOM     19  C   UNL     1      47.096   4.576  14.932  0.00  0.00    +0.000 A 
ATOM     20  C   UNL     1      47.185   5.510  13.892  0.00  0.00    +0.000 A 
ATOM     21  C   UNL     1      47.950   6.665  14.086  0.00  0.00    +0.000 A 
ATOM     22  C   UNL     1      48.605   6.888  15.303  0.00  0.00    +0.000 A 
BRANCH  20  23
ATOM     23  C   UNL     1      46.492   5.259  12.575  0.00  0.00    +0.000 C 
BRANCH  23  24
ATOM     24  C   UNL     1      45.046   4.723  12.685  0.00  0.00    +0.000 C 
ATOM     25  C   UNL     1      44.940   3.266  12.203  0.00  0.00    +0.000 C 
ATOM     26  C   UNL     1      43.510   2.837  11.906  0.00  0.00    +0.000 C 
ATOM     27  O   UNL     1      42.883   3.757  11.018  0.00  0.00    +0.000 OA
ATOM     28  C   UNL     1      42.746   5.040  11.619  0.00  0.00    +0.000 C 
ATOM     29  C   UNL     1      44.113   5.652  11.886  0.00  0.00    +0.000 C 
ENDBRANCH  23  24
ENDBRANCH  20  23
ENDBRANCH  16  17
ENDBRANCH   3  16
TORSDOF 5
ENDMDL
MODEL 9
REMARK VINA RESULT:    -7.154      3.527      4.793
REMARK INTER + INTRA:          -9.560
REMARK INTER:                  -8.789
REMARK INTRA:                  -0.770
REMARK UNBOUND:                -0.315
REMARK  Name = 
REMARK  5 active torsions:
REMARK  status: ('A' for Active; 'I' for Inactive)
REMARK    1  A    between atoms: C_2  and  C_18
REMARK    2  A    between atoms: N_3  and  C_4
REMARK    3  A    between atoms: C_4  and  C_5
REMARK    4  A    between atoms: C_8  and  C_9
REMARK    5  A    between atoms: C_9  and  C_10
REMARK                            x       y       z     vdW  Elec       q    Type
REMARK                         _______ _______ _______ _____ _____    ______ ____
ROOT
ATOM      1  O   UNL     1      49.731   6.532  14.883  0.00  0.00    +0.000 OA
ATOM      2  C   UNL     1      48.803   7.263  14.553  0.00  0.00    +0.000 C 
ATOM      3  N   UNL     1      47.545   6.787  14.301  0.00  0.00    +0.000 N 
ATOM      4  H   UNL     1      46.864   7.401  13.864  0.00  0.00    +0.000 HD
ENDROOT
BRANCH   2   5
ATOM      5  C   UNL     1      48.971   8.718  14.455  0.00  0.00    +0.000 A 
ATOM      6  C   UNL     1      49.112   9.479  15.608  0.00  0.00    +0.000 A 
ATOM      7  S   UNL     1      49.286  11.149  15.308  0.00  0.00    +0.000 S 
ATOM      8  C   UNL     1      49.229  10.909  13.624  0.00  0.00    +0.000 A 
ATOM      9  N   UNL     1      49.362  11.953  12.765  0.00  0.00    +0.000 NA
ATOM     10  C   UNL     1      49.346  11.624  11.516  0.00  0.00    +0.000 A 
ATOM     11  N   UNL     1      49.197  10.341  11.051  0.00  0.00    +0.000 N 
ATOM     12  C   UNL     1      48.977   9.273  11.878  0.00  0.00    +0.000 A 
ATOM     13  O   UNL     1      48.696   8.169  11.420  0.00  0.00    +0.000 OA
ATOM     14  C   UNL     1      49.043   9.578  13.295  0.00  0.00    +0.000 A 
ATOM     15  H   UNL     1      49.158  10.155  10.059  0.00  0.00    +0.000 HD
ENDBRANCH   2   5
BRANCH   3  16
ATOM     16  C   UNL     1      47.239   5.381  14.226  0.00  0.00    +0.000 C 
BRANCH  16  17
ATOM     17  C   UNL     1      46.390   5.071  13.020  0.00  0.00    +0.000 A 
ATOM     18  C   UNL     1      45.868   3.784  12.845  0.00  0.00    +0.000 A 
ATOM     19  C   UNL     1      45.084   3.483  11.730  0.00  0.00    +0.000 A 
ATOM     20  C   UNL     1      44.804   4.461  10.768  0.00  0.00    +0.000 A 
ATOM     21  C   UNL     1      45.345   5.741  10.929  0.00  0.00    +0.000 A 
ATOM     22  C   UNL     1      46.142   6.041  12.040  0.00  0.00    +0.000 A 
BRANCH  20  23
ATOM     23  C   UNL     1      43.959   4.130   9.562  0.00  0.00    +0.000 C 
BRANCH  23  24
ATOM     24  C   UNL     1      44.686   3.348   8.444  0.00  0.00    +0.000 C 
ATOM     25  C   UNL     1      45.180   1.976   8.935  0.00  0.00    +0.000 C 
ATOM     26  C   UNL     1      46.235   1.360   8.026  0.00  0.00    +0.000 C 
ATOM     27  O   UNL     1      47.298   2.277   7.794  0.00  0.00    +0.000 OA
ATOM     28  C   UNL     1      46.845   3.421   7.079  0.00  0.00    +0.000 C 
ATOM     29  C   UNL     1      45.847   4.210   7.913  0.00  0.00    +0.000 C 
ENDBRANCH  23  24
ENDBRANCH  20  23
ENDBRANCH  16  17
ENDBRANCH   3  16
TORSDOF 5
ENDMDL
