MODEL 1
REMARK VINA RESULT:    -8.294      0.000      0.000
REMARK INTER + INTRA:         -11.358
REMARK INTER:                 -10.718
REMARK INTRA:                  -0.640
REMARK UNBOUND:                -0.640
REMARK  Name = 
REMARK  5 active torsions:
REMARK  status: ('A' for Active; 'I' for Inactive)
REMARK    1  A    between atoms: C_6  and  C_7
REMARK    2  A    between atoms: C_9  and  C_10
REMARK    3  A    between atoms: C_10  and  C_11
REMARK    4  A    between atoms: C_11  and  C_12
REMARK    5  A    between atoms: C_16  and  C_17
REMARK                            x       y       z     vdW  Elec       q    Type
REMARK                         _______ _______ _______ _____ _____    ______ ____
ROOT
ATOM      1  C   UNL     1      46.962   5.895  12.634  0.00  0.00    +0.000 A 
ATOM      2  C   UNL     1      45.763   5.622  11.994  0.00  0.00    +0.000 A 
ATOM      3  C   UNL     1      45.118   4.445  12.324  0.00  0.00    +0.000 A 
ATOM      4  N   UNL     1      45.645   3.567  13.198  0.00  0.00    +0.000 NA
ATOM      5  C   UNL     1      46.818   3.907  13.752  0.00  0.00    +0.000 A 
ATOM      6  N   UNL     1      47.508   5.029  13.513  0.00  0.00    +0.000 NA
ENDROOT
BRANCH   1  12
ATOM      7  F   UNL     1      47.075  10.706  11.880  0.00  0.00    +0.000 F 
ATOM      8  C   UNL     1      47.746   9.560  12.054  0.00  0.00    +0.000 A 
ATOM      9  C   UNL     1      49.133   9.573  12.063  0.00  0.00    +0.000 A 
ATOM     10  C   UNL     1      49.822   8.378  12.251  0.00  0.00    +0.000 A 
ATOM     11  C   UNL     1      49.113   7.183  12.430  0.00  0.00    +0.000 A 
ATOM     12  C   UNL     1      47.704   7.154  12.422  0.00  0.00    +0.000 A 
ATOM     13  C   UNL     1      47.036   8.377  12.230  0.00  0.00    +0.000 A 
ENDBRANCH   1  12
BRANCH   3  14
ATOM     14  C   UNL     1      43.812   4.089  11.650  0.00  0.00    +0.000 C 
BRANCH  14  15
ATOM     15  C   UNL     1      43.915   2.828  10.784  0.00  0.00    +0.000 C 
BRANCH  15  16
ATOM     16  C   UNL     1      44.769   3.039   9.563  0.00  0.00    +0.000 A 
ATOM     17  C   UNL     1      44.855   4.282   8.949  0.00  0.00    +0.000 A 
ATOM     18  N   UNL     1      45.593   4.530   7.844  0.00  0.00    +0.000 NA
ATOM     19  C   UNL     1      46.278   3.489   7.317  0.00  0.00    +0.000 A 
ATOM     20  C   UNL     1      46.274   2.210   7.851  0.00  0.00    +0.000 A 
ATOM     21  C   UNL     1      45.505   1.991   9.002  0.00  0.00    +0.000 A 
BRANCH  20  22
ATOM     22  C   UNL     1      47.057   1.109   7.209  0.00  0.00    +0.000 C 
ATOM     23  F   UNL     1      46.868  -0.110   7.790  0.00  0.00    +0.000 F 
ATOM     24  F   UNL     1      46.744   0.944   5.894  0.00  0.00    +0.000 F 
ATOM     25  F   UNL     1      48.399   1.333   7.245  0.00  0.00    +0.000 F 
ENDBRANCH  20  22
ENDBRANCH  15  16
ENDBRANCH  14  15
ENDBRANCH   3  14
TORSDOF 5
ENDMDL
MODEL 2
REMARK VINA RESULT:    -8.119      1.698      7.294
REMARK INTER + INTRA:         -11.132
REMARK INTER:                 -10.229
REMARK INTRA:                  -0.903
REMARK UNBOUND:                -0.640
REMARK  Name = 
REMARK  5 active torsions:
REMARK  status: ('A' for Active; 'I' for Inactive)
REMARK    1  A    between atoms: C_6  and  C_7
REMARK    2  A    between atoms: C_9  and  C_10
REMARK    3  A    between atoms: C_10  and  C_11
REMARK    4  A    between atoms: C_11  and  C_12
REMARK    5  A    between atoms: C_16  and  C_17
REMARK                            x       y       z     vdW  Elec       q    Type
REMARK                         _______ _______ _______ _____ _____    ______ ____
ROOT
ATOM      1  C   UNL     1      44.839   3.580   9.637  0.00  0.00    +0.000 A 
ATOM      2  C   UNL     1      44.980   4.922   9.954  0.00  0.00    +0.000 A 
ATOM      3  C   UNL     1      44.223   5.413  11.001  0.00  0.00    +0.000 A 
ATOM      4  N   UNL     1      43.345   4.639  11.667  0.00  0.00    +0.000 NA
ATOM      5  C   UNL     1      43.263   3.358  11.277  0.00  0.00    +0.000 A 
ATOM      6  N   UNL     1      43.966   2.787  10.291  0.00  0.00    +0.000 NA
ENDROOT
BRANCH   1  12
ATOM      7  F   UNL     1      46.825  -0.396   7.643  0.00  0.00    +0.000 F 
ATOM      8  C   UNL     1      46.628   0.928   7.600  0.00  0.00    +0.000 A 
ATOM      9  C   UNL     1      47.163   1.666   6.554  0.00  0.00    +0.000 A 
ATOM     10  C   UNL     1      46.948   3.041   6.514  0.00  0.00    +0.000 A 
ATOM     11  C   UNL     1      46.197   3.661   7.522  0.00  0.00    +0.000 A 
ATOM     12  C   UNL     1      45.649   2.924   8.590  0.00  0.00    +0.000 A 
ATOM     13  C   UNL     1      45.883   1.538   8.604  0.00  0.00    +0.000 A 
ENDBRANCH   1  12
BRANCH   3  14
ATOM     14  C   UNL     1      44.327   6.872  11.386  0.00  0.00    +0.000 C 
BRANCH  14  15
ATOM     15  C   UNL     1      44.951   7.079  12.770  0.00  0.00    +0.000 C 
BRANCH  15  16
ATOM     16  C   UNL     1      46.455   7.049  12.732  0.00  0.00    +0.000 A 
ATOM     17  C   UNL     1      47.167   5.960  13.219  0.00  0.00    +0.000 A 
ATOM     18  N   UNL     1      48.517   5.881  13.225  0.00  0.00    +0.000 NA
ATOM     19  C   UNL     1      49.196   6.939  12.726  0.00  0.00    +0.000 A 
ATOM     20  C   UNL     1      48.591   8.073  12.206  0.00  0.00    +0.000 A 
ATOM     21  C   UNL     1      47.190   8.117  12.208  0.00  0.00    +0.000 A 
BRANCH  20  22
ATOM     22  C   UNL     1      49.411   9.204  11.674  0.00  0.00    +0.000 C 
ATOM     23  F   UNL     1      50.002   9.957  12.644  0.00  0.00    +0.000 F 
ATOM     24  F   UNL     1      50.423   8.780  10.868  0.00  0.00    +0.000 F 
ATOM     25  F   UNL     1      48.679  10.073  10.924  0.00  0.00    +0.000 F 
ENDBRANCH  20  22
ENDBRANCH  15  16
ENDBRANCH  14  15
ENDBRANCH   3  14
TORSDOF 5
ENDMDL
MODEL 3
REMARK VINA RESULT:    -7.947      1.519      2.045
REMARK INTER + INTRA:         -10.910
REMARK INTER:                  -9.926
REMARK INTRA:                  -0.984
REMARK UNBOUND:                -0.640
REMARK  Name = 
REMARK  5 active torsions:
REMARK  status: ('A' for Active; 'I' for Inactive)
REMARK    1  A    between atoms: C_6  and  C_7
REMARK    2  A    between atoms: C_9  and  C_10
REMARK    3  A    between atoms: C_10  and  C_11
REMARK    4  A    between atoms: C_11  and  C_12
REMARK    5  A    between atoms: C_16  and  C_17
REMARK                            x       y       z     vdW  Elec       q    Type
REMARK                         _______ _______ _______ _____ _____    ______ ____
ROOT
ATOM      1  C   UNL     1      47.309   6.543  12.793  0.00  0.00    +0.000 A 
ATOM      2  C   UNL     1      45.973   6.514  12.427  0.00  0.00    +0.000 A 
ATOM      3  C   UNL     1      45.170   5.557  13.020  0.00  0.00    +0.000 A 
ATOM      4  N   UNL     1      45.664   4.654  13.888  0.00  0.00    +0.000 NA
ATOM      5  C   UNL     1      46.972   4.747  14.167  0.00  0.00    +0.000 A 
ATOM      6  N   UNL     1      47.825   5.648  13.661  0.00  0.00    +0.000 NA
ENDROOT
BRANCH   1  12
ATOM      7  F   UNL     1      48.303  11.101  11.391  0.00  0.00    +0.000 F 
ATOM      8  C   UNL     1      48.732   9.849  11.596  0.00  0.00    +0.000 A 
ATOM      9  C   UNL     1      50.061   9.532  11.359  0.00  0.00    +0.000 A 
ATOM     10  C   UNL     1      50.500   8.230  11.581  0.00  0.00    +0.000 A 
ATOM     11  C   UNL     1      49.600   7.259  12.041  0.00  0.00    +0.000 A 
ATOM     12  C   UNL     1      48.247   7.565  12.286  0.00  0.00    +0.000 A 
ATOM     13  C   UNL     1      47.833   8.889  12.053  0.00  0.00    +0.000 A 
ENDBRANCH   1  12
BRANCH   3  14
ATOM     14  C   UNL     1      43.706   5.470  12.652  0.00  0.00    +0.000 C 
BRANCH  14  15
ATOM     15  C   UNL     1      43.467   5.561  11.140  0.00  0.00    +0.000 C 
BRANCH  15  16
ATOM     16  C   UNL     1      43.968   4.348  10.406  0.00  0.00    +0.000 A 
ATOM     17  C   UNL     1      43.562   3.069  10.765  0.00  0.00    +0.000 A 
ATOM     18  N   UNL     1      43.987   1.940  10.153  0.00  0.00    +0.000 NA
ATOM     19  C   UNL     1      44.866   2.088   9.135  0.00  0.00    +0.000 A 
ATOM     20  C   UNL     1      45.332   3.314   8.686  0.00  0.00    +0.000 A 
ATOM     21  C   UNL     1      44.863   4.463   9.337  0.00  0.00    +0.000 A 
BRANCH  20  22
ATOM     22  C   UNL     1      46.305   3.395   7.553  0.00  0.00    +0.000 C 
ATOM     23  F   UNL     1      45.729   3.268   6.325  0.00  0.00    +0.000 F 
ATOM     24  F   UNL     1      46.974   4.581   7.526  0.00  0.00    +0.000 F 
ATOM     25  F   UNL     1      47.263   2.430   7.616  0.00  0.00    +0.000 F 
ENDBRANCH  20  22
ENDBRANCH  15  16
ENDBRANCH  14  15
ENDBRANCH   3  14
TORSDOF 5
ENDMDL
MODEL 4
REMARK VINA RESULT:    -7.902      3.371      7.362
REMARK INTER + INTRA:         -10.852
REMARK INTER:                 -10.039
REMARK INTRA:                  -0.813
REMARK UNBOUND:                -0.640
REMARK  Name = 
REMARK  5 active torsions:
REMARK  status: ('A' for Active; 'I' for Inactive)
REMARK    1  A    between atoms: C_6  and  C_7
REMARK    2  A    between atoms: C_9  and  C_10
REMARK    3  A    between atoms: C_10  and  C_11
REMARK    4  A    between atoms: C_11  and  C_12
REMARK    5  A    between atoms: C_16  and  C_17
REMARK                            x       y       z     vdW  Elec       q    Type
REMARK                         _______ _______ _______ _____ _____    ______ ____
ROOT
ATOM      1  C   UNL     1      44.854   3.534   9.932  0.00  0.00    +0.000 A 
ATOM      2  C   UNL     1      45.177   4.729  10.556  0.00  0.00    +0.000 A 
ATOM      3  C   UNL     1      44.472   5.064  11.697  0.00  0.00    +0.000 A 
ATOM      4  N   UNL     1      43.477   4.290  12.170  0.00  0.00    +0.000 NA
ATOM      5  C   UNL     1      43.222   3.163  11.489  0.00  0.00    +0.000 A 
ATOM      6  N   UNL     1      43.860   2.744  10.389  0.00  0.00    +0.000 NA
ENDROOT
BRANCH   1  12
ATOM      7  F   UNL     1      46.890  -0.092   7.396  0.00  0.00    +0.000 F 
ATOM      8  C   UNL     1      46.593   1.210   7.491  0.00  0.00    +0.000 A 
ATOM      9  C   UNL     1      46.952   2.071   6.464  0.00  0.00    +0.000 A 
ATOM     10  C   UNL     1      46.634   3.423   6.569  0.00  0.00    +0.000 A 
ATOM     11  C   UNL     1      45.957   3.896   7.701  0.00  0.00    +0.000 A 
ATOM     12  C   UNL     1      45.587   3.034   8.752  0.00  0.00    +0.000 A 
ATOM     13  C   UNL     1      45.922   1.674   8.619  0.00  0.00    +0.000 A 
ENDBRANCH   1  12
BRANCH   3  14
ATOM     14  C   UNL     1      44.773   6.361  12.414  0.00  0.00    +0.000 C 
BRANCH  14  15
ATOM     15  C   UNL     1      46.223   6.821  12.227  0.00  0.00    +0.000 C 
BRANCH  15  16
ATOM     16  C   UNL     1      47.063   6.584  13.453  0.00  0.00    +0.000 A 
ATOM     17  C   UNL     1      47.955   7.544  13.912  0.00  0.00    +0.000 A 
ATOM     18  N   UNL     1      48.745   7.385  14.998  0.00  0.00    +0.000 NA
ATOM     19  C   UNL     1      48.649   6.208  15.659  0.00  0.00    +0.000 A 
ATOM     20  C   UNL     1      47.788   5.184  15.297  0.00  0.00    +0.000 A 
ATOM     21  C   UNL     1      46.977   5.387  14.172  0.00  0.00    +0.000 A 
BRANCH  20  22
ATOM     22  C   UNL     1      47.741   3.910  16.079  0.00  0.00    +0.000 C 
ATOM     23  F   UNL     1      47.708   2.791  15.302  0.00  0.00    +0.000 F 
ATOM     24  F   UNL     1      48.819   3.760  16.897  0.00  0.00    +0.000 F 
ATOM     25  F   UNL     1      46.648   3.834  16.887  0.00  0.00    +0.000 F 
ENDBRANCH  20  22
ENDBRANCH  15  16
ENDBRANCH  14  15
ENDBRANCH   3  14
TORSDOF 5
ENDMDL
MODEL 5
REMARK VINA RESULT:    -7.703      2.363      7.269
REMARK INTER + INTRA:         -10.595
REMARK INTER:                  -9.837
REMARK INTRA:                  -0.758
REMARK UNBOUND:                -0.640
REMARK  Name = 
REMARK  5 active torsions:
REMARK  status: ('A' for Active; 'I' for Inactive)
REMARK    1  A    between atoms: C_6  and  C_7
REMARK    2  A    between atoms: C_9  and  C_10
REMARK    3  A    between atoms: C_10  and  C_11
REMARK    4  A    between atoms: C_11  and  C_12
REMARK    5  A    between atoms: C_16  and  C_17
REMARK                            x       y       z     vdW  Elec       q    Type
REMARK                         _______ _______ _______ _____ _____    ______ ____
ROOT
ATOM      1  C   UNL     1      44.831   3.722   9.776  0.00  0.00    +0.000 A 
ATOM      2  C   UNL     1      45.081   5.025  10.179  0.00  0.00    +0.000 A 
ATOM      3  C   UNL     1      44.347   5.517  11.242  0.00  0.00    +0.000 A 
ATOM      4  N   UNL     1      43.392   4.784  11.844  0.00  0.00    +0.000 NA
ATOM      5  C   UNL     1      43.206   3.541  11.374  0.00  0.00    +0.000 A 
ATOM      6  N   UNL     1      43.878   2.971  10.366  0.00  0.00    +0.000 NA
ENDROOT
BRANCH   1  12
ATOM      7  F   UNL     1      46.716  -0.266   7.711  0.00  0.00    +0.000 F 
ATOM      8  C   UNL     1      46.532   1.060   7.678  0.00  0.00    +0.000 A 
ATOM      9  C   UNL     1      47.044   1.797   6.620  0.00  0.00    +0.000 A 
ATOM     10  C   UNL     1      46.843   3.174   6.591  0.00  0.00    +0.000 A 
ATOM     11  C   UNL     1      46.128   3.798   7.623  0.00  0.00    +0.000 A 
ATOM     12  C   UNL     1      45.603   3.062   8.704  0.00  0.00    +0.000 A 
ATOM     13  C   UNL     1      45.823   1.673   8.706  0.00  0.00    +0.000 A 
ENDBRANCH   1  12
BRANCH   3  14
ATOM     14  C   UNL     1      44.569   6.934  11.718  0.00  0.00    +0.000 C 
BRANCH  14  15
ATOM     15  C   UNL     1      45.700   7.046  12.746  0.00  0.00    +0.000 C 
BRANCH  15  16
ATOM     16  C   UNL     1      46.720   8.085  12.367  0.00  0.00    +0.000 A 
ATOM     17  C   UNL     1      46.373   9.425  12.242  0.00  0.00    +0.000 A 
ATOM     18  N   UNL     1      47.239  10.402  11.892  0.00  0.00    +0.000 NA
ATOM     19  C   UNL     1      48.517  10.029  11.646  0.00  0.00    +0.000 A 
ATOM     20  C   UNL     1      48.976   8.726  11.748  0.00  0.00    +0.000 A 
ATOM     21  C   UNL     1      48.053   7.741  12.123  0.00  0.00    +0.000 A 
BRANCH  20  22
ATOM     22  C   UNL     1      50.406   8.392  11.459  0.00  0.00    +0.000 C 
ATOM     23  F   UNL     1      51.061   9.355  10.750  0.00  0.00    +0.000 F 
ATOM     24  F   UNL     1      51.137   8.206  12.592  0.00  0.00    +0.000 F 
ATOM     25  F   UNL     1      50.539   7.245  10.738  0.00  0.00    +0.000 F 
ENDBRANCH  20  22
ENDBRANCH  15  16
ENDBRANCH  14  15
ENDBRANCH   3  14
TORSDOF 5
ENDMDL
MODEL 6
REMARK VINA RESULT:    -7.600      3.056      4.297
REMARK INTER + INTRA:         -10.462
REMARK INTER:                  -9.766
REMARK INTRA:                  -0.696
REMARK UNBOUND:                -0.640
REMARK  Name = 
REMARK  5 active torsions:
REMARK  status: ('A' for Active; 'I' for Inactive)
REMARK    1  A    between atoms: C_6  and  C_7
REMARK    2  A    between atoms: C_9  and  C_10
REMARK    3  A    between atoms: C_10  and  C_11
REMARK    4  A    between atoms: C_11  and  C_12
REMARK    5  A    between atoms: C_16  and  C_17
REMARK                            x       y       z     vdW  Elec       q    Type
REMARK                         _______ _______ _______ _____ _____    ______ ____
ROOT
ATOM      1  C   UNL     1      47.663   5.709  14.349  0.00  0.00    +0.000 A 
ATOM      2  C   UNL     1      46.504   5.458  13.631  0.00  0.00    +0.000 A 
ATOM      3  C   UNL     1      46.421   5.976  12.352  0.00  0.00    +0.000 A 
ATOM      4  N   UNL     1      47.402   6.735  11.828  0.00  0.00    +0.000 NA
ATOM      5  C   UNL     1      48.477   6.940  12.603  0.00  0.00    +0.000 A 
ATOM      6  N   UNL     1      48.659   6.466  13.843  0.00  0.00    +0.000 NA
ENDROOT
BRANCH   1  12
ATOM      7  F   UNL     1      46.775   2.390  17.801  0.00  0.00    +0.000 F 
ATOM      8  C   UNL     1      47.452   3.475  17.407  0.00  0.00    +0.000 A 
ATOM      9  C   UNL     1      48.391   4.043  18.255  0.00  0.00    +0.000 A 
ATOM     10  C   UNL     1      49.095   5.168  17.835  0.00  0.00    +0.000 A 
ATOM     11  C   UNL     1      48.851   5.711  16.566  0.00  0.00    +0.000 A 
ATOM     12  C   UNL     1      47.900   5.146  15.694  0.00  0.00    +0.000 A 
ATOM     13  C   UNL     1      47.204   4.010  16.146  0.00  0.00    +0.000 A 
ENDBRANCH   1  12
BRANCH   3  14
ATOM     14  C   UNL     1      45.176   5.745  11.527  0.00  0.00    +0.000 C 
BRANCH  14  15
ATOM     15  C   UNL     1      45.449   5.778  10.018  0.00  0.00    +0.000 C 
BRANCH  15  16
ATOM     16  C   UNL     1      45.458   4.403   9.407  0.00  0.00    +0.000 A 
ATOM     17  C   UNL     1      44.713   3.366   9.954  0.00  0.00    +0.000 A 
ATOM     18  N   UNL     1      44.690   2.108   9.459  0.00  0.00    +0.000 NA
ATOM     19  C   UNL     1      45.451   1.864   8.367  0.00  0.00    +0.000 A 
ATOM     20  C   UNL     1      46.226   2.824   7.734  0.00  0.00    +0.000 A 
ATOM     21  C   UNL     1      46.218   4.119   8.268  0.00  0.00    +0.000 A 
BRANCH  20  22
ATOM     22  C   UNL     1      47.043   2.477   6.530  0.00  0.00    +0.000 C 
ATOM     23  F   UNL     1      46.730   3.211   5.425  0.00  0.00    +0.000 F 
ATOM     24  F   UNL     1      48.376   2.665   6.733  0.00  0.00    +0.000 F 
ATOM     25  F   UNL     1      46.904   1.174   6.162  0.00  0.00    +0.000 F 
ENDBRANCH  20  22
ENDBRANCH  15  16
ENDBRANCH  14  15
ENDBRANCH   3  14
TORSDOF 5
ENDMDL
MODEL 7
REMARK VINA RESULT:    -7.514      3.172      4.482
REMARK INTER + INTRA:         -10.350
REMARK INTER:                  -9.469
REMARK INTRA:                  -0.881
REMARK UNBOUND:                -0.640
REMARK  Name = 
REMARK  5 active torsions:
REMARK  status: ('A' for Active; 'I' for Inactive)
REMARK    1  A    between atoms: C_6  and  C_7
REMARK    2  A    between atoms: C_9  and  C_10
REMARK    3  A    between atoms: C_10  and  C_11
REMARK    4  A    between atoms: C_11  and  C_12
REMARK    5  A    between atoms: C_16  and  C_17
REMARK                            x       y       z     vdW  Elec       q    Type
REMARK                         _______ _______ _______ _____ _____    ______ ____
ROOT
ATOM      1  C   UNL     1      48.141   6.253  14.364  0.00  0.00    +0.000 A 
ATOM      2  C   UNL     1      46.979   6.331  13.612  0.00  0.00    +0.000 A 
ATOM      3  C   UNL     1      47.066   6.914  12.362  0.00  0.00    +0.000 A 
ATOM      4  N   UNL     1      48.220   7.430  11.897  0.00  0.00    +0.000 NA
ATOM      5  C   UNL     1      49.288   7.326  12.702  0.00  0.00    +0.000 A 
ATOM      6  N   UNL     1      49.308   6.763  13.918  0.00  0.00    +0.000 NA
ENDROOT
BRANCH   1  12
ATOM      7  F   UNL     1      46.677   2.770  17.438  0.00  0.00    +0.000 F 
ATOM      8  C   UNL     1      47.455   3.834  17.203  0.00  0.00    +0.000 A 
ATOM      9  C   UNL     1      48.321   4.281  18.191  0.00  0.00    +0.000 A 
ATOM     10  C   UNL     1      49.130   5.385  17.936  0.00  0.00    +0.000 A 
ATOM     11  C   UNL     1      49.064   6.028  16.692  0.00  0.00    +0.000 A 
ATOM     12  C   UNL     1      48.189   5.586  15.680  0.00  0.00    +0.000 A 
ATOM     13  C   UNL     1      47.384   4.469  15.967  0.00  0.00    +0.000 A 
ENDBRANCH   1  12
BRANCH   3  14
ATOM     14  C   UNL     1      45.829   7.038  11.501  0.00  0.00    +0.000 C 
BRANCH  14  15
ATOM     15  C   UNL     1      44.699   6.102  11.947  0.00  0.00    +0.000 C 
BRANCH  15  16
ATOM     16  C   UNL     1      44.597   4.874  11.084  0.00  0.00    +0.000 A 
ATOM     17  C   UNL     1      43.787   3.805  11.445  0.00  0.00    +0.000 A 
ATOM     18  N   UNL     1      43.664   2.671  10.719  0.00  0.00    +0.000 NA
ATOM     19  C   UNL     1      44.386   2.590   9.578  0.00  0.00    +0.000 A 
ATOM     20  C   UNL     1      45.218   3.598   9.116  0.00  0.00    +0.000 A 
ATOM     21  C   UNL     1      45.314   4.763   9.888  0.00  0.00    +0.000 A 
BRANCH  20  22
ATOM     22  C   UNL     1      45.987   3.435   7.843  0.00  0.00    +0.000 C 
ATOM     23  F   UNL     1      46.742   2.301   7.801  0.00  0.00    +0.000 F 
ATOM     24  F   UNL     1      45.177   3.381   6.750  0.00  0.00    +0.000 F 
ATOM     25  F   UNL     1      46.849   4.463   7.618  0.00  0.00    +0.000 F 
ENDBRANCH  20  22
ENDBRANCH  15  16
ENDBRANCH  14  15
ENDBRANCH   3  14
TORSDOF 5
ENDMDL
MODEL 8
REMARK VINA RESULT:    -7.019      4.454      7.847
REMARK INTER + INTRA:          -9.710
REMARK INTER:                  -8.862
REMARK INTRA:                  -0.848
REMARK UNBOUND:                -0.640
REMARK  Name = 
REMARK  5 active torsions:
REMARK  status: ('A' for Active; 'I' for Inactive)
REMARK    1  A    between atoms: C_6  and  C_7
REMARK    2  A    between atoms: C_9  and  C_10
REMARK    3  A    between atoms: C_10  and  C_11
REMARK    4  A    between atoms: C_11  and  C_12
REMARK    5  A    between atoms: C_16  and  C_17
REMARK                            x       y       z     vdW  Elec       q    Type
REMARK                         _______ _______ _______ _____ _____    ______ ____
ROOT
ATOM      1  C   UNL     1      46.047   6.458  11.964  0.00  0.00    +0.000 A 
ATOM      2  C   UNL     1      47.263   6.313  12.614  0.00  0.00    +0.000 A 
ATOM      3  C   UNL     1      47.672   7.344  13.440  0.00  0.00    +0.000 A 
ATOM      4  N   UNL     1      46.948   8.471  13.581  0.00  0.00    +0.000 NA
ATOM      5  C   UNL     1      45.795   8.530  12.898  0.00  0.00    +0.000 A 
ATOM      6  N   UNL     1      45.306   7.579  12.092  0.00  0.00    +0.000 NA
ENDROOT
BRANCH   1  12
ATOM      7  F   UNL     1      43.286   2.487  11.393  0.00  0.00    +0.000 F 
ATOM      8  C   UNL     1      44.080   3.415  10.845  0.00  0.00    +0.000 A 
ATOM      9  C   UNL     1      44.329   3.385   9.480  0.00  0.00    +0.000 A 
ATOM     10  C   UNL     1      45.151   4.358   8.918  0.00  0.00    +0.000 A 
ATOM     11  C   UNL     1      45.713   5.352   9.730  0.00  0.00    +0.000 A 
ATOM     12  C   UNL     1      45.470   5.395  11.117  0.00  0.00    +0.000 A 
ATOM     13  C   UNL     1      44.636   4.399  11.657  0.00  0.00    +0.000 A 
ENDBRANCH   1  12
BRANCH   3  14
ATOM     14  C   UNL     1      48.994   7.247  14.166  0.00  0.00    +0.000 C 
BRANCH  14  15
ATOM     15  C   UNL     1      48.936   7.821  15.586  0.00  0.00    +0.000 C 
BRANCH  15  16
ATOM     16  C   UNL     1      48.729   6.755  16.628  0.00  0.00    +0.000 A 
ATOM     17  C   UNL     1      48.789   7.050  17.984  0.00  0.00    +0.000 A 
ATOM     18  N   UNL     1      48.625   6.135  18.965  0.00  0.00    +0.000 NA
ATOM     19  C   UNL     1      48.397   4.858  18.582  0.00  0.00    +0.000 A 
ATOM     20  C   UNL     1      48.308   4.451  17.260  0.00  0.00    +0.000 A 
ATOM     21  C   UNL     1      48.473   5.427  16.269  0.00  0.00    +0.000 A 
BRANCH  20  22
ATOM     22  C   UNL     1      48.054   3.017  16.915  0.00  0.00    +0.000 C 
ATOM     23  F   UNL     1      49.133   2.208  17.107  0.00  0.00    +0.000 F 
ATOM     24  F   UNL     1      47.048   2.474  17.654  0.00  0.00    +0.000 F 
ATOM     25  F   UNL     1      47.691   2.850  15.614  0.00  0.00    +0.000 F 
ENDBRANCH  20  22
ENDBRANCH  15  16
ENDBRANCH  14  15
ENDBRANCH   3  14
TORSDOF 5
ENDMDL
MODEL 9
REMARK VINA RESULT:    -6.947      2.177      2.732
REMARK INTER + INTRA:          -9.618
REMARK INTER:                  -9.013
REMARK INTRA:                  -0.605
REMARK UNBOUND:                -0.640
REMARK  Name = 
REMARK  5 active torsions:
REMARK  status: ('A' for Active; 'I' for Inactive)
REMARK    1  A    between atoms: C_6  and  C_7
REMARK    2  A    between atoms: C_9  and  C_10
REMARK    3  A    between atoms: C_10  and  C_11
REMARK    4  A    between atoms: C_11  and  C_12
REMARK    5  A    between atoms: C_16  and  C_17
REMARK                            x       y       z     vdW  Elec       q    Type
REMARK                         _______ _______ _______ _____ _____    ______ ____
ROOT
ATOM      1  C   UNL     1      47.101   6.229  13.621  0.00  0.00    +0.000 A 
ATOM      2  C   UNL     1      46.635   4.967  13.287  0.00  0.00    +0.000 A 
ATOM      3  C   UNL     1      45.594   4.892  12.380  0.00  0.00    +0.000 A 
ATOM      4  N   UNL     1      45.017   5.995  11.867  0.00  0.00    +0.000 NA
ATOM      5  C   UNL     1      45.522   7.173  12.264  0.00  0.00    +0.000 A 
ATOM      6  N   UNL     1      46.538   7.348  13.119  0.00  0.00    +0.000 NA
ENDROOT
BRANCH   1  12
ATOM      7  F   UNL     1      51.336   8.379  14.703  0.00  0.00    +0.000 F 
ATOM      8  C   UNL     1      50.367   7.522  15.051  0.00  0.00    +0.000 A 
ATOM      9  C   UNL     1      50.444   6.858  16.266  0.00  0.00    +0.000 A 
ATOM     10  C   UNL     1      49.430   5.973  16.622  0.00  0.00    +0.000 A 
ATOM     11  C   UNL     1      48.347   5.767  15.756  0.00  0.00    +0.000 A 
ATOM     12  C   UNL     1      48.256   6.434  14.519  0.00  0.00    +0.000 A 
ATOM     13  C   UNL     1      49.296   7.321  14.186  0.00  0.00    +0.000 A 
ENDBRANCH   1  12
BRANCH   3  14
ATOM     14  C   UNL     1      45.036   3.543  11.985  0.00  0.00    +0.000 C 
BRANCH  14  15
ATOM     15  C   UNL     1      44.241   3.589  10.676  0.00  0.00    +0.000 C 
BRANCH  15  16
ATOM     16  C   UNL     1      45.125   3.486   9.463  0.00  0.00    +0.000 A 
ATOM     17  C   UNL     1      45.518   4.618   8.759  0.00  0.00    +0.000 A 
ATOM     18  N   UNL     1      46.299   4.589   7.656  0.00  0.00    +0.000 NA
ATOM     19  C   UNL     1      46.708   3.373   7.225  0.00  0.00    +0.000 A 
ATOM     20  C   UNL     1      46.386   2.181   7.853  0.00  0.00    +0.000 A 
ATOM     21  C   UNL     1      45.582   2.249   8.999  0.00  0.00    +0.000 A 
BRANCH  20  22
ATOM     22  C   UNL     1      46.876   0.874   7.315  0.00  0.00    +0.000 C 
ATOM     23  F   UNL     1      46.703   0.736   5.970  0.00  0.00    +0.000 F 
ATOM     24  F   UNL     1      48.206   0.685   7.538  0.00  0.00    +0.000 F 
ATOM     25  F   UNL     1      46.249  -0.193   7.882  0.00  0.00    +0.000 F 
ENDBRANCH  20  22
ENDBRANCH  15  16
ENDBRANCH  14  15
ENDBRANCH   3  14
TORSDOF 5
ENDMDL
