MODEL 1
REMARK VINA RESULT:    -7.946      0.000      0.000
REMARK INTER + INTRA:         -11.179
REMARK INTER:                 -10.268
REMARK INTRA:                  -0.911
REMARK UNBOUND:                -0.911
REMARK  Name = 
REMARK  9 active torsions:
REMARK  status: ('A' for Active; 'I' for Inactive)
REMARK    1  A    between atoms: C_1  and  C_2
REMARK    2  A    between atoms: C_2  and  C_3
REMARK    3  A    between atoms: C_2  and  N_25
REMARK    4  A    between atoms: N_8  and  C_9
REMARK    5  A    between atoms: N_8  and  C_10
REMARK    6  A    between atoms: C_10  and  C_11
REMARK    7  A    between atoms: C_15  and  C_16
REMARK    8  A    between atoms: N_25  and  C_26
REMARK    9  A    between atoms: N_25  and  C_27
REMARK                            x       y       z     vdW  Elec       q    Type
REMARK                         _______ _______ _______ _____ _____    ______ ____
ROOT
ATOM      1  C   UNL     1      44.646   5.661  13.063  0.00  0.00    +0.000 C 
ENDROOT
BRANCH   1   7
ATOM      2  C   UNL     1      45.414   9.777  11.815  0.00  0.00    +0.000 A 
ATOM      3  C   UNL     1      46.729  10.227  11.864  0.00  0.00    +0.000 A 
ATOM      4  C   UNL     1      47.707   9.319  12.210  0.00  0.00    +0.000 A 
ATOM      5  N   UNL     1      47.461   8.029  12.524  0.00  0.00    +0.000 NA
ATOM      6  C   UNL     1      46.188   7.570  12.517  0.00  0.00    +0.000 A 
ATOM      7  N   UNL     1      45.969   6.266  12.931  0.00  0.00    +0.000 N 
ATOM      8  C   UNL     1      47.113   5.511  13.431  0.00  0.00    +0.000 C 
ATOM      9  C   UNL     1      45.158   8.428  12.127  0.00  0.00    +0.000 A 
BRANCH   2  11
ATOM     10  C   UNL     1      44.917  12.120  11.204  0.00  0.00    +0.000 C 
ATOM     11  C   UNL     1      44.284  10.738  11.450  0.00  0.00    +0.000 C 
BRANCH  11  12
ATOM     12  N   UNL     1      43.477  10.248  10.301  0.00  0.00    +0.000 NA
ATOM     13  C   UNL     1      42.054  10.122  10.654  0.00  0.00    +0.000 C 
ATOM     14  C   UNL     1      43.577  11.138   9.137  0.00  0.00    +0.000 C 
ENDBRANCH  11  12
ENDBRANCH   2  11
ENDBRANCH   1   7
BRANCH   1  15
ATOM     15  C   UNL     1      44.367   4.529  12.102  0.00  0.00    +0.000 A 
ATOM     16  C   UNL     1      43.425   3.568  12.457  0.00  0.00    +0.000 A 
ATOM     17  N   UNL     1      43.105   2.496  11.701  0.00  0.00    +0.000 NA
ATOM     18  C   UNL     1      43.777   2.354  10.534  0.00  0.00    +0.000 A 
ATOM     19  C   UNL     1      44.775   3.215  10.072  0.00  0.00    +0.000 A 
ATOM     20  C   UNL     1      45.044   4.327  10.892  0.00  0.00    +0.000 A 
BRANCH  19  21
ATOM     21  C   UNL     1      45.536   2.954   8.831  0.00  0.00    +0.000 A 
ATOM     22  C   UNL     1      45.898   3.995   7.953  0.00  0.00    +0.000 A 
ATOM     23  C   UNL     1      46.672   3.756   6.810  0.00  0.00    +0.000 A 
ATOM     24  C   UNL     1      47.091   2.464   6.513  0.00  0.00    +0.000 A 
ATOM     25  C   UNL     1      46.727   1.424   7.354  0.00  0.00    +0.000 A 
ATOM     26  F   UNL     1      47.126   0.178   7.072  0.00  0.00    +0.000 F 
ATOM     27  C   UNL     1      45.964   1.655   8.498  0.00  0.00    +0.000 A 
ENDBRANCH  19  21
ENDBRANCH   1  15
TORSDOF 5
ENDMDL
MODEL 2
REMARK VINA RESULT:    -7.646      1.823      2.580
REMARK INTER + INTRA:         -10.793
REMARK INTER:                  -9.808
REMARK INTRA:                  -0.985
REMARK UNBOUND:                -0.911
REMARK  Name = 
REMARK  9 active torsions:
REMARK  status: ('A' for Active; 'I' for Inactive)
REMARK    1  A    between atoms: C_1  and  C_2
REMARK    2  A    between atoms: C_2  and  C_3
REMARK    3  A    between atoms: C_2  and  N_25
REMARK    4  A    between atoms: N_8  and  C_9
REMARK    5  A    between atoms: N_8  and  C_10
REMARK    6  A    between atoms: C_10  and  C_11
REMARK    7  A    between atoms: C_15  and  C_16
REMARK    8  A    between atoms: N_25  and  C_26
REMARK    9  A    between atoms: N_25  and  C_27
REMARK                            x       y       z     vdW  Elec       q    Type
REMARK                         _______ _______ _______ _____ _____    ______ ____
ROOT
ATOM      1  C   UNL     1      45.023   5.585  13.193  0.00  0.00    +0.000 C 
ENDROOT
BRANCH   1   7
ATOM      2  C   UNL     1      48.024   8.648  12.359  0.00  0.00    +0.000 A 
ATOM      3  C   UNL     1      49.280   8.489  12.935  0.00  0.00    +0.000 A 
ATOM      4  C   UNL     1      49.519   7.333  13.647  0.00  0.00    +0.000 A 
ATOM      5  N   UNL     1      48.601   6.360  13.836  0.00  0.00    +0.000 NA
ATOM      6  C   UNL     1      47.360   6.501  13.316  0.00  0.00    +0.000 A 
ATOM      7  N   UNL     1      46.422   5.524  13.606  0.00  0.00    +0.000 N 
ATOM      8  C   UNL     1      46.812   4.461  14.526  0.00  0.00    +0.000 C 
ATOM      9  C   UNL     1      47.071   7.627  12.542  0.00  0.00    +0.000 A 
BRANCH   2  11
ATOM     10  C   UNL     1      46.241  10.298  11.899  0.00  0.00    +0.000 C 
ATOM     11  C   UNL     1      47.695   9.913  11.569  0.00  0.00    +0.000 C 
BRANCH  11  12
ATOM     12  N   UNL     1      48.667  11.009  11.830  0.00  0.00    +0.000 NA
ATOM     13  C   UNL     1      49.155  11.608  10.578  0.00  0.00    +0.000 C 
ATOM     14  C   UNL     1      48.084  12.081  12.647  0.00  0.00    +0.000 C 
ENDBRANCH  11  12
ENDBRANCH   2  11
ENDBRANCH   1   7
BRANCH   1  15
ATOM     15  C   UNL     1      44.605   4.520  12.206  0.00  0.00    +0.000 A 
ATOM     16  C   UNL     1      43.572   3.654  12.553  0.00  0.00    +0.000 A 
ATOM     17  N   UNL     1      43.124   2.647  11.774  0.00  0.00    +0.000 NA
ATOM     18  C   UNL     1      43.755   2.471  10.589  0.00  0.00    +0.000 A 
ATOM     19  C   UNL     1      44.831   3.235  10.130  0.00  0.00    +0.000 A 
ATOM     20  C   UNL     1      45.234   4.285  10.976  0.00  0.00    +0.000 A 
BRANCH  19  21
ATOM     21  C   UNL     1      45.536   2.933   8.866  0.00  0.00    +0.000 A 
ATOM     22  C   UNL     1      45.873   3.947   7.948  0.00  0.00    +0.000 A 
ATOM     23  C   UNL     1      46.596   3.669   6.779  0.00  0.00    +0.000 A 
ATOM     24  C   UNL     1      46.986   2.365   6.497  0.00  0.00    +0.000 A 
ATOM     25  C   UNL     1      46.644   1.350   7.379  0.00  0.00    +0.000 A 
ATOM     26  F   UNL     1      47.015   0.093   7.111  0.00  0.00    +0.000 F 
ATOM     27  C   UNL     1      45.932   1.620   8.547  0.00  0.00    +0.000 A 
ENDBRANCH  19  21
ENDBRANCH   1  15
TORSDOF 5
ENDMDL
MODEL 3
REMARK VINA RESULT:    -6.905      2.427      4.466
REMARK INTER + INTRA:          -9.835
REMARK INTER:                  -9.099
REMARK INTRA:                  -0.736
REMARK UNBOUND:                -0.911
REMARK  Name = 
REMARK  9 active torsions:
REMARK  status: ('A' for Active; 'I' for Inactive)
REMARK    1  A    between atoms: C_1  and  C_2
REMARK    2  A    between atoms: C_2  and  C_3
REMARK    3  A    between atoms: C_2  and  N_25
REMARK    4  A    between atoms: N_8  and  C_9
REMARK    5  A    between atoms: N_8  and  C_10
REMARK    6  A    between atoms: C_10  and  C_11
REMARK    7  A    between atoms: C_15  and  C_16
REMARK    8  A    between atoms: N_25  and  C_26
REMARK    9  A    between atoms: N_25  and  C_27
REMARK                            x       y       z     vdW  Elec       q    Type
REMARK                         _______ _______ _______ _____ _____    ______ ____
ROOT
ATOM      1  C   UNL     1      45.900   7.021  12.761  0.00  0.00    +0.000 C 
ENDROOT
BRANCH   1   7
ATOM      2  C   UNL     1      49.736   8.898  11.843  0.00  0.00    +0.000 A 
ATOM      3  C   UNL     1      49.710  10.180  11.303  0.00  0.00    +0.000 A 
ATOM      4  C   UNL     1      48.486  10.803  11.185  0.00  0.00    +0.000 A 
ATOM      5  N   UNL     1      47.313  10.236  11.541  0.00  0.00    +0.000 NA
ATOM      6  C   UNL     1      47.303   8.977  12.038  0.00  0.00    +0.000 A 
ATOM      7  N   UNL     1      46.074   8.398  12.308  0.00  0.00    +0.000 N 
ATOM      8  C   UNL     1      44.876   9.152  11.951  0.00  0.00    +0.000 C 
ATOM      9  C   UNL     1      48.516   8.312  12.229  0.00  0.00    +0.000 A 
BRANCH   2  11
ATOM     10  C   UNL     1      51.413   7.565  10.608  0.00  0.00    +0.000 C 
ATOM     11  C   UNL     1      51.061   8.151  11.988  0.00  0.00    +0.000 C 
BRANCH  11  12
ATOM     12  N   UNL     1      52.134   9.013  12.552  0.00  0.00    +0.000 NA
ATOM     13  C   UNL     1      52.551   8.556  13.887  0.00  0.00    +0.000 C 
ATOM     14  C   UNL     1      53.325   9.045  11.693  0.00  0.00    +0.000 C 
ENDBRANCH  11  12
ENDBRANCH   2  11
ENDBRANCH   1   7
BRANCH   1  15
ATOM     15  C   UNL     1      45.130   6.134  11.811  0.00  0.00    +0.000 A 
ATOM     16  C   UNL     1      43.764   5.961  12.015  0.00  0.00    +0.000 A 
ATOM     17  N   UNL     1      42.970   5.177  11.256  0.00  0.00    +0.000 NA
ATOM     18  C   UNL     1      43.571   4.502  10.247  0.00  0.00    +0.000 A 
ATOM     19  C   UNL     1      44.936   4.546   9.952  0.00  0.00    +0.000 A 
ATOM     20  C   UNL     1      45.704   5.402  10.762  0.00  0.00    +0.000 A 
BRANCH  19  21
ATOM     21  C   UNL     1      45.545   3.714   8.892  0.00  0.00    +0.000 A 
ATOM     22  C   UNL     1      46.195   4.290   7.782  0.00  0.00    +0.000 A 
ATOM     23  C   UNL     1      46.827   3.501   6.811  0.00  0.00    +0.000 A 
ATOM     24  C   UNL     1      46.811   2.116   6.923  0.00  0.00    +0.000 A 
ATOM     25  C   UNL     1      46.158   1.531   7.997  0.00  0.00    +0.000 A 
ATOM     26  F   UNL     1      46.138   0.198   8.109  0.00  0.00    +0.000 F 
ATOM     27  C   UNL     1      45.534   2.308   8.972  0.00  0.00    +0.000 A 
ENDBRANCH  19  21
ENDBRANCH   1  15
TORSDOF 5
ENDMDL
MODEL 4
REMARK VINA RESULT:    -6.751      3.659      6.848
REMARK INTER + INTRA:          -9.635
REMARK INTER:                  -8.955
REMARK INTRA:                  -0.681
REMARK UNBOUND:                -0.911
REMARK  Name = 
REMARK  9 active torsions:
REMARK  status: ('A' for Active; 'I' for Inactive)
REMARK    1  A    between atoms: C_1  and  C_2
REMARK    2  A    between atoms: C_2  and  C_3
REMARK    3  A    between atoms: C_2  and  N_25
REMARK    4  A    between atoms: N_8  and  C_9
REMARK    5  A    between atoms: N_8  and  C_10
REMARK    6  A    between atoms: C_10  and  C_11
REMARK    7  A    between atoms: C_15  and  C_16
REMARK    8  A    between atoms: N_25  and  C_26
REMARK    9  A    between atoms: N_25  and  C_27
REMARK                            x       y       z     vdW  Elec       q    Type
REMARK                         _______ _______ _______ _____ _____    ______ ____
ROOT
ATOM      1  C   UNL     1      48.858   7.490  13.643  0.00  0.00    +0.000 C 
ENDROOT
BRANCH   1   7
ATOM      2  C   UNL     1      48.723   5.571  17.564  0.00  0.00    +0.000 A 
ATOM      3  C   UNL     1      48.856   6.387  18.683  0.00  0.00    +0.000 A 
ATOM      4  C   UNL     1      48.925   7.749  18.480  0.00  0.00    +0.000 A 
ATOM      5  N   UNL     1      48.892   8.333  17.263  0.00  0.00    +0.000 NA
ATOM      6  C   UNL     1      48.797   7.563  16.154  0.00  0.00    +0.000 A 
ATOM      7  N   UNL     1      48.856   8.193  14.922  0.00  0.00    +0.000 N 
ATOM      8  C   UNL     1      49.109   9.630  14.906  0.00  0.00    +0.000 C 
ATOM      9  C   UNL     1      48.674   6.180  16.296  0.00  0.00    +0.000 A 
BRANCH   2  11
ATOM     10  C   UNL     1      47.229   3.613  17.339  0.00  0.00    +0.000 C 
ATOM     11  C   UNL     1      48.654   4.053  17.724  0.00  0.00    +0.000 C 
BRANCH  11  12
ATOM     12  N   UNL     1      49.714   3.357  16.945  0.00  0.00    +0.000 NA
ATOM     13  C   UNL     1      50.986   3.312  17.683  0.00  0.00    +0.000 C 
ATOM     14  C   UNL     1      49.337   1.977  16.611  0.00  0.00    +0.000 C 
ENDBRANCH  11  12
ENDBRANCH   2  11
ENDBRANCH   1   7
BRANCH   1  15
ATOM     15  C   UNL     1      47.520   7.447  12.941  0.00  0.00    +0.000 A 
ATOM     16  C   UNL     1      46.625   8.494  13.143  0.00  0.00    +0.000 A 
ATOM     17  N   UNL     1      45.392   8.562  12.597  0.00  0.00    +0.000 NA
ATOM     18  C   UNL     1      45.014   7.518  11.823  0.00  0.00    +0.000 A 
ATOM     19  C   UNL     1      45.789   6.384  11.567  0.00  0.00    +0.000 A 
ATOM     20  C   UNL     1      47.073   6.385  12.143  0.00  0.00    +0.000 A 
BRANCH  19  21
ATOM     21  C   UNL     1      45.281   5.236  10.787  0.00  0.00    +0.000 A 
ATOM     22  C   UNL     1      45.596   5.072   9.423  0.00  0.00    +0.000 A 
ATOM     23  C   UNL     1      45.167   3.951   8.699  0.00  0.00    +0.000 A 
ATOM     24  C   UNL     1      44.400   2.974   9.323  0.00  0.00    +0.000 A 
ATOM     25  C   UNL     1      44.063   3.128  10.659  0.00  0.00    +0.000 A 
ATOM     26  F   UNL     1      43.323   2.191  11.264  0.00  0.00    +0.000 F 
ATOM     27  C   UNL     1      44.493   4.236  11.388  0.00  0.00    +0.000 A 
ENDBRANCH  19  21
ENDBRANCH   1  15
TORSDOF 5
ENDMDL
MODEL 5
REMARK VINA RESULT:    -6.307      3.586      7.865
REMARK INTER + INTRA:          -9.061
REMARK INTER:                  -8.428
REMARK INTRA:                  -0.634
REMARK UNBOUND:                -0.911
REMARK  Name = 
REMARK  9 active torsions:
REMARK  status: ('A' for Active; 'I' for Inactive)
REMARK    1  A    between atoms: C_1  and  C_2
REMARK    2  A    between atoms: C_2  and  C_3
REMARK    3  A    between atoms: C_2  and  N_25
REMARK    4  A    between atoms: N_8  and  C_9
REMARK    5  A    between atoms: N_8  and  C_10
REMARK    6  A    between atoms: C_10  and  C_11
REMARK    7  A    between atoms: C_15  and  C_16
REMARK    8  A    between atoms: N_25  and  C_26
REMARK    9  A    between atoms: N_25  and  C_27
REMARK                            x       y       z     vdW  Elec       q    Type
REMARK                         _______ _______ _______ _____ _____    ______ ____
ROOT
ATOM      1  C   UNL     1      48.035   7.209  11.806  0.00  0.00    +0.000 C 
ENDROOT
BRANCH   1   7
ATOM      2  C   UNL     1      44.481   4.802  10.996  0.00  0.00    +0.000 A 
ATOM      3  C   UNL     1      43.241   5.417  11.146  0.00  0.00    +0.000 A 
ATOM      4  C   UNL     1      43.224   6.762  11.445  0.00  0.00    +0.000 A 
ATOM      5  N   UNL     1      44.334   7.510  11.622  0.00  0.00    +0.000 NA
ATOM      6  C   UNL     1      45.553   6.933  11.515  0.00  0.00    +0.000 A 
ATOM      7  N   UNL     1      46.665   7.713  11.791  0.00  0.00    +0.000 N 
ATOM      8  C   UNL     1      46.438   9.074  12.265  0.00  0.00    +0.000 C 
ATOM      9  C   UNL     1      45.639   5.584  11.165  0.00  0.00    +0.000 A 
BRANCH   2  11
ATOM     10  C   UNL     1      43.519   2.591  11.549  0.00  0.00    +0.000 C 
ATOM     11  C   UNL     1      44.566   3.310  10.677  0.00  0.00    +0.000 C 
BRANCH  11  12
ATOM     12  N   UNL     1      44.407   3.036   9.223  0.00  0.00    +0.000 NA
ATOM     13  C   UNL     1      45.089   4.050   8.403  0.00  0.00    +0.000 C 
ATOM     14  C   UNL     1      44.938   1.719   8.848  0.00  0.00    +0.000 C 
ENDBRANCH  11  12
ENDBRANCH   2  11
ENDBRANCH   1   7
BRANCH   1  15
ATOM     15  C   UNL     1      48.727   7.293  13.147  0.00  0.00    +0.000 A 
ATOM     16  C   UNL     1      49.840   8.119  13.274  0.00  0.00    +0.000 A 
ATOM     17  N   UNL     1      50.560   8.262  14.407  0.00  0.00    +0.000 NA
ATOM     18  C   UNL     1      50.169   7.522  15.471  0.00  0.00    +0.000 A 
ATOM     19  C   UNL     1      49.100   6.623  15.476  0.00  0.00    +0.000 A 
ATOM     20  C   UNL     1      48.373   6.539  14.274  0.00  0.00    +0.000 A 
BRANCH  19  21
ATOM     21  C   UNL     1      48.781   5.777  16.646  0.00  0.00    +0.000 A 
ATOM     22  C   UNL     1      49.256   6.089  17.935  0.00  0.00    +0.000 A 
ATOM     23  C   UNL     1      48.901   5.322  19.054  0.00  0.00    +0.000 A 
ATOM     24  C   UNL     1      48.072   4.217  18.904  0.00  0.00    +0.000 A 
ATOM     25  C   UNL     1      47.611   3.882  17.639  0.00  0.00    +0.000 A 
ATOM     26  F   UNL     1      46.814   2.818  17.489  0.00  0.00    +0.000 F 
ATOM     27  C   UNL     1      47.953   4.645  16.523  0.00  0.00    +0.000 A 
ENDBRANCH  19  21
ENDBRANCH   1  15
TORSDOF 5
ENDMDL
MODEL 6
REMARK VINA RESULT:    -6.161      4.259      8.012
REMARK INTER + INTRA:          -8.873
REMARK INTER:                  -7.979
REMARK INTRA:                  -0.894
REMARK UNBOUND:                -0.911
REMARK  Name = 
REMARK  9 active torsions:
REMARK  status: ('A' for Active; 'I' for Inactive)
REMARK    1  A    between atoms: C_1  and  C_2
REMARK    2  A    between atoms: C_2  and  C_3
REMARK    3  A    between atoms: C_2  and  N_25
REMARK    4  A    between atoms: N_8  and  C_9
REMARK    5  A    between atoms: N_8  and  C_10
REMARK    6  A    between atoms: C_10  and  C_11
REMARK    7  A    between atoms: C_15  and  C_16
REMARK    8  A    between atoms: N_25  and  C_26
REMARK    9  A    between atoms: N_25  and  C_27
REMARK                            x       y       z     vdW  Elec       q    Type
REMARK                         _______ _______ _______ _____ _____    ______ ____
ROOT
ATOM      1  C   UNL     1      49.941   7.648  15.113  0.00  0.00    +0.000 C 
ENDROOT
BRANCH   1   7
ATOM      2  C   UNL     1      49.008   4.415  17.898  0.00  0.00    +0.000 A 
ATOM      3  C   UNL     1      48.299   4.744  19.049  0.00  0.00    +0.000 A 
ATOM      4  C   UNL     1      47.859   6.043  19.183  0.00  0.00    +0.000 A 
ATOM      5  N   UNL     1      48.094   7.017  18.277  0.00  0.00    +0.000 NA
ATOM      6  C   UNL     1      48.810   6.735  17.163  0.00  0.00    +0.000 A 
ATOM      7  N   UNL     1      49.105   7.779  16.303  0.00  0.00    +0.000 N 
ATOM      8  C   UNL     1      48.703   9.123  16.704  0.00  0.00    +0.000 C 
ATOM      9  C   UNL     1      49.240   5.425  16.945  0.00  0.00    +0.000 A 
BRANCH   2  11
ATOM     10  C   UNL     1      48.648   2.322  16.630  0.00  0.00    +0.000 C 
ATOM     11  C   UNL     1      49.532   2.994  17.697  0.00  0.00    +0.000 C 
BRANCH  11  12
ATOM     12  N   UNL     1      50.981   2.971  17.359  0.00  0.00    +0.000 NA
ATOM     13  C   UNL     1      51.777   3.731  18.336  0.00  0.00    +0.000 C 
ATOM     14  C   UNL     1      51.514   1.603  17.308  0.00  0.00    +0.000 C 
ENDBRANCH  11  12
ENDBRANCH   2  11
ENDBRANCH   1   7
BRANCH   1  15
ATOM     15  C   UNL     1      49.180   7.509  13.815  0.00  0.00    +0.000 A 
ATOM     16  C   UNL     1      49.510   8.347  12.753  0.00  0.00    +0.000 A 
ATOM     17  N   UNL     1      48.890   8.342  11.554  0.00  0.00    +0.000 NA
ATOM     18  C   UNL     1      47.865   7.470  11.405  0.00  0.00    +0.000 A 
ATOM     19  C   UNL     1      47.399   6.601  12.395  0.00  0.00    +0.000 A 
ATOM     20  C   UNL     1      48.103   6.636  13.613  0.00  0.00    +0.000 A 
BRANCH  19  21
ATOM     21  C   UNL     1      46.215   5.737  12.198  0.00  0.00    +0.000 A 
ATOM     22  C   UNL     1      45.582   5.094  13.280  0.00  0.00    +0.000 A 
ATOM     23  C   UNL     1      44.423   4.326  13.102  0.00  0.00    +0.000 A 
ATOM     24  C   UNL     1      43.879   4.174  11.832  0.00  0.00    +0.000 A 
ATOM     25  C   UNL     1      44.500   4.783  10.752  0.00  0.00    +0.000 A 
ATOM     26  F   UNL     1      43.981   4.639   9.527  0.00  0.00    +0.000 F 
ATOM     27  C   UNL     1      45.648   5.555  10.922  0.00  0.00    +0.000 A 
ENDBRANCH  19  21
ENDBRANCH   1  15
TORSDOF 5
ENDMDL
MODEL 7
REMARK VINA RESULT:    -6.120      5.465      8.140
REMARK INTER + INTRA:          -8.819
REMARK INTER:                  -7.898
REMARK INTRA:                  -0.921
REMARK UNBOUND:                -0.911
REMARK  Name = 
REMARK  9 active torsions:
REMARK  status: ('A' for Active; 'I' for Inactive)
REMARK    1  A    between atoms: C_1  and  C_2
REMARK    2  A    between atoms: C_2  and  C_3
REMARK    3  A    between atoms: C_2  and  N_25
REMARK    4  A    between atoms: N_8  and  C_9
REMARK    5  A    between atoms: N_8  and  C_10
REMARK    6  A    between atoms: C_10  and  C_11
REMARK    7  A    between atoms: C_15  and  C_16
REMARK    8  A    between atoms: N_25  and  C_26
REMARK    9  A    between atoms: N_25  and  C_27
REMARK                            x       y       z     vdW  Elec       q    Type
REMARK                         _______ _______ _______ _____ _____    ______ ____
ROOT
ATOM      1  C   UNL     1      48.388   6.663  16.468  0.00  0.00    +0.000 C 
ENDROOT
BRANCH   1   7
ATOM      2  C   UNL     1      46.836   6.542  12.386  0.00  0.00    +0.000 A 
ATOM      3  C   UNL     1      47.599   7.146  11.392  0.00  0.00    +0.000 A 
ATOM      4  C   UNL     1      48.830   7.654  11.746  0.00  0.00    +0.000 A 
ATOM      5  N   UNL     1      49.328   7.619  13.001  0.00  0.00    +0.000 NA
ATOM      6  C   UNL     1      48.596   7.068  13.996  0.00  0.00    +0.000 A 
ATOM      7  N   UNL     1      49.102   7.131  15.284  0.00  0.00    +0.000 N 
ATOM      8  C   UNL     1      50.345   7.868  15.489  0.00  0.00    +0.000 C 
ATOM      9  C   UNL     1      47.361   6.492  13.692  0.00  0.00    +0.000 A 
BRANCH   2  11
ATOM     10  C   UNL     1      45.476   5.542  10.579  0.00  0.00    +0.000 C 
ATOM     11  C   UNL     1      45.457   5.972  12.058  0.00  0.00    +0.000 C 
BRANCH  11  12
ATOM     12  N   UNL     1      45.068   4.874  12.984  0.00  0.00    +0.000 NA
ATOM     13  C   UNL     1      43.609   4.815  13.169  0.00  0.00    +0.000 C 
ATOM     14  C   UNL     1      45.516   3.561  12.503  0.00  0.00    +0.000 C 
ENDBRANCH  11  12
ENDBRANCH   2  11
ENDBRANCH   1   7
BRANCH   1  15
ATOM     15  C   UNL     1      48.592   5.201  16.795  0.00  0.00    +0.000 A 
ATOM     16  C   UNL     1      47.473   4.385  16.933  0.00  0.00    +0.000 A 
ATOM     17  N   UNL     1      47.518   3.073  17.248  0.00  0.00    +0.000 NA
ATOM     18  C   UNL     1      48.746   2.544  17.464  0.00  0.00    +0.000 A 
ATOM     19  C   UNL     1      49.949   3.251  17.402  0.00  0.00    +0.000 A 
ATOM     20  C   UNL     1      49.836   4.607  17.043  0.00  0.00    +0.000 A 
BRANCH  19  21
ATOM     21  C   UNL     1      51.250   2.635  17.738  0.00  0.00    +0.000 A 
ATOM     22  C   UNL     1      51.532   1.290  17.429  0.00  0.00    +0.000 A 
ATOM     23  C   UNL     1      52.788   0.724  17.690  0.00  0.00    +0.000 A 
ATOM     24  C   UNL     1      53.785   1.490  18.281  0.00  0.00    +0.000 A 
ATOM     25  C   UNL     1      53.519   2.810  18.612  0.00  0.00    +0.000 A 
ATOM     26  F   UNL     1      54.476   3.552  19.182  0.00  0.00    +0.000 F 
ATOM     27  C   UNL     1      52.276   3.383  18.347  0.00  0.00    +0.000 A 
ENDBRANCH  19  21
ENDBRANCH   1  15
TORSDOF 5
ENDMDL
MODEL 8
REMARK VINA RESULT:    -6.020      3.745      7.671
REMARK INTER + INTRA:          -8.691
REMARK INTER:                  -7.567
REMARK INTRA:                  -1.124
REMARK UNBOUND:                -0.911
REMARK  Name = 
REMARK  9 active torsions:
REMARK  status: ('A' for Active; 'I' for Inactive)
REMARK    1  A    between atoms: C_1  and  C_2
REMARK    2  A    between atoms: C_2  and  C_3
REMARK    3  A    between atoms: C_2  and  N_25
REMARK    4  A    between atoms: N_8  and  C_9
REMARK    5  A    between atoms: N_8  and  C_10
REMARK    6  A    between atoms: C_10  and  C_11
REMARK    7  A    between atoms: C_15  and  C_16
REMARK    8  A    between atoms: N_25  and  C_26
REMARK    9  A    between atoms: N_25  and  C_27
REMARK                            x       y       z     vdW  Elec       q    Type
REMARK                         _______ _______ _______ _____ _____    ______ ____
ROOT
ATOM      1  C   UNL     1      49.280   8.776  13.032  0.00  0.00    +0.000 C 
ENDROOT
BRANCH   1   7
ATOM      2  C   UNL     1      45.685   6.549  11.939  0.00  0.00    +0.000 A 
ATOM      3  C   UNL     1      44.557   7.284  11.588  0.00  0.00    +0.000 A 
ATOM      4  C   UNL     1      44.680   8.655  11.518  0.00  0.00    +0.000 A 
ATOM      5  N   UNL     1      45.820   9.326  11.790  0.00  0.00    +0.000 NA
ATOM      6  C   UNL     1      46.925   8.641  12.165  0.00  0.00    +0.000 A 
ATOM      7  N   UNL     1      48.048   9.369  12.521  0.00  0.00    +0.000 N 
ATOM      8  C   UNL     1      47.931  10.823  12.553  0.00  0.00    +0.000 C 
ATOM      9  C   UNL     1      46.879   7.246  12.207  0.00  0.00    +0.000 A 
BRANCH   2  11
ATOM     10  C   UNL     1      45.898   4.652  13.511  0.00  0.00    +0.000 C 
ATOM     11  C   UNL     1      45.609   5.027  12.045  0.00  0.00    +0.000 C 
BRANCH  11  12
ATOM     12  N   UNL     1      44.313   4.492  11.546  0.00  0.00    +0.000 NA
ATOM     13  C   UNL     1      44.477   3.784  10.267  0.00  0.00    +0.000 C 
ATOM     14  C   UNL     1      43.696   3.563  12.501  0.00  0.00    +0.000 C 
ENDBRANCH  11  12
ENDBRANCH   2  11
ENDBRANCH   1   7
BRANCH   1  15
ATOM     15  C   UNL     1      49.245   8.401  14.496  0.00  0.00    +0.000 A 
ATOM     16  C   UNL     1      49.415   9.404  15.447  0.00  0.00    +0.000 A 
ATOM     17  N   UNL     1      49.429   9.197  16.780  0.00  0.00    +0.000 NA
ATOM     18  C   UNL     1      49.292   7.916  17.197  0.00  0.00    +0.000 A 
ATOM     19  C   UNL     1      49.156   6.808  16.357  0.00  0.00    +0.000 A 
ATOM     20  C   UNL     1      49.121   7.092  14.979  0.00  0.00    +0.000 A 
BRANCH  19  21
ATOM     21  C   UNL     1      49.101   5.423  16.873  0.00  0.00    +0.000 A 
ATOM     22  C   UNL     1      50.247   4.777  17.379  0.00  0.00    +0.000 A 
ATOM     23  C   UNL     1      50.182   3.488  17.926  0.00  0.00    +0.000 A 
ATOM     24  C   UNL     1      48.969   2.811  17.966  0.00  0.00    +0.000 A 
ATOM     25  C   UNL     1      47.834   3.423  17.455  0.00  0.00    +0.000 A 
ATOM     26  F   UNL     1      46.665   2.775  17.489  0.00  0.00    +0.000 F 
ATOM     27  C   UNL     1      47.889   4.708  16.916  0.00  0.00    +0.000 A 
ENDBRANCH  19  21
ENDBRANCH   1  15
TORSDOF 5
ENDMDL
MODEL 9
REMARK VINA RESULT:    -6.020      5.699      8.949
REMARK INTER + INTRA:          -8.691
REMARK INTER:                  -8.098
REMARK INTRA:                  -0.593
REMARK UNBOUND:                -0.911
REMARK  Name = 
REMARK  9 active torsions:
REMARK  status: ('A' for Active; 'I' for Inactive)
REMARK    1  A    between atoms: C_1  and  C_2
REMARK    2  A    between atoms: C_2  and  C_3
REMARK    3  A    between atoms: C_2  and  N_25
REMARK    4  A    between atoms: N_8  and  C_9
REMARK    5  A    between atoms: N_8  and  C_10
REMARK    6  A    between atoms: C_10  and  C_11
REMARK    7  A    between atoms: C_15  and  C_16
REMARK    8  A    between atoms: N_25  and  C_26
REMARK    9  A    between atoms: N_25  and  C_27
REMARK                            x       y       z     vdW  Elec       q    Type
REMARK                         _______ _______ _______ _____ _____    ______ ____
ROOT
ATOM      1  C   UNL     1      47.709   3.771  17.039  0.00  0.00    +0.000 C 
ENDROOT
BRANCH   1   7
ATOM      2  C   UNL     1      51.821   3.843  18.511  0.00  0.00    +0.000 A 
ATOM      3  C   UNL     1      52.121   4.737  19.534  0.00  0.00    +0.000 A 
ATOM      4  C   UNL     1      51.083   5.466  20.074  0.00  0.00    +0.000 A 
ATOM      5  N   UNL     1      49.802   5.380  19.656  0.00  0.00    +0.000 NA
ATOM      6  C   UNL     1      49.485   4.543  18.641  0.00  0.00    +0.000 A 
ATOM      7  N   UNL     1      48.178   4.549  18.182  0.00  0.00    +0.000 N 
ATOM      8  C   UNL     1      47.259   5.521  18.764  0.00  0.00    +0.000 C 
ATOM      9  C   UNL     1      50.483   3.740  18.085  0.00  0.00    +0.000 A 
BRANCH   2  11
ATOM     10  C   UNL     1      54.162   3.927  17.721  0.00  0.00    +0.000 C 
ATOM     11  C   UNL     1      52.930   3.015  17.863  0.00  0.00    +0.000 C 
BRANCH  11  12
ATOM     12  N   UNL     1      53.209   1.762  18.616  0.00  0.00    +0.000 NA
ATOM     13  C   UNL     1      52.923   0.568  17.804  0.00  0.00    +0.000 C 
ATOM     14  C   UNL     1      54.607   1.684  19.057  0.00  0.00    +0.000 C 
ENDBRANCH  11  12
ENDBRANCH   2  11
ENDBRANCH   1   7
BRANCH   1  15
ATOM     15  C   UNL     1      47.628   4.539  15.739  0.00  0.00    +0.000 A 
ATOM     16  C   UNL     1      48.426   5.668  15.579  0.00  0.00    +0.000 A 
ATOM     17  N   UNL     1      48.428   6.453  14.481  0.00  0.00    +0.000 NA
ATOM     18  C   UNL     1      47.569   6.112  13.491  0.00  0.00    +0.000 A 
ATOM     19  C   UNL     1      46.682   5.034  13.532  0.00  0.00    +0.000 A 
ATOM     20  C   UNL     1      46.747   4.239  14.692  0.00  0.00    +0.000 A 
BRANCH  19  21
ATOM     21  C   UNL     1      45.704   4.769  12.454  0.00  0.00    +0.000 A 
ATOM     22  C   UNL     1      45.726   5.490  11.244  0.00  0.00    +0.000 A 
ATOM     23  C   UNL     1      44.839   5.196  10.199  0.00  0.00    +0.000 A 
ATOM     24  C   UNL     1      43.901   4.182  10.348  0.00  0.00    +0.000 A 
ATOM     25  C   UNL     1      43.851   3.475  11.540  0.00  0.00    +0.000 A 
ATOM     26  F   UNL     1      42.949   2.498  11.690  0.00  0.00    +0.000 F 
ATOM     27  C   UNL     1      44.735   3.756  12.581  0.00  0.00    +0.000 A 
ENDBRANCH  19  21
ENDBRANCH   1  15
TORSDOF 5
ENDMDL
