MODEL 1
REMARK VINA RESULT:    -8.418      0.000      0.000
REMARK INTER + INTRA:         -11.113
REMARK INTER:                 -10.387
REMARK INTRA:                  -0.726
REMARK UNBOUND:                -0.726
REMARK  Name = 
REMARK  4 active torsions:
REMARK  status: ('A' for Active; 'I' for Inactive)
REMARK    1  A    between atoms: C_2  and  C_5
REMARK    2  A    between atoms: N_9  and  C_10
REMARK    3  A    between atoms: C_10  and  C_11
REMARK    4  A    between atoms: C_15  and  C_16
REMARK                            x       y       z     vdW  Elec       q    Type
REMARK                         _______ _______ _______ _____ _____    ______ ____
ROOT
ATOM      1  C   UNL     1      43.627   4.644  11.192  0.00  0.00    +0.000 C 
ENDROOT
BRANCH   1   6
ATOM      2  C   UNL     1      46.224   2.259   7.814  0.00  0.00    +0.000 A 
ATOM      3  C   UNL     1      45.356   1.891   8.810  0.00  0.00    +0.000 A 
ATOM      4  N   UNL     1      44.585   2.765   9.484  0.00  0.00    +0.000 NA
ATOM      5  C   UNL     1      44.679   4.062   9.152  0.00  0.00    +0.000 A 
ATOM      6  N   UNL     1      43.907   5.004   9.818  0.00  0.00    +0.000 N 
ATOM      7  N   UNL     1      45.500   4.518   8.200  0.00  0.00    +0.000 NA
ATOM      8  C   UNL     1      46.250   3.607   7.543  0.00  0.00    +0.000 A 
ATOM      9  H   UNL     1      44.346   5.906   9.685  0.00  0.00    +0.000 HD
BRANCH   2  11
ATOM     10  F   UNL     1      46.895  -0.002   7.510  0.00  0.00    +0.000 F 
ATOM     11  C   UNL     1      47.072   1.282   7.089  0.00  0.00    +0.000 C 
ATOM     12  F   UNL     1      48.399   1.538   7.233  0.00  0.00    +0.000 F 
ATOM     13  F   UNL     1      46.835   1.270   5.751  0.00  0.00    +0.000 F 
ENDBRANCH   2  11
ENDBRANCH   1   6
BRANCH   1  14
ATOM     14  C   UNL     1      44.814   4.935  12.083  0.00  0.00    +0.000 A 
ATOM     15  C   UNL     1      45.412   3.910  12.828  0.00  0.00    +0.000 A 
ATOM     16  C   UNL     1      46.569   4.154  13.564  0.00  0.00    +0.000 A 
ATOM     17  C   UNL     1      47.150   5.422  13.555  0.00  0.00    +0.000 A 
ATOM     18  C   UNL     1      46.580   6.466  12.811  0.00  0.00    +0.000 A 
ATOM     19  C   UNL     1      45.402   6.210  12.091  0.00  0.00    +0.000 A 
BRANCH  18  20
ATOM     20  C   UNL     1      47.232   7.835  12.728  0.00  0.00    +0.000 C 
ATOM     21  C   UNL     1      46.231   8.915  12.289  0.00  0.00    +0.000 C 
ATOM     22  C   UNL     1      46.925  10.263  12.154  0.00  0.00    +0.000 C 
ATOM     23  O   UNL     1      48.033  10.174  11.260  0.00  0.00    +0.000 OA
ATOM     24  C   UNL     1      49.030   9.263  11.721  0.00  0.00    +0.000 C 
ATOM     25  C   UNL     1      48.466   7.851  11.817  0.00  0.00    +0.000 C 
ENDBRANCH  18  20
ENDBRANCH   1  14
TORSDOF 4
ENDMDL
MODEL 2
REMARK VINA RESULT:    -7.930      1.304      1.991
REMARK INTER + INTRA:         -10.511
REMARK INTER:                  -9.827
REMARK INTRA:                  -0.684
REMARK UNBOUND:                -0.726
REMARK  Name = 
REMARK  4 active torsions:
REMARK  status: ('A' for Active; 'I' for Inactive)
REMARK    1  A    between atoms: C_2  and  C_5
REMARK    2  A    between atoms: N_9  and  C_10
REMARK    3  A    between atoms: C_10  and  C_11
REMARK    4  A    between atoms: C_15  and  C_16
REMARK                            x       y       z     vdW  Elec       q    Type
REMARK                         _______ _______ _______ _____ _____    ______ ____
ROOT
ATOM      1  C   UNL     1      43.847   4.844  11.090  0.00  0.00    +0.000 C 
ENDROOT
BRANCH   1   6
ATOM      2  C   UNL     1      46.272   2.188   7.788  0.00  0.00    +0.000 A 
ATOM      3  C   UNL     1      45.510   1.904   8.891  0.00  0.00    +0.000 A 
ATOM      4  N   UNL     1      44.754   2.819   9.528  0.00  0.00    +0.000 NA
ATOM      5  C   UNL     1      44.754   4.071   9.043  0.00  0.00    +0.000 A 
ATOM      6  N   UNL     1      43.993   5.052   9.664  0.00  0.00    +0.000 N 
ATOM      7  N   UNL     1      45.469   4.445   7.977  0.00  0.00    +0.000 NA
ATOM      8  C   UNL     1      46.207   3.494   7.364  0.00  0.00    +0.000 A 
ATOM      9  H   UNL     1      44.373   5.949   9.392  0.00  0.00    +0.000 HD
BRANCH   2  11
ATOM     10  F   UNL     1      48.441   1.432   7.169  0.00  0.00    +0.000 F 
ATOM     11  C   UNL     1      47.106   1.168   7.106  0.00  0.00    +0.000 C 
ATOM     12  F   UNL     1      46.813   1.058   5.783  0.00  0.00    +0.000 F 
ATOM     13  F   UNL     1      46.948  -0.077   7.630  0.00  0.00    +0.000 F 
ENDBRANCH   2  11
ENDBRANCH   1   6
BRANCH   1  14
ATOM     14  C   UNL     1      44.725   5.798  11.870  0.00  0.00    +0.000 A 
ATOM     15  C   UNL     1      45.824   5.319  12.595  0.00  0.00    +0.000 A 
ATOM     16  C   UNL     1      46.694   6.205  13.226  0.00  0.00    +0.000 A 
ATOM     17  C   UNL     1      46.484   7.581  13.129  0.00  0.00    +0.000 A 
ATOM     18  C   UNL     1      45.397   8.090  12.402  0.00  0.00    +0.000 A 
ATOM     19  C   UNL     1      44.516   7.184  11.790  0.00  0.00    +0.000 A 
BRANCH  18  20
ATOM     20  C   UNL     1      45.187   9.583  12.223  0.00  0.00    +0.000 C 
ATOM     21  C   UNL     1      44.141   9.883  11.138  0.00  0.00    +0.000 C 
ATOM     22  C   UNL     1      43.996  11.385  10.937  0.00  0.00    +0.000 C 
ATOM     23  O   UNL     1      45.257  11.978  10.635  0.00  0.00    +0.000 OA
ATOM     24  C   UNL     1      46.202  11.813  11.692  0.00  0.00    +0.000 C 
ATOM     25  C   UNL     1      46.491  10.336  11.930  0.00  0.00    +0.000 C 
ENDBRANCH  18  20
ENDBRANCH   1  14
TORSDOF 4
ENDMDL
MODEL 3
REMARK VINA RESULT:    -7.261      2.563      3.787
REMARK INTER + INTRA:          -9.685
REMARK INTER:                  -9.022
REMARK INTRA:                  -0.663
REMARK UNBOUND:                -0.726
REMARK  Name = 
REMARK  4 active torsions:
REMARK  status: ('A' for Active; 'I' for Inactive)
REMARK    1  A    between atoms: C_2  and  C_5
REMARK    2  A    between atoms: N_9  and  C_10
REMARK    3  A    between atoms: C_10  and  C_11
REMARK    4  A    between atoms: C_15  and  C_16
REMARK                            x       y       z     vdW  Elec       q    Type
REMARK                         _______ _______ _______ _____ _____    ______ ____
ROOT
ATOM      1  C   UNL     1      44.652   5.408  11.815  0.00  0.00    +0.000 C 
ENDROOT
BRANCH   1   6
ATOM      2  C   UNL     1      46.220   2.633   8.117  0.00  0.00    +0.000 A 
ATOM      3  C   UNL     1      45.552   2.398   9.290  0.00  0.00    +0.000 A 
ATOM      4  N   UNL     1      45.033   3.376  10.058  0.00  0.00    +0.000 NA
ATOM      5  C   UNL     1      45.183   4.641   9.638  0.00  0.00    +0.000 A 
ATOM      6  N   UNL     1      44.668   5.686  10.394  0.00  0.00    +0.000 N 
ATOM      7  N   UNL     1      45.824   4.970   8.511  0.00  0.00    +0.000 NA
ATOM      8  C   UNL     1      46.322   3.958   7.768  0.00  0.00    +0.000 A 
ATOM      9  H   UNL     1      45.156   6.529  10.120  0.00  0.00    +0.000 HD
BRANCH   2  11
ATOM     10  F   UNL     1      46.391   0.300   7.682  0.00  0.00    +0.000 F 
ATOM     11  C   UNL     1      46.792   1.542   7.290  0.00  0.00    +0.000 C 
ATOM     12  F   UNL     1      48.151   1.521   7.327  0.00  0.00    +0.000 F 
ATOM     13  F   UNL     1      46.455   1.644   5.977  0.00  0.00    +0.000 F 
ENDBRANCH   2  11
ENDBRANCH   1   6
BRANCH   1  14
ATOM     14  C   UNL     1      45.942   5.852  12.469  0.00  0.00    +0.000 A 
ATOM     15  C   UNL     1      46.601   7.008  12.029  0.00  0.00    +0.000 A 
ATOM     16  C   UNL     1      47.728   7.477  12.698  0.00  0.00    +0.000 A 
ATOM     17  C   UNL     1      48.205   6.804  13.823  0.00  0.00    +0.000 A 
ATOM     18  C   UNL     1      47.562   5.650  14.293  0.00  0.00    +0.000 A 
ATOM     19  C   UNL     1      46.438   5.177  13.595  0.00  0.00    +0.000 A 
BRANCH  18  20
ATOM     20  C   UNL     1      48.018   4.940  15.556  0.00  0.00    +0.000 C 
ATOM     21  C   UNL     1      46.928   4.008  16.109  0.00  0.00    +0.000 C 
ATOM     22  C   UNL     1      47.390   3.358  17.406  0.00  0.00    +0.000 C 
ATOM     23  O   UNL     1      47.772   4.349  18.358  0.00  0.00    +0.000 OA
ATOM     24  C   UNL     1      48.868   5.142  17.906  0.00  0.00    +0.000 C 
ATOM     25  C   UNL     1      48.492   5.911  16.645  0.00  0.00    +0.000 C 
ENDBRANCH  18  20
ENDBRANCH   1  14
TORSDOF 4
ENDMDL
MODEL 4
REMARK VINA RESULT:    -6.836      5.648      8.134
REMARK INTER + INTRA:          -9.161
REMARK INTER:                  -8.663
REMARK INTRA:                  -0.498
REMARK UNBOUND:                -0.726
REMARK  Name = 
REMARK  4 active torsions:
REMARK  status: ('A' for Active; 'I' for Inactive)
REMARK    1  A    between atoms: C_2  and  C_5
REMARK    2  A    between atoms: N_9  and  C_10
REMARK    3  A    between atoms: C_10  and  C_11
REMARK    4  A    between atoms: C_15  and  C_16
REMARK                            x       y       z     vdW  Elec       q    Type
REMARK                         _______ _______ _______ _____ _____    ______ ____
ROOT
ATOM      1  C   UNL     1      46.360   5.156  13.726  0.00  0.00    +0.000 C 
ENDROOT
BRANCH   1   6
ATOM      2  C   UNL     1      49.428   4.226  17.408  0.00  0.00    +0.000 A 
ATOM      3  C   UNL     1      48.862   5.357  16.878  0.00  0.00    +0.000 A 
ATOM      4  N   UNL     1      47.859   5.335  15.981  0.00  0.00    +0.000 NA
ATOM      5  C   UNL     1      47.396   4.135  15.595  0.00  0.00    +0.000 A 
ATOM      6  N   UNL     1      46.364   4.058  14.670  0.00  0.00    +0.000 N 
ATOM      7  N   UNL     1      47.888   2.978  16.050  0.00  0.00    +0.000 NA
ATOM      8  C   UNL     1      48.889   3.046  16.954  0.00  0.00    +0.000 A 
ATOM      9  H   UNL     1      46.391   3.132  14.261  0.00  0.00    +0.000 HD
BRANCH   2  11
ATOM     10  F   UNL     1      51.394   3.215  18.287  0.00  0.00    +0.000 F 
ATOM     11  C   UNL     1      50.540   4.272  18.389  0.00  0.00    +0.000 C 
ATOM     12  F   UNL     1      50.097   4.265  19.675  0.00  0.00    +0.000 F 
ATOM     13  F   UNL     1      51.309   5.385  18.263  0.00  0.00    +0.000 F 
ENDBRANCH   2  11
ENDBRANCH   1   6
BRANCH   1  14
ATOM     14  C   UNL     1      45.275   4.975  12.687  0.00  0.00    +0.000 A 
ATOM     15  C   UNL     1      44.019   5.572  12.860  0.00  0.00    +0.000 A 
ATOM     16  C   UNL     1      43.057   5.495  11.857  0.00  0.00    +0.000 A 
ATOM     17  C   UNL     1      43.341   4.832  10.662  0.00  0.00    +0.000 A 
ATOM     18  C   UNL     1      44.593   4.233  10.456  0.00  0.00    +0.000 A 
ATOM     19  C   UNL     1      45.546   4.300  11.486  0.00  0.00    +0.000 A 
BRANCH  18  20
ATOM     20  C   UNL     1      44.952   3.568   9.139  0.00  0.00    +0.000 C 
ATOM     21  C   UNL     1      45.472   2.137   9.349  0.00  0.00    +0.000 C 
ATOM     22  C   UNL     1      45.881   1.518   8.020  0.00  0.00    +0.000 C 
ATOM     23  O   UNL     1      46.842   2.337   7.356  0.00  0.00    +0.000 OA
ATOM     24  C   UNL     1      46.327   3.631   7.044  0.00  0.00    +0.000 C 
ATOM     25  C   UNL     1      45.956   4.384   8.316  0.00  0.00    +0.000 C 
ENDBRANCH  18  20
ENDBRANCH   1  14
TORSDOF 4
ENDMDL
MODEL 5
REMARK VINA RESULT:    -6.736      4.649      7.298
REMARK INTER + INTRA:          -9.038
REMARK INTER:                  -9.091
REMARK INTRA:                   0.053
REMARK UNBOUND:                -0.726
REMARK  Name = 
REMARK  4 active torsions:
REMARK  status: ('A' for Active; 'I' for Inactive)
REMARK    1  A    between atoms: C_2  and  C_5
REMARK    2  A    between atoms: N_9  and  C_10
REMARK    3  A    between atoms: C_10  and  C_11
REMARK    4  A    between atoms: C_15  and  C_16
REMARK                            x       y       z     vdW  Elec       q    Type
REMARK                         _______ _______ _______ _____ _____    ______ ____
ROOT
ATOM      1  C   UNL     1      45.059   6.303  11.136  0.00  0.00    +0.000 C 
ENDROOT
BRANCH   1   6
ATOM      2  C   UNL     1      47.628   5.271  15.158  0.00  0.00    +0.000 A 
ATOM      3  C   UNL     1      46.628   4.647  14.459  0.00  0.00    +0.000 A 
ATOM      4  N   UNL     1      46.223   5.036  13.235  0.00  0.00    +0.000 NA
ATOM      5  C   UNL     1      46.842   6.090  12.681  0.00  0.00    +0.000 A 
ATOM      6  N   UNL     1      46.460   6.532  11.421  0.00  0.00    +0.000 N 
ATOM      7  N   UNL     1      47.823   6.767  13.287  0.00  0.00    +0.000 NA
ATOM      8  C   UNL     1      48.203   6.339  14.510  0.00  0.00    +0.000 A 
ATOM      9  H   UNL     1      46.773   7.490  11.328  0.00  0.00    +0.000 HD
BRANCH   2  11
ATOM     10  F   UNL     1      47.070   4.938  17.446  0.00  0.00    +0.000 F 
ATOM     11  C   UNL     1      48.054   4.833  16.510  0.00  0.00    +0.000 C 
ATOM     12  F   UNL     1      49.098   5.562  16.987  0.00  0.00    +0.000 F 
ATOM     13  F   UNL     1      48.458   3.535  16.540  0.00  0.00    +0.000 F 
ENDBRANCH   2  11
ENDBRANCH   1   6
BRANCH   1  14
ATOM     14  C   UNL     1      44.820   4.874  10.700  0.00  0.00    +0.000 A 
ATOM     15  C   UNL     1      43.892   4.071  11.377  0.00  0.00    +0.000 A 
ATOM     16  C   UNL     1      43.593   2.793  10.912  0.00  0.00    +0.000 A 
ATOM     17  C   UNL     1      44.208   2.306   9.758  0.00  0.00    +0.000 A 
ATOM     18  C   UNL     1      45.134   3.090   9.054  0.00  0.00    +0.000 A 
ATOM     19  C   UNL     1      45.442   4.369   9.548  0.00  0.00    +0.000 A 
BRANCH  18  20
ATOM     20  C   UNL     1      45.763   2.611   7.758  0.00  0.00    +0.000 C 
ATOM     21  C   UNL     1      46.570   1.319   7.962  0.00  0.00    +0.000 C 
ATOM     22  C   UNL     1      47.239   0.897   6.662  0.00  0.00    +0.000 C 
ATOM     23  O   UNL     1      48.050   1.951   6.146  0.00  0.00    +0.000 OA
ATOM     24  C   UNL     1      47.290   3.118   5.835  0.00  0.00    +0.000 C 
ATOM     25  C   UNL     1      46.633   3.683   7.089  0.00  0.00    +0.000 C 
ENDBRANCH  18  20
ENDBRANCH   1  14
TORSDOF 4
ENDMDL
MODEL 6
REMARK VINA RESULT:    -6.731      5.965      8.012
REMARK INTER + INTRA:          -9.031
REMARK INTER:                  -8.397
REMARK INTRA:                  -0.634
REMARK UNBOUND:                -0.726
REMARK  Name = 
REMARK  4 active torsions:
REMARK  status: ('A' for Active; 'I' for Inactive)
REMARK    1  A    between atoms: C_2  and  C_5
REMARK    2  A    between atoms: N_9  and  C_10
REMARK    3  A    between atoms: C_10  and  C_11
REMARK    4  A    between atoms: C_15  and  C_16
REMARK                            x       y       z     vdW  Elec       q    Type
REMARK                         _______ _______ _______ _____ _____    ______ ____
ROOT
ATOM      1  C   UNL     1      48.789   6.403  15.854  0.00  0.00    +0.000 C 
ENDROOT
BRANCH   1   6
ATOM      2  C   UNL     1      50.899   2.262  17.349  0.00  0.00    +0.000 A 
ATOM      3  C   UNL     1      51.227   3.591  17.400  0.00  0.00    +0.000 A 
ATOM      4  N   UNL     1      50.364   4.582  17.106  0.00  0.00    +0.000 NA
ATOM      5  C   UNL     1      49.118   4.234  16.747  0.00  0.00    +0.000 A 
ATOM      6  N   UNL     1      48.190   5.217  16.431  0.00  0.00    +0.000 N 
ATOM      7  N   UNL     1      48.706   2.965  16.661  0.00  0.00    +0.000 NA
ATOM      8  C   UNL     1      49.602   2.003  16.973  0.00  0.00    +0.000 A 
ATOM      9  H   UNL     1      47.464   4.783  15.876  0.00  0.00    +0.000 HD
BRANCH   2  11
ATOM     10  F   UNL     1      51.293   0.102  18.266  0.00  0.00    +0.000 F 
ATOM     11  C   UNL     1      51.868   1.185  17.669  0.00  0.00    +0.000 C 
ATOM     12  F   UNL     1      52.844   1.600  18.519  0.00  0.00    +0.000 F 
ATOM     13  F   UNL     1      52.507   0.707  16.568  0.00  0.00    +0.000 F 
ENDBRANCH   2  11
ENDBRANCH   1   6
BRANCH   1  14
ATOM     14  C   UNL     1      48.298   6.627  14.441  0.00  0.00    +0.000 A 
ATOM     15  C   UNL     1      49.030   7.426  13.553  0.00  0.00    +0.000 A 
ATOM     16  C   UNL     1      48.636   7.547  12.222  0.00  0.00    +0.000 A 
ATOM     17  C   UNL     1      47.513   6.860  11.759  0.00  0.00    +0.000 A 
ATOM     18  C   UNL     1      46.766   6.045  12.622  0.00  0.00    +0.000 A 
ATOM     19  C   UNL     1      47.163   5.950  13.966  0.00  0.00    +0.000 A 
BRANCH  18  20
ATOM     20  C   UNL     1      45.583   5.232  12.127  0.00  0.00    +0.000 C 
ATOM     21  C   UNL     1      45.379   5.390  10.612  0.00  0.00    +0.000 C 
ATOM     22  C   UNL     1      44.151   4.615  10.155  0.00  0.00    +0.000 C 
ATOM     23  O   UNL     1      42.997   5.019  10.890  0.00  0.00    +0.000 OA
ATOM     24  C   UNL     1      43.126   4.761  12.287  0.00  0.00    +0.000 C 
ATOM     25  C   UNL     1      44.285   5.556  12.877  0.00  0.00    +0.000 C 
ENDBRANCH  18  20
ENDBRANCH   1  14
TORSDOF 4
ENDMDL
MODEL 7
REMARK VINA RESULT:    -6.688      4.194      6.818
REMARK INTER + INTRA:          -8.978
REMARK INTER:                  -8.205
REMARK INTRA:                  -0.774
REMARK UNBOUND:                -0.726
REMARK  Name = 
REMARK  4 active torsions:
REMARK  status: ('A' for Active; 'I' for Inactive)
REMARK    1  A    between atoms: C_2  and  C_5
REMARK    2  A    between atoms: N_9  and  C_10
REMARK    3  A    between atoms: C_10  and  C_11
REMARK    4  A    between atoms: C_15  and  C_16
REMARK                            x       y       z     vdW  Elec       q    Type
REMARK                         _______ _______ _______ _____ _____    ______ ____
ROOT
ATOM      1  C   UNL     1      44.898   6.381  12.745  0.00  0.00    +0.000 C 
ENDROOT
BRANCH   1   6
ATOM      2  C   UNL     1      49.446   7.998  12.007  0.00  0.00    +0.000 A 
ATOM      3  C   UNL     1      48.190   8.474  11.733  0.00  0.00    +0.000 A 
ATOM      4  N   UNL     1      47.064   7.935  12.238  0.00  0.00    +0.000 NA
ATOM      5  C   UNL     1      47.193   6.878  13.054  0.00  0.00    +0.000 A 
ATOM      6  N   UNL     1      46.063   6.284  13.600  0.00  0.00    +0.000 N 
ATOM      7  N   UNL     1      48.374   6.338  13.375  0.00  0.00    +0.000 NA
ATOM      8  C   UNL     1      49.478   6.915  12.853  0.00  0.00    +0.000 A 
ATOM      9  H   UNL     1      46.318   5.346  13.882  0.00  0.00    +0.000 HD
BRANCH   2  11
ATOM     10  F   UNL     1      51.324   7.776  10.566  0.00  0.00    +0.000 F 
ATOM     11  C   UNL     1      50.674   8.601  11.434  0.00  0.00    +0.000 C 
ATOM     12  F   UNL     1      51.586   8.928  12.387  0.00  0.00    +0.000 F 
ATOM     13  F   UNL     1      50.426   9.746  10.743  0.00  0.00    +0.000 F 
ENDBRANCH   2  11
ENDBRANCH   1   6
BRANCH   1  14
ATOM     14  C   UNL     1      44.558   5.039  12.135  0.00  0.00    +0.000 A 
ATOM     15  C   UNL     1      43.652   4.180  12.771  0.00  0.00    +0.000 A 
ATOM     16  C   UNL     1      43.257   2.993  12.159  0.00  0.00    +0.000 A 
ATOM     17  C   UNL     1      43.752   2.655  10.899  0.00  0.00    +0.000 A 
ATOM     18  C   UNL     1      44.653   3.500  10.234  0.00  0.00    +0.000 A 
ATOM     19  C   UNL     1      45.059   4.683  10.873  0.00  0.00    +0.000 A 
BRANCH  18  20
ATOM     20  C   UNL     1      45.152   3.191   8.834  0.00  0.00    +0.000 C 
ATOM     21  C   UNL     1      45.890   1.844   8.778  0.00  0.00    +0.000 C 
ATOM     22  C   UNL     1      46.431   1.589   7.379  0.00  0.00    +0.000 C 
ATOM     23  O   UNL     1      47.265   2.667   6.957  0.00  0.00    +0.000 OA
ATOM     24  C   UNL     1      46.558   3.904   6.885  0.00  0.00    +0.000 C 
ATOM     25  C   UNL     1      46.035   4.306   8.258  0.00  0.00    +0.000 C 
ENDBRANCH  18  20
ENDBRANCH   1  14
TORSDOF 4
ENDMDL
MODEL 8
REMARK VINA RESULT:    -6.476      4.395      7.107
REMARK INTER + INTRA:          -8.717
REMARK INTER:                  -8.420
REMARK INTRA:                  -0.298
REMARK UNBOUND:                -0.726
REMARK  Name = 
REMARK  4 active torsions:
REMARK  status: ('A' for Active; 'I' for Inactive)
REMARK    1  A    between atoms: C_2  and  C_5
REMARK    2  A    between atoms: N_9  and  C_10
REMARK    3  A    between atoms: C_10  and  C_11
REMARK    4  A    between atoms: C_15  and  C_16
REMARK                            x       y       z     vdW  Elec       q    Type
REMARK                         _______ _______ _______ _____ _____    ______ ____
ROOT
ATOM      1  C   UNL     1      43.613   6.424  11.408  0.00  0.00    +0.000 C 
ENDROOT
BRANCH   1   6
ATOM      2  C   UNL     1      47.757   7.519  13.745  0.00  0.00    +0.000 A 
ATOM      3  C   UNL     1      46.959   6.408  13.653  0.00  0.00    +0.000 A 
ATOM      4  N   UNL     1      45.963   6.281  12.756  0.00  0.00    +0.000 NA
ATOM      5  C   UNL     1      45.754   7.302  11.910  0.00  0.00    +0.000 A 
ATOM      6  N   UNL     1      44.739   7.222  10.967  0.00  0.00    +0.000 N 
ATOM      7  N   UNL     1      46.476   8.428  11.927  0.00  0.00    +0.000 NA
ATOM      8  C   UNL     1      47.469   8.511  12.838  0.00  0.00    +0.000 A 
ATOM      9  H   UNL     1      44.517   8.166  10.678  0.00  0.00    +0.000 HD
BRANCH   2  11
ATOM     10  F   UNL     1      49.227   8.932  14.970  0.00  0.00    +0.000 F 
ATOM     11  C   UNL     1      48.844   7.643  14.747  0.00  0.00    +0.000 C 
ATOM     12  F   UNL     1      49.972   6.982  14.375  0.00  0.00    +0.000 F 
ATOM     13  F   UNL     1      48.499   7.142  15.963  0.00  0.00    +0.000 F 
ENDBRANCH   2  11
ENDBRANCH   1   6
BRANCH   1  14
ATOM     14  C   UNL     1      43.826   4.961  11.090  0.00  0.00    +0.000 A 
ATOM     15  C   UNL     1      43.234   3.968  11.882  0.00  0.00    +0.000 A 
ATOM     16  C   UNL     1      43.341   2.626  11.529  0.00  0.00    +0.000 A 
ATOM     17  C   UNL     1      44.030   2.258  10.373  0.00  0.00    +0.000 A 
ATOM     18  C   UNL     1      44.625   3.230   9.554  0.00  0.00    +0.000 A 
ATOM     19  C   UNL     1      44.527   4.578   9.935  0.00  0.00    +0.000 A 
BRANCH  18  20
ATOM     20  C   UNL     1      45.319   2.862   8.255  0.00  0.00    +0.000 C 
ATOM     21  C   UNL     1      46.156   1.582   8.400  0.00  0.00    +0.000 C 
ATOM     22  C   UNL     1      46.888   1.273   7.101  0.00  0.00    +0.000 C 
ATOM     23  O   UNL     1      47.685   2.383   6.695  0.00  0.00    +0.000 OA
ATOM     24  C   UNL     1      46.902   3.548   6.436  0.00  0.00    +0.000 C 
ATOM     25  C   UNL     1      46.181   4.003   7.699  0.00  0.00    +0.000 C 
ENDBRANCH  18  20
ENDBRANCH   1  14
TORSDOF 4
ENDMDL
MODEL 9
REMARK VINA RESULT:    -6.446      5.784      7.170
REMARK INTER + INTRA:          -8.680
REMARK INTER:                  -8.186
REMARK INTRA:                  -0.494
REMARK UNBOUND:                -0.726
REMARK  Name = 
REMARK  4 active torsions:
REMARK  status: ('A' for Active; 'I' for Inactive)
REMARK    1  A    between atoms: C_2  and  C_5
REMARK    2  A    between atoms: N_9  and  C_10
REMARK    3  A    between atoms: C_10  and  C_11
REMARK    4  A    between atoms: C_15  and  C_16
REMARK                            x       y       z     vdW  Elec       q    Type
REMARK                         _______ _______ _______ _____ _____    ______ ____
ROOT
ATOM      1  C   UNL     1      47.338   4.098  15.685  0.00  0.00    +0.000 C 
ENDROOT
BRANCH   1   6
ATOM      2  C   UNL     1      45.102   4.568  11.370  0.00  0.00    +0.000 A 
ATOM      3  C   UNL     1      44.952   3.745  12.456  0.00  0.00    +0.000 A 
ATOM      4  N   UNL     1      45.562   3.956  13.638  0.00  0.00    +0.000 NA
ATOM      5  C   UNL     1      46.354   5.035  13.745  0.00  0.00    +0.000 A 
ATOM      6  N   UNL     1      47.008   5.296  14.942  0.00  0.00    +0.000 N 
ATOM      7  N   UNL     1      46.568   5.891  12.740  0.00  0.00    +0.000 NA
ATOM      8  C   UNL     1      45.930   5.646  11.575  0.00  0.00    +0.000 A 
ATOM      9  H   UNL     1      47.786   5.909  14.735  0.00  0.00    +0.000 HD
BRANCH   2  11
ATOM     10  F   UNL     1      44.112   3.002   9.879  0.00  0.00    +0.000 F 
ATOM     11  C   UNL     1      44.428   4.313  10.074  0.00  0.00    +0.000 C 
ATOM     12  F   UNL     1      45.197   4.670   9.010  0.00  0.00    +0.000 F 
ATOM     13  F   UNL     1      43.263   5.000   9.942  0.00  0.00    +0.000 F 
ENDBRANCH   2  11
ENDBRANCH   1   6
BRANCH   1  14
ATOM     14  C   UNL     1      48.156   4.430  16.914  0.00  0.00    +0.000 A 
ATOM     15  C   UNL     1      47.548   5.003  18.039  0.00  0.00    +0.000 A 
ATOM     16  C   UNL     1      48.278   5.210  19.207  0.00  0.00    +0.000 A 
ATOM     17  C   UNL     1      49.620   4.836  19.270  0.00  0.00    +0.000 A 
ATOM     18  C   UNL     1      50.254   4.251  18.163  0.00  0.00    +0.000 A 
ATOM     19  C   UNL     1      49.511   4.068  16.985  0.00  0.00    +0.000 A 
BRANCH  18  20
ATOM     20  C   UNL     1      51.692   3.770  18.229  0.00  0.00    +0.000 C 
ATOM     21  C   UNL     1      51.823   2.305  17.784  0.00  0.00    +0.000 C 
ATOM     22  C   UNL     1      53.264   1.833  17.919  0.00  0.00    +0.000 C 
ATOM     23  O   UNL     1      53.736   2.025  19.251  0.00  0.00    +0.000 OA
ATOM     24  C   UNL     1      53.736   3.400  19.633  0.00  0.00    +0.000 C 
ATOM     25  C   UNL     1      52.321   3.965  19.615  0.00  0.00    +0.000 C 
ENDBRANCH  18  20
ENDBRANCH   1  14
TORSDOF 4
ENDMDL
