MODEL 1
REMARK VINA RESULT:    -6.952      0.000      0.000
REMARK INTER + INTRA:          -9.864
REMARK INTER:                  -9.187
REMARK INTRA:                  -0.677
REMARK UNBOUND:                -0.677
REMARK  Name = 
REMARK  7 active torsions:
REMARK  status: ('A' for Active; 'I' for Inactive)
REMARK    1  A    between atoms: C_1  and  C_2
REMARK    2  A    between atoms: C_2  and  C_3
REMARK    3  A    between atoms: C_2  and  O_10
REMARK    4  A    between atoms: C_3  and  C_4
REMARK    5  A    between atoms: O_10  and  C_11
REMARK    6  A    between atoms: CA_14  and  C_15
REMARK    7  A    between atoms: C_15  and  OXT_17
REMARK                            x       y       z     vdW  Elec       q    Type
REMARK                         _______ _______ _______ _____ _____    ______ ____
ROOT
ATOM      1  O   UNL     1      43.507   3.615  10.274  0.00  0.00    +0.000 OA
ENDROOT
BRANCH   1   2
ATOM      2  C   UNL     1      44.482   3.276   9.365  0.00  0.00    +0.000 A 
ATOM      3  C   UNL     1      45.004   4.288   8.559  0.00  0.00    +0.000 A 
ATOM      4  N   UNL     1      45.978   4.074   7.634  0.00  0.00    +0.000 NA
ATOM      5  CA  UNL     1      46.414   2.780   7.571  0.00  0.00    +0.000 A 
ATOM      6  C   UNL     1      45.902   1.772   8.372  0.00  0.00    +0.000 A 
ATOM      7  N   UNL     1      44.918   2.000   9.278  0.00  0.00    +0.000 NA
BRANCH   5   8
ATOM      8  C   UNL     1      47.477   2.479   6.588  0.00  0.00    +0.000 C 
ATOM      9  O   UNL     1      48.395   1.698   6.773  0.00  0.00    +0.000 OA
BRANCH   8  10
ATOM     10  OXT UNL     1      47.288   3.186   5.449  0.00  0.00    +0.000 OA
ATOM     11  HXT UNL     1      47.972   2.930   4.787  0.00  0.00    +0.000 HD
ENDBRANCH   8  10
ENDBRANCH   5   8
ENDBRANCH   1   2
BRANCH   1  13
ATOM     12  C   UNL     1      42.486   5.247  11.680  0.00  0.00    +0.000 C 
ATOM     13  C   UNL     1      43.817   4.745  11.118  0.00  0.00    +0.000 C 
BRANCH  13  14
ATOM     14  C   UNL     1      44.778   4.291  12.235  0.00  0.00    +0.000 C 
BRANCH  14  15
ATOM     15  C   UNL     1      45.937   5.225  12.489  0.00  0.00    +0.000 A 
ATOM     16  C   UNL     1      46.657   5.157  13.691  0.00  0.00    +0.000 A 
ATOM     17  C   UNL     1      47.726   6.024  13.929  0.00  0.00    +0.000 A 
ATOM     18  C   UNL     1      48.088   6.967  12.969  0.00  0.00    +0.000 A 
ATOM     19  C   UNL     1      47.384   7.041  11.769  0.00  0.00    +0.000 A 
ATOM     20  C   UNL     1      46.319   6.172  11.527  0.00  0.00    +0.000 A 
ENDBRANCH  14  15
ENDBRANCH  13  14
ENDBRANCH   1  13
TORSDOF 6
ENDMDL
MODEL 2
REMARK VINA RESULT:    -6.936      3.187      6.495
REMARK INTER + INTRA:          -9.843
REMARK INTER:                  -9.401
REMARK INTRA:                  -0.443
REMARK UNBOUND:                -0.677
REMARK  Name = 
REMARK  7 active torsions:
REMARK  status: ('A' for Active; 'I' for Inactive)
REMARK    1  A    between atoms: C_1  and  C_2
REMARK    2  A    between atoms: C_2  and  C_3
REMARK    3  A    between atoms: C_2  and  O_10
REMARK    4  A    between atoms: C_3  and  C_4
REMARK    5  A    between atoms: O_10  and  C_11
REMARK    6  A    between atoms: CA_14  and  C_15
REMARK    7  A    between atoms: C_15  and  OXT_17
REMARK                            x       y       z     vdW  Elec       q    Type
REMARK                         _______ _______ _______ _____ _____    ______ ____
ROOT
ATOM      1  O   UNL     1      45.544   5.215  10.797  0.00  0.00    +0.000 OA
ENDROOT
BRANCH   1   2
ATOM      2  C   UNL     1      46.030   5.040  12.072  0.00  0.00    +0.000 A 
ATOM      3  C   UNL     1      45.965   3.762  12.627  0.00  0.00    +0.000 A 
ATOM      4  N   UNL     1      46.423   3.468  13.873  0.00  0.00    +0.000 NA
ATOM      5  CA  UNL     1      46.968   4.533  14.534  0.00  0.00    +0.000 A 
ATOM      6  C   UNL     1      47.039   5.804  13.986  0.00  0.00    +0.000 A 
ATOM      7  N   UNL     1      46.561   6.083  12.747  0.00  0.00    +0.000 NA
BRANCH   5   8
ATOM      8  C   UNL     1      47.492   4.281  15.894  0.00  0.00    +0.000 C 
ATOM      9  O   UNL     1      48.574   4.664  16.305  0.00  0.00    +0.000 OA
BRANCH   8  10
ATOM     10  OXT UNL     1      46.600   3.570  16.624  0.00  0.00    +0.000 OA
ATOM     11  HXT UNL     1      46.176   4.162  17.289  0.00  0.00    +0.000 HD
ENDBRANCH   8  10
ENDBRANCH   5   8
ENDBRANCH   1   2
BRANCH   1  13
ATOM     12  C   UNL     1      43.176   5.041  11.008  0.00  0.00    +0.000 C 
ATOM     13  C   UNL     1      44.428   4.370  10.441  0.00  0.00    +0.000 C 
BRANCH  13  14
ATOM     14  C   UNL     1      44.365   4.240   8.906  0.00  0.00    +0.000 C 
BRANCH  14  15
ATOM     15  C   UNL     1      45.386   3.300   8.310  0.00  0.00    +0.000 A 
ATOM     16  C   UNL     1      46.324   3.767   7.377  0.00  0.00    +0.000 A 
ATOM     17  C   UNL     1      47.266   2.898   6.821  0.00  0.00    +0.000 A 
ATOM     18  C   UNL     1      47.282   1.555   7.190  0.00  0.00    +0.000 A 
ATOM     19  C   UNL     1      46.357   1.080   8.119  0.00  0.00    +0.000 A 
ATOM     20  C   UNL     1      45.419   1.947   8.680  0.00  0.00    +0.000 A 
ENDBRANCH  14  15
ENDBRANCH  13  14
ENDBRANCH   1  13
TORSDOF 6
ENDMDL
MODEL 3
REMARK VINA RESULT:    -6.588      3.263      5.954
REMARK INTER + INTRA:          -9.383
REMARK INTER:                  -8.843
REMARK INTRA:                  -0.540
REMARK UNBOUND:                -0.677
REMARK  Name = 
REMARK  7 active torsions:
REMARK  status: ('A' for Active; 'I' for Inactive)
REMARK    1  A    between atoms: C_1  and  C_2
REMARK    2  A    between atoms: C_2  and  C_3
REMARK    3  A    between atoms: C_2  and  O_10
REMARK    4  A    between atoms: C_3  and  C_4
REMARK    5  A    between atoms: O_10  and  C_11
REMARK    6  A    between atoms: CA_14  and  C_15
REMARK    7  A    between atoms: C_15  and  OXT_17
REMARK                            x       y       z     vdW  Elec       q    Type
REMARK                         _______ _______ _______ _____ _____    ______ ____
ROOT
ATOM      1  O   UNL     1      44.356   4.832  11.788  0.00  0.00    +0.000 OA
ENDROOT
BRANCH   1   2
ATOM      2  C   UNL     1      45.564   5.378  12.157  0.00  0.00    +0.000 A 
ATOM      3  C   UNL     1      46.257   4.780  13.209  0.00  0.00    +0.000 A 
ATOM      4  N   UNL     1      47.463   5.225  13.653  0.00  0.00    +0.000 NA
ATOM      5  CA  UNL     1      47.947   6.304  12.968  0.00  0.00    +0.000 A 
ATOM      6  C   UNL     1      47.264   6.900  11.919  0.00  0.00    +0.000 A 
ATOM      7  N   UNL     1      46.054   6.452  11.501  0.00  0.00    +0.000 NA
BRANCH   5   8
ATOM      8  C   UNL     1      49.259   6.836  13.396  0.00  0.00    +0.000 C 
ATOM      9  O   UNL     1      49.659   6.858  14.548  0.00  0.00    +0.000 OA
BRANCH   8  10
ATOM     10  OXT UNL     1      49.959   7.292  12.330  0.00  0.00    +0.000 OA
ATOM     11  HXT UNL     1      49.887   8.275  12.288  0.00  0.00    +0.000 HD
ENDBRANCH   8  10
ENDBRANCH   5   8
ENDBRANCH   1   2
BRANCH   1  13
ATOM     12  C   UNL     1      43.315   2.700  11.554  0.00  0.00    +0.000 C 
ATOM     13  C   UNL     1      44.439   3.600  11.040  0.00  0.00    +0.000 C 
BRANCH  13  14
ATOM     14  C   UNL     1      44.284   3.912   9.538  0.00  0.00    +0.000 C 
BRANCH  14  15
ATOM     15  C   UNL     1      45.287   3.224   8.643  0.00  0.00    +0.000 A 
ATOM     16  C   UNL     1      45.501   1.841   8.745  0.00  0.00    +0.000 A 
ATOM     17  C   UNL     1      46.432   1.204   7.922  0.00  0.00    +0.000 A 
ATOM     18  C   UNL     1      47.159   1.939   6.988  0.00  0.00    +0.000 A 
ATOM     19  C   UNL     1      46.952   3.313   6.875  0.00  0.00    +0.000 A 
ATOM     20  C   UNL     1      46.018   3.951   7.692  0.00  0.00    +0.000 A 
ENDBRANCH  14  15
ENDBRANCH  13  14
ENDBRANCH   1  13
TORSDOF 6
ENDMDL
MODEL 4
REMARK VINA RESULT:    -6.389      4.060      6.914
REMARK INTER + INTRA:          -9.120
REMARK INTER:                  -8.524
REMARK INTRA:                  -0.596
REMARK UNBOUND:                -0.677
REMARK  Name = 
REMARK  7 active torsions:
REMARK  status: ('A' for Active; 'I' for Inactive)
REMARK    1  A    between atoms: C_1  and  C_2
REMARK    2  A    between atoms: C_2  and  C_3
REMARK    3  A    between atoms: C_2  and  O_10
REMARK    4  A    between atoms: C_3  and  C_4
REMARK    5  A    between atoms: O_10  and  C_11
REMARK    6  A    between atoms: CA_14  and  C_15
REMARK    7  A    between atoms: C_15  and  OXT_17
REMARK                            x       y       z     vdW  Elec       q    Type
REMARK                         _______ _______ _______ _____ _____    ______ ____
ROOT
ATOM      1  O   UNL     1      47.277   6.332  12.616  0.00  0.00    +0.000 OA
ENDROOT
BRANCH   1   2
ATOM      2  C   UNL     1      47.422   5.595  13.768  0.00  0.00    +0.000 A 
ATOM      3  C   UNL     1      46.873   4.313  13.797  0.00  0.00    +0.000 A 
ATOM      4  N   UNL     1      46.963   3.489  14.876  0.00  0.00    +0.000 NA
ATOM      5  CA  UNL     1      47.654   4.021  15.928  0.00  0.00    +0.000 A 
ATOM      6  C   UNL     1      48.206   5.292  15.904  0.00  0.00    +0.000 A 
ATOM      7  N   UNL     1      48.091   6.107  14.825  0.00  0.00    +0.000 NA
BRANCH   5   8
ATOM      8  C   UNL     1      47.795   3.175  17.133  0.00  0.00    +0.000 C 
ATOM      9  O   UNL     1      48.858   2.818  17.612  0.00  0.00    +0.000 OA
BRANCH   8  10
ATOM     10  OXT UNL     1      46.579   2.855  17.636  0.00  0.00    +0.000 OA
ATOM     11  HXT UNL     1      46.498   3.214  18.551  0.00  0.00    +0.000 HD
ENDBRANCH   8  10
ENDBRANCH   5   8
ENDBRANCH   1   2
BRANCH   1  13
ATOM     12  C   UNL     1      45.321   7.690  12.495  0.00  0.00    +0.000 C 
ATOM     13  C   UNL     1      45.942   6.360  12.066  0.00  0.00    +0.000 C 
BRANCH  13  14
ATOM     14  C   UNL     1      46.027   6.233  10.531  0.00  0.00    +0.000 C 
BRANCH  14  15
ATOM     15  C   UNL     1      45.476   4.943   9.973  0.00  0.00    +0.000 A 
ATOM     16  C   UNL     1      44.716   4.084  10.781  0.00  0.00    +0.000 A 
ATOM     17  C   UNL     1      44.211   2.888  10.268  0.00  0.00    +0.000 A 
ATOM     18  C   UNL     1      44.458   2.535   8.943  0.00  0.00    +0.000 A 
ATOM     19  C   UNL     1      45.209   3.382   8.129  0.00  0.00    +0.000 A 
ATOM     20  C   UNL     1      45.711   4.580   8.638  0.00  0.00    +0.000 A 
ENDBRANCH  14  15
ENDBRANCH  13  14
ENDBRANCH   1  13
TORSDOF 6
ENDMDL
MODEL 5
REMARK VINA RESULT:    -6.161      3.774      6.628
REMARK INTER + INTRA:          -8.819
REMARK INTER:                  -8.488
REMARK INTRA:                  -0.331
REMARK UNBOUND:                -0.677
REMARK  Name = 
REMARK  7 active torsions:
REMARK  status: ('A' for Active; 'I' for Inactive)
REMARK    1  A    between atoms: C_1  and  C_2
REMARK    2  A    between atoms: C_2  and  C_3
REMARK    3  A    between atoms: C_2  and  O_10
REMARK    4  A    between atoms: C_3  and  C_4
REMARK    5  A    between atoms: O_10  and  C_11
REMARK    6  A    between atoms: CA_14  and  C_15
REMARK    7  A    between atoms: C_15  and  OXT_17
REMARK                            x       y       z     vdW  Elec       q    Type
REMARK                         _______ _______ _______ _____ _____    ______ ____
ROOT
ATOM      1  O   UNL     1      45.864   5.016  11.778  0.00  0.00    +0.000 OA
ENDROOT
BRANCH   1   2
ATOM      2  C   UNL     1      46.510   5.001  12.993  0.00  0.00    +0.000 A 
ATOM      3  C   UNL     1      47.362   6.063  13.293  0.00  0.00    +0.000 A 
ATOM      4  N   UNL     1      48.044   6.161  14.465  0.00  0.00    +0.000 NA
ATOM      5  CA  UNL     1      47.811   5.133  15.335  0.00  0.00    +0.000 A 
ATOM      6  C   UNL     1      46.961   4.077  15.044  0.00  0.00    +0.000 A 
ATOM      7  N   UNL     1      46.302   3.987  13.862  0.00  0.00    +0.000 NA
BRANCH   5   8
ATOM      8  C   UNL     1      48.518   5.181  16.633  0.00  0.00    +0.000 C 
ATOM      9  O   UNL     1      49.647   4.763  16.827  0.00  0.00    +0.000 OA
BRANCH   8  10
ATOM     10  OXT UNL     1      47.739   5.758  17.579  0.00  0.00    +0.000 OA
ATOM     11  HXT UNL     1      47.712   6.733  17.431  0.00  0.00    +0.000 HD
ENDBRANCH   8  10
ENDBRANCH   5   8
ENDBRANCH   1   2
BRANCH   1  13
ATOM     12  C   UNL     1      43.752   5.694  12.649  0.00  0.00    +0.000 C 
ATOM     13  C   UNL     1      44.472   4.634  11.815  0.00  0.00    +0.000 C 
BRANCH  13  14
ATOM     14  C   UNL     1      43.929   4.569  10.374  0.00  0.00    +0.000 C 
BRANCH  14  15
ATOM     15  C   UNL     1      44.788   3.786   9.410  0.00  0.00    +0.000 A 
ATOM     16  C   UNL     1      44.862   2.388   9.496  0.00  0.00    +0.000 A 
ATOM     17  C   UNL     1      45.660   1.663   8.609  0.00  0.00    +0.000 A 
ATOM     18  C   UNL     1      46.393   2.325   7.626  0.00  0.00    +0.000 A 
ATOM     19  C   UNL     1      46.325   3.714   7.528  0.00  0.00    +0.000 A 
ATOM     20  C   UNL     1      45.523   4.440   8.410  0.00  0.00    +0.000 A 
ENDBRANCH  14  15
ENDBRANCH  13  14
ENDBRANCH   1  13
TORSDOF 6
ENDMDL
MODEL 6
REMARK VINA RESULT:    -5.722      2.932      6.243
REMARK INTER + INTRA:          -8.238
REMARK INTER:                  -8.647
REMARK INTRA:                   0.409
REMARK UNBOUND:                -0.677
REMARK  Name = 
REMARK  7 active torsions:
REMARK  status: ('A' for Active; 'I' for Inactive)
REMARK    1  A    between atoms: C_1  and  C_2
REMARK    2  A    between atoms: C_2  and  C_3
REMARK    3  A    between atoms: C_2  and  O_10
REMARK    4  A    between atoms: C_3  and  C_4
REMARK    5  A    between atoms: O_10  and  C_11
REMARK    6  A    between atoms: CA_14  and  C_15
REMARK    7  A    between atoms: C_15  and  OXT_17
REMARK                            x       y       z     vdW  Elec       q    Type
REMARK                         _______ _______ _______ _____ _____    ______ ____
ROOT
ATOM      1  O   UNL     1      45.521   3.368  11.254  0.00  0.00    +0.000 OA
ENDROOT
BRANCH   1   2
ATOM      2  C   UNL     1      45.575   4.659  11.727  0.00  0.00    +0.000 A 
ATOM      3  C   UNL     1      45.552   5.698  10.796  0.00  0.00    +0.000 A 
ATOM      4  N   UNL     1      45.589   7.011  11.146  0.00  0.00    +0.000 NA
ATOM      5  CA  UNL     1      45.636   7.229  12.495  0.00  0.00    +0.000 A 
ATOM      6  C   UNL     1      45.654   6.201  13.425  0.00  0.00    +0.000 A 
ATOM      7  N   UNL     1      45.634   4.896  13.056  0.00  0.00    +0.000 NA
BRANCH   5   8
ATOM      8  C   UNL     1      45.672   8.637  12.945  0.00  0.00    +0.000 C 
ATOM      9  O   UNL     1      45.034   9.546  12.441  0.00  0.00    +0.000 OA
BRANCH   8  10
ATOM     10  OXT UNL     1      46.509   8.779  14.001  0.00  0.00    +0.000 OA
ATOM     11  HXT UNL     1      46.018   9.179  14.756  0.00  0.00    +0.000 HD
ENDBRANCH   8  10
ENDBRANCH   5   8
ENDBRANCH   1   2
BRANCH   1  13
ATOM     12  C   UNL     1      43.168   3.729  11.373  0.00  0.00    +0.000 C 
ATOM     13  C   UNL     1      44.279   2.995  10.620  0.00  0.00    +0.000 C 
BRANCH  13  14
ATOM     14  C   UNL     1      44.331   3.400   9.133  0.00  0.00    +0.000 C 
BRANCH  14  15
ATOM     15  C   UNL     1      45.470   2.791   8.352  0.00  0.00    +0.000 A 
ATOM     16  C   UNL     1      46.276   3.590   7.527  0.00  0.00    +0.000 A 
ATOM     17  C   UNL     1      47.326   3.027   6.799  0.00  0.00    +0.000 A 
ATOM     18  C   UNL     1      47.585   1.661   6.888  0.00  0.00    +0.000 A 
ATOM     19  C   UNL     1      46.795   0.857   7.708  0.00  0.00    +0.000 A 
ATOM     20  C   UNL     1      45.747   1.418   8.440  0.00  0.00    +0.000 A 
ENDBRANCH  14  15
ENDBRANCH  13  14
ENDBRANCH   1  13
TORSDOF 6
ENDMDL
MODEL 7
REMARK VINA RESULT:    -5.650      4.456      7.308
REMARK INTER + INTRA:          -8.144
REMARK INTER:                  -7.521
REMARK INTRA:                  -0.622
REMARK UNBOUND:                -0.677
REMARK  Name = 
REMARK  7 active torsions:
REMARK  status: ('A' for Active; 'I' for Inactive)
REMARK    1  A    between atoms: C_1  and  C_2
REMARK    2  A    between atoms: C_2  and  C_3
REMARK    3  A    between atoms: C_2  and  O_10
REMARK    4  A    between atoms: C_3  and  C_4
REMARK    5  A    between atoms: O_10  and  C_11
REMARK    6  A    between atoms: CA_14  and  C_15
REMARK    7  A    between atoms: C_15  and  OXT_17
REMARK                            x       y       z     vdW  Elec       q    Type
REMARK                         _______ _______ _______ _____ _____    ______ ____
ROOT
ATOM      1  O   UNL     1      47.933   6.806  13.344  0.00  0.00    +0.000 OA
ENDROOT
BRANCH   1   2
ATOM      2  C   UNL     1      47.873   5.940  14.411  0.00  0.00    +0.000 A 
ATOM      3  C   UNL     1      48.457   6.341  15.612  0.00  0.00    +0.000 A 
ATOM      4  N   UNL     1      48.450   5.575  16.736  0.00  0.00    +0.000 NA
ATOM      5  CA  UNL     1      47.806   4.378  16.592  0.00  0.00    +0.000 A 
ATOM      6  C   UNL     1      47.219   3.976  15.402  0.00  0.00    +0.000 A 
ATOM      7  N   UNL     1      47.251   4.747  14.286  0.00  0.00    +0.000 NA
BRANCH   5   8
ATOM      8  C   UNL     1      47.756   3.497  17.779  0.00  0.00    +0.000 C 
ATOM      9  O   UNL     1      48.612   3.448  18.646  0.00  0.00    +0.000 OA
BRANCH   8  10
ATOM     10  OXT UNL     1      46.623   2.754  17.773  0.00  0.00    +0.000 OA
ATOM     11  HXT UNL     1      46.817   1.860  18.142  0.00  0.00    +0.000 HD
ENDBRANCH   8  10
ENDBRANCH   5   8
ENDBRANCH   1   2
BRANCH   1  13
ATOM     12  C   UNL     1      46.875   8.903  12.938  0.00  0.00    +0.000 C 
ATOM     13  C   UNL     1      46.672   7.387  12.950  0.00  0.00    +0.000 C 
BRANCH  13  14
ATOM     14  C   UNL     1      46.282   6.849  11.558  0.00  0.00    +0.000 C 
BRANCH  14  15
ATOM     15  C   UNL     1      45.162   5.835  11.565  0.00  0.00    +0.000 A 
ATOM     16  C   UNL     1      44.995   4.952  10.488  0.00  0.00    +0.000 A 
ATOM     17  C   UNL     1      43.956   4.018  10.490  0.00  0.00    +0.000 A 
ATOM     18  C   UNL     1      43.074   3.956  11.567  0.00  0.00    +0.000 A 
ATOM     19  C   UNL     1      43.233   4.825  12.644  0.00  0.00    +0.000 A 
ATOM     20  C   UNL     1      44.272   5.756  12.647  0.00  0.00    +0.000 A 
ENDBRANCH  14  15
ENDBRANCH  13  14
ENDBRANCH   1  13
TORSDOF 6
ENDMDL
MODEL 8
REMARK VINA RESULT:    -5.620      4.185      6.490
REMARK INTER + INTRA:          -8.104
REMARK INTER:                  -7.627
REMARK INTRA:                  -0.476
REMARK UNBOUND:                -0.677
REMARK  Name = 
REMARK  7 active torsions:
REMARK  status: ('A' for Active; 'I' for Inactive)
REMARK    1  A    between atoms: C_1  and  C_2
REMARK    2  A    between atoms: C_2  and  C_3
REMARK    3  A    between atoms: C_2  and  O_10
REMARK    4  A    between atoms: C_3  and  C_4
REMARK    5  A    between atoms: O_10  and  C_11
REMARK    6  A    between atoms: CA_14  and  C_15
REMARK    7  A    between atoms: C_15  and  OXT_17
REMARK                            x       y       z     vdW  Elec       q    Type
REMARK                         _______ _______ _______ _____ _____    ______ ____
ROOT
ATOM      1  O   UNL     1      47.787   4.515  14.620  0.00  0.00    +0.000 OA
ENDROOT
BRANCH   1   2
ATOM      2  C   UNL     1      46.663   4.435  13.830  0.00  0.00    +0.000 A 
ATOM      3  C   UNL     1      45.963   5.613  13.569  0.00  0.00    +0.000 A 
ATOM      4  N   UNL     1      44.846   5.658  12.795  0.00  0.00    +0.000 NA
ATOM      5  CA  UNL     1      44.475   4.448  12.278  0.00  0.00    +0.000 A 
ATOM      6  C   UNL     1      45.170   3.275  12.530  0.00  0.00    +0.000 A 
ATOM      7  N   UNL     1      46.273   3.247  13.320  0.00  0.00    +0.000 NA
BRANCH   5   8
ATOM      8  C   UNL     1      43.271   4.426  11.420  0.00  0.00    +0.000 C 
ATOM      9  O   UNL     1      42.766   5.409  10.903  0.00  0.00    +0.000 OA
BRANCH   8  10
ATOM     10  OXT UNL     1      42.806   3.161  11.282  0.00  0.00    +0.000 OA
ATOM     11  HXT UNL     1      43.446   2.635  10.747  0.00  0.00    +0.000 HD
ENDBRANCH   8  10
ENDBRANCH   5   8
ENDBRANCH   1   2
BRANCH   1  13
ATOM     12  C   UNL     1      47.782   3.101  16.538  0.00  0.00    +0.000 C 
ATOM     13  C   UNL     1      47.540   4.527  16.043  0.00  0.00    +0.000 C 
BRANCH  13  14
ATOM     14  C   UNL     1      48.495   5.537  16.711  0.00  0.00    +0.000 C 
BRANCH  14  15
ATOM     15  C   UNL     1      48.469   5.526  18.221  0.00  0.00    +0.000 A 
ATOM     16  C   UNL     1      49.571   5.052  18.948  0.00  0.00    +0.000 A 
ATOM     17  C   UNL     1      49.546   5.035  20.345  0.00  0.00    +0.000 A 
ATOM     18  C   UNL     1      48.423   5.493  21.030  0.00  0.00    +0.000 A 
ATOM     19  C   UNL     1      47.324   5.970  20.318  0.00  0.00    +0.000 A 
ATOM     20  C   UNL     1      47.348   5.992  18.923  0.00  0.00    +0.000 A 
ENDBRANCH  14  15
ENDBRANCH  13  14
ENDBRANCH   1  13
TORSDOF 6
ENDMDL
MODEL 9
REMARK VINA RESULT:    -5.565      3.064      5.466
REMARK INTER + INTRA:          -8.032
REMARK INTER:                  -7.550
REMARK INTRA:                  -0.482
REMARK UNBOUND:                -0.677
REMARK  Name = 
REMARK  7 active torsions:
REMARK  status: ('A' for Active; 'I' for Inactive)
REMARK    1  A    between atoms: C_1  and  C_2
REMARK    2  A    between atoms: C_2  and  C_3
REMARK    3  A    between atoms: C_2  and  O_10
REMARK    4  A    between atoms: C_3  and  C_4
REMARK    5  A    between atoms: O_10  and  C_11
REMARK    6  A    between atoms: CA_14  and  C_15
REMARK    7  A    between atoms: C_15  and  OXT_17
REMARK                            x       y       z     vdW  Elec       q    Type
REMARK                         _______ _______ _______ _____ _____    ______ ____
ROOT
ATOM      1  O   UNL     1      46.792   6.562  13.593  0.00  0.00    +0.000 OA
ENDROOT
BRANCH   1   2
ATOM      2  C   UNL     1      46.078   5.655  12.843  0.00  0.00    +0.000 A 
ATOM      3  C   UNL     1      45.967   4.352  13.326  0.00  0.00    +0.000 A 
ATOM      4  N   UNL     1      45.279   3.374  12.678  0.00  0.00    +0.000 NA
ATOM      5  CA  UNL     1      44.689   3.784  11.514  0.00  0.00    +0.000 A 
ATOM      6  C   UNL     1      44.792   5.079  11.032  0.00  0.00    +0.000 A 
ATOM      7  N   UNL     1      45.498   6.037  11.684  0.00  0.00    +0.000 NA
BRANCH   5   8
ATOM      8  C   UNL     1      43.919   2.771  10.761  0.00  0.00    +0.000 C 
ATOM      9  O   UNL     1      44.010   2.579   9.560  0.00  0.00    +0.000 OA
BRANCH   8  10
ATOM     10  OXT UNL     1      43.101   2.080  11.590  0.00  0.00    +0.000 OA
ATOM     11  HXT UNL     1      42.525   2.712  12.083  0.00  0.00    +0.000 HD
ENDBRANCH   8  10
ENDBRANCH   5   8
ENDBRANCH   1   2
BRANCH   1  13
ATOM     12  C   UNL     1      49.068   6.890  12.966  0.00  0.00    +0.000 C 
ATOM     13  C   UNL     1      48.135   6.159  13.933  0.00  0.00    +0.000 C 
BRANCH  13  14
ATOM     14  C   UNL     1      48.419   6.536  15.401  0.00  0.00    +0.000 C 
BRANCH  14  15
ATOM     15  C   UNL     1      48.457   5.368  16.357  0.00  0.00    +0.000 A 
ATOM     16  C   UNL     1      47.390   4.459  16.415  0.00  0.00    +0.000 A 
ATOM     17  C   UNL     1      47.421   3.381  17.302  0.00  0.00    +0.000 A 
ATOM     18  C   UNL     1      48.519   3.198  18.141  0.00  0.00    +0.000 A 
ATOM     19  C   UNL     1      49.587   4.092  18.090  0.00  0.00    +0.000 A 
ATOM     20  C   UNL     1      49.560   5.167  17.200  0.00  0.00    +0.000 A 
ENDBRANCH  14  15
ENDBRANCH  13  14
ENDBRANCH   1  13
TORSDOF 6
ENDMDL
