MODEL 1
REMARK VINA RESULT:    -8.113      0.000      0.000
REMARK INTER + INTRA:         -11.797
REMARK INTER:                 -10.959
REMARK INTRA:                  -0.839
REMARK UNBOUND:                -0.839
REMARK  Name = 
REMARK  8 active torsions:
REMARK  status: ('A' for Active; 'I' for Inactive)
REMARK    1  A    between atoms: C_1  and  C_2
REMARK    2  A    between atoms: C_4  and  C_5
REMARK    3  A    between atoms: C_5  and  C_6
REMARK    4  A    between atoms: C_5  and  C_7
REMARK    5  A    between atoms: C_7  and  N_8
REMARK    6  A    between atoms: C_12  and  C_13
REMARK    7  A    between atoms: C_19  and  O_20
REMARK    8  A    between atoms: O_20  and  C_21
REMARK                            x       y       z     vdW  Elec       q    Type
REMARK                         _______ _______ _______ _____ _____    ______ ____
ROOT
ATOM      1  C   UNL     1      43.695   4.572  12.188  0.00  0.00    +0.000 C 
ATOM      2  C   UNL     1      42.720   5.676  12.617  0.00  0.00    +0.000 C 
ENDROOT
BRANCH   1   6
ATOM      3  C   UNL     1      47.920   7.392  11.777  0.00  0.00    +0.000 C 
ATOM      4  C   UNL     1      47.139   6.271  12.403  0.00  0.00    +0.000 A 
ATOM      5  C   UNL     1      45.834   5.996  11.989  0.00  0.00    +0.000 A 
ATOM      6  C   UNL     1      45.121   4.948  12.587  0.00  0.00    +0.000 A 
ATOM      7  C   UNL     1      45.761   4.236  13.608  0.00  0.00    +0.000 A 
ATOM      8  C   UNL     1      47.065   4.573  13.959  0.00  0.00    +0.000 A 
ATOM      9  N   UNL     1      47.763   5.566  13.378  0.00  0.00    +0.000 NA
BRANCH   8  10
ATOM     10  O   UNL     1      47.629   3.812  14.971  0.00  0.00    +0.000 OA
BRANCH  10  11
ATOM     11  C   UNL     1      47.315   4.273  16.292  0.00  0.00    +0.000 C 
ATOM     12  C   UNL     1      48.459   5.136  16.786  0.00  0.00    +0.000 C 
ATOM     13  C   UNL     1      49.406   4.142  17.421  0.00  0.00    +0.000 C 
ATOM     14  O   UNL     1      48.620   3.046  17.893  0.00  0.00    +0.000 OA
ATOM     15  C   UNL     1      47.312   3.126  17.297  0.00  0.00    +0.000 C 
ENDBRANCH  10  11
ENDBRANCH   8  10
ENDBRANCH   1   6
BRANCH   1  16
ATOM     16  C   UNL     1      43.570   4.229  10.684  0.00  0.00    +0.000 C 
BRANCH  16  17
ATOM     17  N   UNL     1      44.010   2.857  10.387  0.00  0.00    +0.000 N 
ATOM     18  C   UNL     1      44.894   2.789   9.290  0.00  0.00    +0.000 A 
ATOM     19  C   UNL     1      45.373   1.546   8.846  0.00  0.00    +0.000 A 
ATOM     20  N   UNL     1      46.220   1.381   7.792  0.00  0.00    +0.000 NA
ATOM     21  C   UNL     1      46.598   2.542   7.194  0.00  0.00    +0.000 A 
ATOM     22  C   UNL     1      46.152   3.779   7.627  0.00  0.00    +0.000 A 
ATOM     23  N   UNL     1      45.299   3.921   8.674  0.00  0.00    +0.000 NA
ATOM     24  H   UNL     1      43.232   2.233  10.200  0.00  0.00    +0.000 HD
BRANCH  21  25
ATOM     25  C   UNL     1      47.519   2.466   6.028  0.00  0.00    +0.000 C 
ATOM     26  N   UNL     1      48.855   2.484   6.316  0.00  0.00    +0.000 N 
ATOM     27  O   UNL     1      47.108   2.384   4.877  0.00  0.00    +0.000 OA
ATOM     28  H   UNL     1      49.166   2.555   7.278  0.00  0.00    +0.000 HD
ATOM     29  H   UNL     1      49.527   2.437   5.565  0.00  0.00    +0.000 HD
ENDBRANCH  21  25
ENDBRANCH  16  17
ENDBRANCH   1  16
TORSDOF 6
ENDMDL
MODEL 2
REMARK VINA RESULT:    -7.251      3.319      4.973
REMARK INTER + INTRA:         -10.633
REMARK INTER:                  -9.941
REMARK INTRA:                  -0.692
REMARK UNBOUND:                -0.839
REMARK  Name = 
REMARK  8 active torsions:
REMARK  status: ('A' for Active; 'I' for Inactive)
REMARK    1  A    between atoms: C_1  and  C_2
REMARK    2  A    between atoms: C_4  and  C_5
REMARK    3  A    between atoms: C_5  and  C_6
REMARK    4  A    between atoms: C_5  and  C_7
REMARK    5  A    between atoms: C_7  and  N_8
REMARK    6  A    between atoms: C_12  and  C_13
REMARK    7  A    between atoms: C_19  and  O_20
REMARK    8  A    between atoms: O_20  and  C_21
REMARK                            x       y       z     vdW  Elec       q    Type
REMARK                         _______ _______ _______ _____ _____    ______ ____
ROOT
ATOM      1  C   UNL     1      44.298   4.685  12.084  0.00  0.00    +0.000 C 
ATOM      2  C   UNL     1      43.265   4.627  13.217  0.00  0.00    +0.000 C 
ENDROOT
BRANCH   1   6
ATOM      3  C   UNL     1      48.934   6.696  12.736  0.00  0.00    +0.000 C 
ATOM      4  C   UNL     1      47.443   6.834  12.620  0.00  0.00    +0.000 A 
ATOM      5  C   UNL     1      46.639   5.711  12.410  0.00  0.00    +0.000 A 
ATOM      6  C   UNL     1      45.249   5.860  12.303  0.00  0.00    +0.000 A 
ATOM      7  C   UNL     1      44.735   7.158  12.386  0.00  0.00    +0.000 A 
ATOM      8  C   UNL     1      45.605   8.223  12.599  0.00  0.00    +0.000 A 
ATOM      9  N   UNL     1      46.938   8.088  12.722  0.00  0.00    +0.000 NA
BRANCH   8  10
ATOM     10  O   UNL     1      45.012   9.474  12.680  0.00  0.00    +0.000 OA
BRANCH  10  11
ATOM     11  C   UNL     1      44.734  10.072  11.406  0.00  0.00    +0.000 C 
ATOM     12  C   UNL     1      45.809  11.099  11.111  0.00  0.00    +0.000 C 
ATOM     13  C   UNL     1      45.281  12.362  11.755  0.00  0.00    +0.000 C 
ATOM     14  O   UNL     1      43.854  12.282  11.742  0.00  0.00    +0.000 OA
ATOM     15  C   UNL     1      43.470  10.925  11.455  0.00  0.00    +0.000 C 
ENDBRANCH  10  11
ENDBRANCH   8  10
ENDBRANCH   1   6
BRANCH   1  16
ATOM     16  C   UNL     1      43.637   4.708  10.685  0.00  0.00    +0.000 C 
BRANCH  16  17
ATOM     17  N   UNL     1      44.555   5.194   9.643  0.00  0.00    +0.000 N 
ATOM     18  C   UNL     1      45.229   4.150   8.975  0.00  0.00    +0.000 A 
ATOM     19  C   UNL     1      46.176   4.444   7.982  0.00  0.00    +0.000 A 
ATOM     20  N   UNL     1      46.882   3.506   7.291  0.00  0.00    +0.000 NA
ATOM     21  C   UNL     1      46.581   2.224   7.627  0.00  0.00    +0.000 A 
ATOM     22  C   UNL     1      45.638   1.911   8.591  0.00  0.00    +0.000 A 
ATOM     23  N   UNL     1      44.952   2.862   9.275  0.00  0.00    +0.000 NA
ATOM     24  H   UNL     1      45.253   5.833  10.009  0.00  0.00    +0.000 HD
BRANCH  21  25
ATOM     25  C   UNL     1      47.305   1.126   6.931  0.00  0.00    +0.000 C 
ATOM     26  N   UNL     1      48.322   1.508   6.101  0.00  0.00    +0.000 N 
ATOM     27  O   UNL     1      47.014  -0.053   7.095  0.00  0.00    +0.000 OA
ATOM     28  H   UNL     1      48.538   2.491   5.983  0.00  0.00    +0.000 HD
ATOM     29  H   UNL     1      48.846   0.806   5.601  0.00  0.00    +0.000 HD
ENDBRANCH  21  25
ENDBRANCH  16  17
ENDBRANCH   1  16
TORSDOF 6
ENDMDL
MODEL 3
REMARK VINA RESULT:    -6.770      2.943      4.889
REMARK INTER + INTRA:          -9.983
REMARK INTER:                  -9.202
REMARK INTRA:                  -0.782
REMARK UNBOUND:                -0.839
REMARK  Name = 
REMARK  8 active torsions:
REMARK  status: ('A' for Active; 'I' for Inactive)
REMARK    1  A    between atoms: C_1  and  C_2
REMARK    2  A    between atoms: C_4  and  C_5
REMARK    3  A    between atoms: C_5  and  C_6
REMARK    4  A    between atoms: C_5  and  C_7
REMARK    5  A    between atoms: C_7  and  N_8
REMARK    6  A    between atoms: C_12  and  C_13
REMARK    7  A    between atoms: C_19  and  O_20
REMARK    8  A    between atoms: O_20  and  C_21
REMARK                            x       y       z     vdW  Elec       q    Type
REMARK                         _______ _______ _______ _____ _____    ______ ____
ROOT
ATOM      1  C   UNL     1      48.336   8.538  12.630  0.00  0.00    +0.000 C 
ATOM      2  C   UNL     1      49.286   7.628  11.843  0.00  0.00    +0.000 C 
ENDROOT
BRANCH   1   6
ATOM      3  C   UNL     1      48.198   9.960  17.522  0.00  0.00    +0.000 C 
ATOM      4  C   UNL     1      48.415   8.923  16.457  0.00  0.00    +0.000 A 
ATOM      5  C   UNL     1      48.264   9.248  15.107  0.00  0.00    +0.000 A 
ATOM      6  C   UNL     1      48.469   8.266  14.127  0.00  0.00    +0.000 A 
ATOM      7  C   UNL     1      48.794   6.978  14.568  0.00  0.00    +0.000 A 
ATOM      8  C   UNL     1      48.928   6.738  15.932  0.00  0.00    +0.000 A 
ATOM      9  N   UNL     1      48.751   7.679  16.878  0.00  0.00    +0.000 NA
BRANCH   8  10
ATOM     10  O   UNL     1      49.262   5.439  16.282  0.00  0.00    +0.000 OA
BRANCH  10  11
ATOM     11  C   UNL     1      48.172   4.683  16.829  0.00  0.00    +0.000 C 
ATOM     12  C   UNL     1      48.739   3.493  17.577  0.00  0.00    +0.000 C 
ATOM     13  C   UNL     1      48.864   2.429  16.509  0.00  0.00    +0.000 C 
ATOM     14  O   UNL     1      47.858   2.689  15.528  0.00  0.00    +0.000 OA
ATOM     15  C   UNL     1      47.348   4.019  15.731  0.00  0.00    +0.000 C 
ENDBRANCH  10  11
ENDBRANCH   8  10
ENDBRANCH   1   6
BRANCH   1  16
ATOM     16  C   UNL     1      46.873   8.432  12.135  0.00  0.00    +0.000 C 
BRANCH  16  17
ATOM     17  N   UNL     1      46.017   7.695  13.077  0.00  0.00    +0.000 N 
ATOM     18  C   UNL     1      45.508   6.497  12.534  0.00  0.00    +0.000 A 
ATOM     19  C   UNL     1      44.636   5.695  13.287  0.00  0.00    +0.000 A 
ATOM     20  N   UNL     1      44.088   4.529  12.845  0.00  0.00    +0.000 NA
ATOM     21  C   UNL     1      44.473   4.174  11.590  0.00  0.00    +0.000 A 
ATOM     22  C   UNL     1      45.345   4.940  10.837  0.00  0.00    +0.000 A 
ATOM     23  N   UNL     1      45.873   6.105  11.294  0.00  0.00    +0.000 NA
ATOM     24  H   UNL     1      45.232   8.249  13.402  0.00  0.00    +0.000 HD
BRANCH  21  25
ATOM     25  C   UNL     1      43.922   2.917  11.015  0.00  0.00    +0.000 C 
ATOM     26  N   UNL     1      44.623   2.377   9.972  0.00  0.00    +0.000 N 
ATOM     27  O   UNL     1      42.906   2.390  11.451  0.00  0.00    +0.000 OA
ATOM     28  H   UNL     1      45.459   2.836   9.630  0.00  0.00    +0.000 HD
ATOM     29  H   UNL     1      44.295   1.526   9.541  0.00  0.00    +0.000 HD
ENDBRANCH  21  25
ENDBRANCH  16  17
ENDBRANCH   1  16
TORSDOF 6
ENDMDL
MODEL 4
REMARK VINA RESULT:    -6.686      3.565      7.923
REMARK INTER + INTRA:          -9.870
REMARK INTER:                  -8.960
REMARK INTRA:                  -0.909
REMARK UNBOUND:                -0.839
REMARK  Name = 
REMARK  8 active torsions:
REMARK  status: ('A' for Active; 'I' for Inactive)
REMARK    1  A    between atoms: C_1  and  C_2
REMARK    2  A    between atoms: C_4  and  C_5
REMARK    3  A    between atoms: C_5  and  C_6
REMARK    4  A    between atoms: C_5  and  C_7
REMARK    5  A    between atoms: C_7  and  N_8
REMARK    6  A    between atoms: C_12  and  C_13
REMARK    7  A    between atoms: C_19  and  O_20
REMARK    8  A    between atoms: O_20  and  C_21
REMARK                            x       y       z     vdW  Elec       q    Type
REMARK                         _______ _______ _______ _____ _____    ______ ____
ROOT
ATOM      1  C   UNL     1      48.498   8.884  12.736  0.00  0.00    +0.000 C 
ATOM      2  C   UNL     1      48.438   9.852  13.924  0.00  0.00    +0.000 C 
ENDROOT
BRANCH   1   6
ATOM      3  C   UNL     1      43.807  10.174  11.218  0.00  0.00    +0.000 C 
ATOM      4  C   UNL     1      44.850   9.142  11.543  0.00  0.00    +0.000 A 
ATOM      5  C   UNL     1      46.125   9.528  11.963  0.00  0.00    +0.000 A 
ATOM      6  C   UNL     1      47.086   8.551  12.260  0.00  0.00    +0.000 A 
ATOM      7  C   UNL     1      46.714   7.213  12.087  0.00  0.00    +0.000 A 
ATOM      8  C   UNL     1      45.422   6.914  11.666  0.00  0.00    +0.000 A 
ATOM      9  N   UNL     1      44.488   7.844  11.397  0.00  0.00    +0.000 NA
BRANCH   8  10
ATOM     10  O   UNL     1      45.133   5.564  11.531  0.00  0.00    +0.000 OA
BRANCH  10  11
ATOM     11  C   UNL     1      43.891   5.297  10.864  0.00  0.00    +0.000 C 
ATOM     12  C   UNL     1      42.973   4.571  11.827  0.00  0.00    +0.000 C 
ATOM     13  C   UNL     1      43.328   3.114  11.627  0.00  0.00    +0.000 C 
ATOM     14  O   UNL     1      43.789   2.969  10.281  0.00  0.00    +0.000 OA
ATOM     15  C   UNL     1      44.068   4.275   9.746  0.00  0.00    +0.000 C 
ENDBRANCH  10  11
ENDBRANCH   8  10
ENDBRANCH   1   6
BRANCH   1  16
ATOM     16  C   UNL     1      49.334   7.620  13.048  0.00  0.00    +0.000 C 
BRANCH  16  17
ATOM     17  N   UNL     1      49.838   7.612  14.430  0.00  0.00    +0.000 N 
ATOM     18  C   UNL     1      49.228   6.624  15.231  0.00  0.00    +0.000 A 
ATOM     19  C   UNL     1      49.563   6.511  16.589  0.00  0.00    +0.000 A 
ATOM     20  N   UNL     1      49.022   5.597  17.442  0.00  0.00    +0.000 NA
ATOM     21  C   UNL     1      48.121   4.760  16.861  0.00  0.00    +0.000 A 
ATOM     22  C   UNL     1      47.789   4.842  15.520  0.00  0.00    +0.000 A 
ATOM     23  N   UNL     1      48.334   5.769  14.690  0.00  0.00    +0.000 NA
ATOM     24  H   UNL     1      49.716   8.508  14.892  0.00  0.00    +0.000 HD
BRANCH  21  25
ATOM     25  C   UNL     1      47.469   3.728  17.712  0.00  0.00    +0.000 C 
ATOM     26  N   UNL     1      47.985   3.573  18.969  0.00  0.00    +0.000 N 
ATOM     27  O   UNL     1      46.522   3.061  17.317  0.00  0.00    +0.000 OA
ATOM     28  H   UNL     1      48.771   4.138  19.268  0.00  0.00    +0.000 HD
ATOM     29  H   UNL     1      47.584   2.886  19.590  0.00  0.00    +0.000 HD
ENDBRANCH  21  25
ENDBRANCH  16  17
ENDBRANCH   1  16
TORSDOF 6
ENDMDL
MODEL 5
REMARK VINA RESULT:    -6.563      3.929      7.040
REMARK INTER + INTRA:          -9.703
REMARK INTER:                  -8.631
REMARK INTRA:                  -1.072
REMARK UNBOUND:                -0.839
REMARK  Name = 
REMARK  8 active torsions:
REMARK  status: ('A' for Active; 'I' for Inactive)
REMARK    1  A    between atoms: C_1  and  C_2
REMARK    2  A    between atoms: C_4  and  C_5
REMARK    3  A    between atoms: C_5  and  C_6
REMARK    4  A    between atoms: C_5  and  C_7
REMARK    5  A    between atoms: C_7  and  N_8
REMARK    6  A    between atoms: C_12  and  C_13
REMARK    7  A    between atoms: C_19  and  O_20
REMARK    8  A    between atoms: O_20  and  C_21
REMARK                            x       y       z     vdW  Elec       q    Type
REMARK                         _______ _______ _______ _____ _____    ______ ____
ROOT
ATOM      1  C   UNL     1      48.671   7.478  14.431  0.00  0.00    +0.000 C 
ATOM      2  C   UNL     1      50.108   7.578  14.958  0.00  0.00    +0.000 C 
ENDROOT
BRANCH   1   6
ATOM      3  C   UNL     1      47.933   3.575  17.622  0.00  0.00    +0.000 C 
ATOM      4  C   UNL     1      47.711   4.258  16.303  0.00  0.00    +0.000 A 
ATOM      5  C   UNL     1      48.289   5.502  16.041  0.00  0.00    +0.000 A 
ATOM      6  C   UNL     1      48.069   6.125  14.804  0.00  0.00    +0.000 A 
ATOM      7  C   UNL     1      47.242   5.463  13.890  0.00  0.00    +0.000 A 
ATOM      8  C   UNL     1      46.707   4.224  14.229  0.00  0.00    +0.000 A 
ATOM      9  N   UNL     1      46.927   3.610  15.406  0.00  0.00    +0.000 NA
BRANCH   8  10
ATOM     10  O   UNL     1      45.907   3.632  13.264  0.00  0.00    +0.000 OA
BRANCH  10  11
ATOM     11  C   UNL     1      44.975   4.530  12.647  0.00  0.00    +0.000 C 
ATOM     12  C   UNL     1      43.570   4.031  12.921  0.00  0.00    +0.000 C 
ATOM     13  C   UNL     1      43.306   3.069  11.785  0.00  0.00    +0.000 C 
ATOM     14  O   UNL     1      44.079   3.508  10.666  0.00  0.00    +0.000 OA
ATOM     15  C   UNL     1      45.056   4.460  11.125  0.00  0.00    +0.000 C 
ENDBRANCH  10  11
ENDBRANCH   8  10
ENDBRANCH   1   6
BRANCH   1  16
ATOM     16  C   UNL     1      48.579   7.772  12.914  0.00  0.00    +0.000 C 
BRANCH  16  17
ATOM     17  N   UNL     1      48.220   9.172  12.639  0.00  0.00    +0.000 N 
ATOM     18  C   UNL     1      46.907   9.314  12.143  0.00  0.00    +0.000 A 
ATOM     19  C   UNL     1      46.421  10.582  11.786  0.00  0.00    +0.000 A 
ATOM     20  N   UNL     1      45.174  10.816  11.291  0.00  0.00    +0.000 NA
ATOM     21  C   UNL     1      44.400   9.704  11.183  0.00  0.00    +0.000 A 
ATOM     22  C   UNL     1      44.853   8.447  11.546  0.00  0.00    +0.000 A 
ATOM     23  N   UNL     1      46.104   8.234  12.028  0.00  0.00    +0.000 NA
ATOM     24  H   UNL     1      48.852   9.611  11.977  0.00  0.00    +0.000 HD
BRANCH  21  25
ATOM     25  C   UNL     1      43.021   9.855  10.646  0.00  0.00    +0.000 C 
ATOM     26  N   UNL     1      42.173   8.804  10.863  0.00  0.00    +0.000 N 
ATOM     27  O   UNL     1      42.660  10.863  10.050  0.00  0.00    +0.000 OA
ATOM     28  H   UNL     1      42.500   7.982  11.356  0.00  0.00    +0.000 HD
ATOM     29  H   UNL     1      41.226   8.851  10.519  0.00  0.00    +0.000 HD
ENDBRANCH  21  25
ENDBRANCH  16  17
ENDBRANCH   1  16
TORSDOF 6
ENDMDL
MODEL 6
REMARK VINA RESULT:    -6.290      3.586      5.892
REMARK INTER + INTRA:          -9.334
REMARK INTER:                  -8.326
REMARK INTRA:                  -1.008
REMARK UNBOUND:                -0.839
REMARK  Name = 
REMARK  8 active torsions:
REMARK  status: ('A' for Active; 'I' for Inactive)
REMARK    1  A    between atoms: C_1  and  C_2
REMARK    2  A    between atoms: C_4  and  C_5
REMARK    3  A    between atoms: C_5  and  C_6
REMARK    4  A    between atoms: C_5  and  C_7
REMARK    5  A    between atoms: C_7  and  N_8
REMARK    6  A    between atoms: C_12  and  C_13
REMARK    7  A    between atoms: C_19  and  O_20
REMARK    8  A    between atoms: O_20  and  C_21
REMARK                            x       y       z     vdW  Elec       q    Type
REMARK                         _______ _______ _______ _____ _____    ______ ____
ROOT
ATOM      1  C   UNL     1      48.507   9.504  14.936  0.00  0.00    +0.000 C 
ATOM      2  C   UNL     1      49.819  10.298  14.918  0.00  0.00    +0.000 C 
ENDROOT
BRANCH   1   6
ATOM      3  C   UNL     1      47.719   8.122  19.777  0.00  0.00    +0.000 C 
ATOM      4  C   UNL     1      48.162   7.815  18.375  0.00  0.00    +0.000 A 
ATOM      5  C   UNL     1      48.107   8.796  17.381  0.00  0.00    +0.000 A 
ATOM      6  C   UNL     1      48.523   8.490  16.078  0.00  0.00    +0.000 A 
ATOM      7  C   UNL     1      48.955   7.182  15.832  0.00  0.00    +0.000 A 
ATOM      8  C   UNL     1      48.981   6.265  16.879  0.00  0.00    +0.000 A 
ATOM      9  N   UNL     1      48.601   6.555  18.137  0.00  0.00    +0.000 NA
BRANCH   8  10
ATOM     10  O   UNL     1      49.431   4.995  16.552  0.00  0.00    +0.000 OA
BRANCH  10  11
ATOM     11  C   UNL     1      48.732   3.937  17.222  0.00  0.00    +0.000 C 
ATOM     12  C   UNL     1      49.745   3.068  17.940  0.00  0.00    +0.000 C 
ATOM     13  C   UNL     1      50.152   2.056  16.891  0.00  0.00    +0.000 C 
ATOM     14  O   UNL     1      49.041   1.888  16.008  0.00  0.00    +0.000 OA
ATOM     15  C   UNL     1      48.109   2.963  16.227  0.00  0.00    +0.000 C 
ENDBRANCH  10  11
ENDBRANCH   8  10
ENDBRANCH   1   6
BRANCH   1  16
ATOM     16  C   UNL     1      48.193   8.853  13.567  0.00  0.00    +0.000 C 
BRANCH  16  17
ATOM     17  N   UNL     1      46.753   8.851  13.268  0.00  0.00    +0.000 N 
ATOM     18  C   UNL     1      46.246   7.558  13.019  0.00  0.00    +0.000 A 
ATOM     19  C   UNL     1      44.897   7.384  12.673  0.00  0.00    +0.000 A 
ATOM     20  N   UNL     1      44.321   6.178  12.407  0.00  0.00    +0.000 NA
ATOM     21  C   UNL     1      45.166   5.120  12.524  0.00  0.00    +0.000 A 
ATOM     22  C   UNL     1      46.495   5.267  12.881  0.00  0.00    +0.000 A 
ATOM     23  N   UNL     1      47.052   6.480  13.133  0.00  0.00    +0.000 NA
ATOM     24  H   UNL     1      46.522   9.435  12.471  0.00  0.00    +0.000 HD
BRANCH  21  25
ATOM     25  C   UNL     1      44.632   3.759  12.247  0.00  0.00    +0.000 C 
ATOM     26  N   UNL     1      45.445   2.714  12.587  0.00  0.00    +0.000 N 
ATOM     27  O   UNL     1      43.527   3.581  11.750  0.00  0.00    +0.000 OA
ATOM     28  H   UNL     1      46.355   2.891  12.995  0.00  0.00    +0.000 HD
ATOM     29  H   UNL     1      45.136   1.768  12.421  0.00  0.00    +0.000 HD
ENDBRANCH  21  25
ENDBRANCH  16  17
ENDBRANCH   1  16
TORSDOF 6
ENDMDL
MODEL 7
REMARK VINA RESULT:    -6.254      2.682      3.342
REMARK INTER + INTRA:          -9.286
REMARK INTER:                  -8.730
REMARK INTRA:                  -0.556
REMARK UNBOUND:                -0.839
REMARK  Name = 
REMARK  8 active torsions:
REMARK  status: ('A' for Active; 'I' for Inactive)
REMARK    1  A    between atoms: C_1  and  C_2
REMARK    2  A    between atoms: C_4  and  C_5
REMARK    3  A    between atoms: C_5  and  C_6
REMARK    4  A    between atoms: C_5  and  C_7
REMARK    5  A    between atoms: C_7  and  N_8
REMARK    6  A    between atoms: C_12  and  C_13
REMARK    7  A    between atoms: C_19  and  O_20
REMARK    8  A    between atoms: O_20  and  C_21
REMARK                            x       y       z     vdW  Elec       q    Type
REMARK                         _______ _______ _______ _____ _____    ______ ____
ROOT
ATOM      1  C   UNL     1      44.587   4.952  11.923  0.00  0.00    +0.000 C 
ATOM      2  C   UNL     1      43.647   4.734  13.115  0.00  0.00    +0.000 C 
ENDROOT
BRANCH   1   6
ATOM      3  C   UNL     1      44.528  10.025  11.446  0.00  0.00    +0.000 C 
ATOM      4  C   UNL     1      45.231   8.742  11.786  0.00  0.00    +0.000 A 
ATOM      5  C   UNL     1      44.564   7.518  11.689  0.00  0.00    +0.000 A 
ATOM      6  C   UNL     1      45.237   6.331  12.013  0.00  0.00    +0.000 A 
ATOM      7  C   UNL     1      46.560   6.443  12.452  0.00  0.00    +0.000 A 
ATOM      8  C   UNL     1      47.152   7.701  12.519  0.00  0.00    +0.000 A 
ATOM      9  N   UNL     1      46.520   8.843  12.193  0.00  0.00    +0.000 NA
BRANCH   8  10
ATOM     10  O   UNL     1      48.468   7.722  12.954  0.00  0.00    +0.000 OA
BRANCH  10  11
ATOM     11  C   UNL     1      48.614   7.948  14.363  0.00  0.00    +0.000 C 
ATOM     12  C   UNL     1      48.937   9.412  14.586  0.00  0.00    +0.000 C 
ATOM     13  C   UNL     1      50.445   9.463  14.480  0.00  0.00    +0.000 C 
ATOM     14  O   UNL     1      50.945   8.189  14.892  0.00  0.00    +0.000 OA
ATOM     15  C   UNL     1      49.853   7.251  14.915  0.00  0.00    +0.000 C 
ENDBRANCH  10  11
ENDBRANCH   8  10
ENDBRANCH   1   6
BRANCH   1  16
ATOM     16  C   UNL     1      43.882   4.714  10.566  0.00  0.00    +0.000 C 
BRANCH  16  17
ATOM     17  N   UNL     1      44.713   5.131   9.426  0.00  0.00    +0.000 N 
ATOM     18  C   UNL     1      45.352   4.047   8.787  0.00  0.00    +0.000 A 
ATOM     19  C   UNL     1      46.218   4.276   7.707  0.00  0.00    +0.000 A 
ATOM     20  N   UNL     1      46.885   3.296   7.035  0.00  0.00    +0.000 NA
ATOM     21  C   UNL     1      46.629   2.039   7.485  0.00  0.00    +0.000 A 
ATOM     22  C   UNL     1      45.764   1.790   8.537  0.00  0.00    +0.000 A 
ATOM     23  N   UNL     1      45.117   2.782   9.200  0.00  0.00    +0.000 NA
ATOM     24  H   UNL     1      45.427   5.801   9.691  0.00  0.00    +0.000 HD
BRANCH  21  25
ATOM     25  C   UNL     1      47.316   0.900   6.819  0.00  0.00    +0.000 C 
ATOM     26  N   UNL     1      46.927  -0.350   7.216  0.00  0.00    +0.000 N 
ATOM     27  O   UNL     1      48.173   1.067   5.961  0.00  0.00    +0.000 OA
ATOM     28  H   UNL     1      46.217  -0.458   7.929  0.00  0.00    +0.000 HD
ATOM     29  H   UNL     1      47.360  -1.161   6.799  0.00  0.00    +0.000 HD
ENDBRANCH  21  25
ENDBRANCH  16  17
ENDBRANCH   1  16
TORSDOF 6
ENDMDL
MODEL 8
REMARK VINA RESULT:    -6.125      2.334      4.051
REMARK INTER + INTRA:          -9.111
REMARK INTER:                  -9.566
REMARK INTRA:                   0.455
REMARK UNBOUND:                -0.839
REMARK  Name = 
REMARK  8 active torsions:
REMARK  status: ('A' for Active; 'I' for Inactive)
REMARK    1  A    between atoms: C_1  and  C_2
REMARK    2  A    between atoms: C_4  and  C_5
REMARK    3  A    between atoms: C_5  and  C_6
REMARK    4  A    between atoms: C_5  and  C_7
REMARK    5  A    between atoms: C_7  and  N_8
REMARK    6  A    between atoms: C_12  and  C_13
REMARK    7  A    between atoms: C_19  and  O_20
REMARK    8  A    between atoms: O_20  and  C_21
REMARK                            x       y       z     vdW  Elec       q    Type
REMARK                         _______ _______ _______ _____ _____    ______ ____
ROOT
ATOM      1  C   UNL     1      44.578   3.796  11.612  0.00  0.00    +0.000 C 
ATOM      2  C   UNL     1      43.612   3.002  12.501  0.00  0.00    +0.000 C 
ENDROOT
BRANCH   1   6
ATOM      3  C   UNL     1      47.453   4.370  15.779  0.00  0.00    +0.000 C 
ATOM      4  C   UNL     1      46.945   4.857  14.452  0.00  0.00    +0.000 A 
ATOM      5  C   UNL     1      46.038   4.092  13.714  0.00  0.00    +0.000 A 
ATOM      6  C   UNL     1      45.577   4.562  12.476  0.00  0.00    +0.000 A 
ATOM      7  C   UNL     1      46.083   5.785  12.025  0.00  0.00    +0.000 A 
ATOM      8  C   UNL     1      46.983   6.486  12.823  0.00  0.00    +0.000 A 
ATOM      9  N   UNL     1      47.417   6.052  14.020  0.00  0.00    +0.000 NA
BRANCH   8  10
ATOM     10  O   UNL     1      47.427   7.694  12.306  0.00  0.00    +0.000 OA
BRANCH  10  11
ATOM     11  C   UNL     1      47.052   8.836  13.089  0.00  0.00    +0.000 C 
ATOM     12  C   UNL     1      46.388   9.849  12.178  0.00  0.00    +0.000 C 
ATOM     13  C   UNL     1      47.547  10.664  11.648  0.00  0.00    +0.000 C 
ATOM     14  O   UNL     1      48.574  10.640  12.641  0.00  0.00    +0.000 OA
ATOM     15  C   UNL     1      48.277   9.597  13.587  0.00  0.00    +0.000 C 
ENDBRANCH  10  11
ENDBRANCH   8  10
ENDBRANCH   1   6
BRANCH   1  16
ATOM     16  C   UNL     1      43.836   4.711  10.608  0.00  0.00    +0.000 C 
BRANCH  16  17
ATOM     17  N   UNL     1      44.717   5.183   9.528  0.00  0.00    +0.000 N 
ATOM     18  C   UNL     1      45.356   4.129   8.841  0.00  0.00    +0.000 A 
ATOM     19  C   UNL     1      46.265   4.410   7.809  0.00  0.00    +0.000 A 
ATOM     20  N   UNL     1      46.936   3.461   7.097  0.00  0.00    +0.000 NA
ATOM     21  C   UNL     1      46.636   2.184   7.450  0.00  0.00    +0.000 A 
ATOM     22  C   UNL     1      45.728   1.885   8.452  0.00  0.00    +0.000 A 
ATOM     23  N   UNL     1      45.078   2.846   9.158  0.00  0.00    +0.000 NA
ATOM     24  H   UNL     1      45.435   5.817   9.864  0.00  0.00    +0.000 HD
BRANCH  21  25
ATOM     25  C   UNL     1      47.322   1.075   6.733  0.00  0.00    +0.000 C 
ATOM     26  N   UNL     1      48.240   1.448   5.791  0.00  0.00    +0.000 N 
ATOM     27  O   UNL     1      47.085  -0.102   6.974  0.00  0.00    +0.000 OA
ATOM     28  H   UNL     1      48.413   2.429   5.611  0.00  0.00    +0.000 HD
ATOM     29  H   UNL     1      48.735   0.738   5.271  0.00  0.00    +0.000 HD
ENDBRANCH  21  25
ENDBRANCH  16  17
ENDBRANCH   1  16
TORSDOF 6
ENDMDL
MODEL 9
REMARK VINA RESULT:    -6.065      3.399      6.397
REMARK INTER + INTRA:          -9.031
REMARK INTER:                  -8.231
REMARK INTRA:                  -0.799
REMARK UNBOUND:                -0.839
REMARK  Name = 
REMARK  8 active torsions:
REMARK  status: ('A' for Active; 'I' for Inactive)
REMARK    1  A    between atoms: C_1  and  C_2
REMARK    2  A    between atoms: C_4  and  C_5
REMARK    3  A    between atoms: C_5  and  C_6
REMARK    4  A    between atoms: C_5  and  C_7
REMARK    5  A    between atoms: C_7  and  N_8
REMARK    6  A    between atoms: C_12  and  C_13
REMARK    7  A    between atoms: C_19  and  O_20
REMARK    8  A    between atoms: O_20  and  C_21
REMARK                            x       y       z     vdW  Elec       q    Type
REMARK                         _______ _______ _______ _____ _____    ______ ____
ROOT
ATOM      1  C   UNL     1      47.749   3.789  17.481  0.00  0.00    +0.000 C 
ATOM      2  C   UNL     1      47.299   5.082  18.174  0.00  0.00    +0.000 C 
ENDROOT
BRANCH   1   6
ATOM      3  C   UNL     1      52.046   1.053  17.364  0.00  0.00    +0.000 C 
ATOM      4  C   UNL     1      51.317   2.355  17.542  0.00  0.00    +0.000 A 
ATOM      5  C   UNL     1      49.927   2.414  17.420  0.00  0.00    +0.000 A 
ATOM      6  C   UNL     1      49.265   3.638  17.587  0.00  0.00    +0.000 A 
ATOM      7  C   UNL     1      50.054   4.764  17.846  0.00  0.00    +0.000 A 
ATOM      8  C   UNL     1      51.434   4.619  17.955  0.00  0.00    +0.000 A 
ATOM      9  N   UNL     1      52.076   3.445  17.814  0.00  0.00    +0.000 NA
BRANCH   8  10
ATOM     10  O   UNL     1      52.140   5.782  18.223  0.00  0.00    +0.000 OA
BRANCH  10  11
ATOM     11  C   UNL     1      51.889   6.844  17.293  0.00  0.00    +0.000 C 
ATOM     12  C   UNL     1      52.878   6.727  16.149  0.00  0.00    +0.000 C 
ATOM     13  C   UNL     1      54.077   7.511  16.634  0.00  0.00    +0.000 C 
ATOM     14  O   UNL     1      53.595   8.520  17.524  0.00  0.00    +0.000 OA
ATOM     15  C   UNL     1      52.240   8.203  17.891  0.00  0.00    +0.000 C 
ENDBRANCH  10  11
ENDBRANCH   8  10
ENDBRANCH   1   6
BRANCH   1  16
ATOM     16  C   UNL     1      47.243   3.696  16.022  0.00  0.00    +0.000 C 
BRANCH  16  17
ATOM     17  N   UNL     1      47.337   4.983  15.316  0.00  0.00    +0.000 N 
ATOM     18  C   UNL     1      46.729   4.957  14.043  0.00  0.00    +0.000 A 
ATOM     19  C   UNL     1      46.769   6.092  13.219  0.00  0.00    +0.000 A 
ATOM     20  N   UNL     1      46.219   6.158  11.974  0.00  0.00    +0.000 NA
ATOM     21  C   UNL     1      45.590   5.019  11.582  0.00  0.00    +0.000 A 
ATOM     22  C   UNL     1      45.522   3.894  12.387  0.00  0.00    +0.000 A 
ATOM     23  N   UNL     1      46.086   3.846  13.621  0.00  0.00    +0.000 NA
ATOM     24  H   UNL     1      48.297   5.289  15.196  0.00  0.00    +0.000 HD
BRANCH  21  25
ATOM     25  C   UNL     1      44.961   4.990  10.234  0.00  0.00    +0.000 C 
ATOM     26  N   UNL     1      43.594   4.975  10.209  0.00  0.00    +0.000 N 
ATOM     27  O   UNL     1      45.625   4.986   9.205  0.00  0.00    +0.000 OA
ATOM     28  H   UNL     1      43.071   4.976  11.076  0.00  0.00    +0.000 HD
ATOM     29  H   UNL     1      43.113   4.954   9.322  0.00  0.00    +0.000 HD
ENDBRANCH  21  25
ENDBRANCH  16  17
ENDBRANCH   1  16
TORSDOF 6
ENDMDL
