MODEL 1
REMARK VINA RESULT:    -8.557      0.000      0.000
REMARK INTER + INTRA:         -10.750
REMARK INTER:                 -11.059
REMARK INTRA:                   0.309
REMARK UNBOUND:                 0.309
REMARK  Name = 
REMARK  6 active torsions:
REMARK  status: ('A' for Active; 'I' for Inactive)
REMARK    1  A    between atoms: C_1  and  C_2
REMARK    2  A    between atoms: C_2  and  N_3
REMARK    3  A    between atoms: C_2  and  C_16
REMARK    4  A    between atoms: C_4  and  C_6
REMARK    5  A    between atoms: C_19  and  O_20
REMARK    6  A    between atoms: O_20  and  C_21
REMARK                            x       y       z     vdW  Elec       q    Type
REMARK                         _______ _______ _______ _____ _____    ______ ____
ROOT
ATOM      1  C   UNL     1      43.564   3.750  13.274  0.00  0.00    +0.000 C 
ATOM      2  C   UNL     1      44.169   5.044  12.711  0.00  0.00    +0.000 C 
ENDROOT
BRANCH   2   3
ATOM      3  C   UNL     1      44.629   4.809  11.271  0.00  0.00    +0.000 A 
ATOM      4  C   UNL     1      44.162   3.701  10.564  0.00  0.00    +0.000 A 
ATOM      5  C   UNL     1      44.603   3.483   9.261  0.00  0.00    +0.000 A 
ATOM      6  C   UNL     1      45.459   4.405   8.664  0.00  0.00    +0.000 A 
ATOM      7  C   UNL     1      45.910   5.459   9.448  0.00  0.00    +0.000 A 
ATOM      8  N   UNL     1      45.514   5.683  10.727  0.00  0.00    +0.000 NA
BRANCH   6   9
ATOM      9  O   UNL     1      45.922   4.320   7.373  0.00  0.00    +0.000 OA
BRANCH   9  10
ATOM     10  C   UNL     1      46.420   3.126   6.930  0.00  0.00    +0.000 A 
ATOM     11  C   UNL     1      46.638   2.003   7.702  0.00  0.00    +0.000 A 
ATOM     12  N   UNL     1      47.186   0.860   7.234  0.00  0.00    +0.000 NA
ATOM     13  C   UNL     1      47.473   0.850   5.923  0.00  0.00    +0.000 A 
ATOM     14  N   UNL     1      47.244   1.852   5.059  0.00  0.00    +0.000 NA
ATOM     15  C   UNL     1      46.706   2.973   5.591  0.00  0.00    +0.000 A 
ENDBRANCH   9  10
ENDBRANCH   6   9
ENDBRANCH   2   3
BRANCH   2  16
ATOM     16  N   UNL     1      45.286   5.531  13.517  0.00  0.00    +0.000 N 
ATOM     17  C   UNL     1      46.307   4.712  13.935  0.00  0.00    +0.000 C 
ATOM     18  O   UNL     1      46.382   3.530  13.618  0.00  0.00    +0.000 OA
ATOM     19  H   UNL     1      45.088   6.346  14.091  0.00  0.00    +0.000 HD
BRANCH  17  20
ATOM     20  C   UNL     1      47.368   5.356  14.712  0.00  0.00    +0.000 A 
ATOM     21  C   UNL     1      48.101   6.391  14.148  0.00  0.00    +0.000 A 
ATOM     22  S   UNL     1      49.269   7.050  15.202  0.00  0.00    +0.000 S 
ATOM     23  C   UNL     1      48.870   5.939  16.428  0.00  0.00    +0.000 A 
ATOM     24  N   UNL     1      49.536   5.937  17.614  0.00  0.00    +0.000 NA
ATOM     25  C   UNL     1      49.159   5.012  18.434  0.00  0.00    +0.000 A 
ATOM     26  N   UNL     1      48.168   4.097  18.178  0.00  0.00    +0.000 N 
ATOM     27  C   UNL     1      47.429   4.102  17.018  0.00  0.00    +0.000 A 
ATOM     28  O   UNL     1      46.478   3.345  16.855  0.00  0.00    +0.000 OA
ATOM     29  C   UNL     1      47.841   5.097  16.048  0.00  0.00    +0.000 A 
ATOM     30  H   UNL     1      47.906   3.411  18.871  0.00  0.00    +0.000 HD
ENDBRANCH  17  20
ENDBRANCH   2  16
TORSDOF 5
ENDMDL
MODEL 2
REMARK VINA RESULT:    -8.165      3.435      8.424
REMARK INTER + INTRA:         -10.243
REMARK INTER:                  -9.377
REMARK INTRA:                  -0.866
REMARK UNBOUND:                 0.309
REMARK  Name = 
REMARK  6 active torsions:
REMARK  status: ('A' for Active; 'I' for Inactive)
REMARK    1  A    between atoms: C_1  and  C_2
REMARK    2  A    between atoms: C_2  and  N_3
REMARK    3  A    between atoms: C_2  and  C_16
REMARK    4  A    between atoms: C_4  and  C_6
REMARK    5  A    between atoms: C_19  and  O_20
REMARK    6  A    between atoms: O_20  and  C_21
REMARK                            x       y       z     vdW  Elec       q    Type
REMARK                         _______ _______ _______ _____ _____    ______ ____
ROOT
ATOM      1  C   UNL     1      49.338   7.984  12.632  0.00  0.00    +0.000 C 
ATOM      2  C   UNL     1      48.185   7.337  13.414  0.00  0.00    +0.000 C 
ENDROOT
BRANCH   2   3
ATOM      3  C   UNL     1      48.737   6.642  14.659  0.00  0.00    +0.000 A 
ATOM      4  C   UNL     1      49.900   7.120  15.265  0.00  0.00    +0.000 A 
ATOM      5  C   UNL     1      50.408   6.466  16.384  0.00  0.00    +0.000 A 
ATOM      6  C   UNL     1      49.718   5.381  16.916  0.00  0.00    +0.000 A 
ATOM      7  C   UNL     1      48.592   4.941  16.232  0.00  0.00    +0.000 A 
ATOM      8  N   UNL     1      48.087   5.545  15.125  0.00  0.00    +0.000 NA
BRANCH   6   9
ATOM      9  O   UNL     1      50.097   4.688  18.042  0.00  0.00    +0.000 OA
BRANCH   9  10
ATOM     10  C   UNL     1      50.811   3.532  17.893  0.00  0.00    +0.000 A 
ATOM     11  C   UNL     1      50.332   2.345  17.375  0.00  0.00    +0.000 A 
ATOM     12  N   UNL     1      51.058   1.208  17.299  0.00  0.00    +0.000 NA
ATOM     13  C   UNL     1      52.329   1.303  17.719  0.00  0.00    +0.000 A 
ATOM     14  N   UNL     1      52.927   2.415  18.177  0.00  0.00    +0.000 NA
ATOM     15  C   UNL     1      52.144   3.516  18.242  0.00  0.00    +0.000 A 
ENDBRANCH   9  10
ENDBRANCH   6   9
ENDBRANCH   2   3
BRANCH   2  16
ATOM     16  N   UNL     1      47.431   6.384  12.603  0.00  0.00    +0.000 N 
ATOM     17  C   UNL     1      46.345   6.754  11.848  0.00  0.00    +0.000 C 
ATOM     18  O   UNL     1      45.964   7.916  11.758  0.00  0.00    +0.000 OA
ATOM     19  H   UNL     1      47.461   5.419  12.923  0.00  0.00    +0.000 HD
BRANCH  17  20
ATOM     20  C   UNL     1      45.713   5.688  11.068  0.00  0.00    +0.000 A 
ATOM     21  C   UNL     1      45.817   5.697   9.684  0.00  0.00    +0.000 A 
ATOM     22  S   UNL     1      45.057   4.365   8.937  0.00  0.00    +0.000 S 
ATOM     23  C   UNL     1      44.516   3.763  10.434  0.00  0.00    +0.000 A 
ATOM     24  N   UNL     1      43.759   2.635  10.503  0.00  0.00    +0.000 NA
ATOM     25  C   UNL     1      43.383   2.319  11.698  0.00  0.00    +0.000 A 
ATOM     26  N   UNL     1      43.707   3.022  12.831  0.00  0.00    +0.000 N 
ATOM     27  C   UNL     1      44.521   4.132  12.814  0.00  0.00    +0.000 A 
ATOM     28  O   UNL     1      44.885   4.682  13.848  0.00  0.00    +0.000 OA
ATOM     29  C   UNL     1      44.936   4.551  11.490  0.00  0.00    +0.000 A 
ATOM     30  H   UNL     1      43.399   2.710  13.740  0.00  0.00    +0.000 HD
ENDBRANCH  17  20
ENDBRANCH   2  16
TORSDOF 5
ENDMDL
MODEL 3
REMARK VINA RESULT:    -7.987      1.495      2.481
REMARK INTER + INTRA:         -10.013
REMARK INTER:                 -10.334
REMARK INTRA:                   0.321
REMARK UNBOUND:                 0.309
REMARK  Name = 
REMARK  6 active torsions:
REMARK  status: ('A' for Active; 'I' for Inactive)
REMARK    1  A    between atoms: C_1  and  C_2
REMARK    2  A    between atoms: C_2  and  N_3
REMARK    3  A    between atoms: C_2  and  C_16
REMARK    4  A    between atoms: C_4  and  C_6
REMARK    5  A    between atoms: C_19  and  O_20
REMARK    6  A    between atoms: O_20  and  C_21
REMARK                            x       y       z     vdW  Elec       q    Type
REMARK                         _______ _______ _______ _____ _____    ______ ____
ROOT
ATOM      1  C   UNL     1      43.223   4.128  13.286  0.00  0.00    +0.000 C 
ATOM      2  C   UNL     1      44.040   5.304  12.728  0.00  0.00    +0.000 C 
ENDROOT
BRANCH   2   3
ATOM      3  C   UNL     1      44.502   4.977  11.307  0.00  0.00    +0.000 A 
ATOM      4  C   UNL     1      43.939   3.898  10.623  0.00  0.00    +0.000 A 
ATOM      5  C   UNL     1      44.383   3.595   9.339  0.00  0.00    +0.000 A 
ATOM      6  C   UNL     1      45.340   4.405   8.735  0.00  0.00    +0.000 A 
ATOM      7  C   UNL     1      45.880   5.433   9.496  0.00  0.00    +0.000 A 
ATOM      8  N   UNL     1      45.483   5.738  10.758  0.00  0.00    +0.000 NA
BRANCH   6   9
ATOM      9  O   UNL     1      45.819   4.231   7.457  0.00  0.00    +0.000 OA
BRANCH   9  10
ATOM     10  C   UNL     1      46.348   3.019   7.113  0.00  0.00    +0.000 A 
ATOM     11  C   UNL     1      46.987   2.722   5.925  0.00  0.00    +0.000 A 
ATOM     12  N   UNL     1      47.446   1.492   5.603  0.00  0.00    +0.000 NA
ATOM     13  C   UNL     1      47.292   0.551   6.547  0.00  0.00    +0.000 A 
ATOM     14  N   UNL     1      46.753   0.734   7.763  0.00  0.00    +0.000 NA
ATOM     15  C   UNL     1      46.300   1.982   8.020  0.00  0.00    +0.000 A 
ENDBRANCH   9  10
ENDBRANCH   6   9
ENDBRANCH   2   3
BRANCH   2  16
ATOM     16  N   UNL     1      45.193   5.625  13.566  0.00  0.00    +0.000 N 
ATOM     17  C   UNL     1      46.157   4.700  13.880  0.00  0.00    +0.000 C 
ATOM     18  O   UNL     1      46.149   3.556  13.440  0.00  0.00    +0.000 OA
ATOM     19  H   UNL     1      45.055   6.387  14.225  0.00  0.00    +0.000 HD
BRANCH  17  20
ATOM     20  C   UNL     1      47.265   5.184  14.707  0.00  0.00    +0.000 A 
ATOM     21  C   UNL     1      47.458   4.652  15.975  0.00  0.00    +0.000 A 
ATOM     22  S   UNL     1      48.813   5.299  16.784  0.00  0.00    +0.000 S 
ATOM     23  C   UNL     1      49.154   6.350  15.489  0.00  0.00    +0.000 A 
ATOM     24  N   UNL     1      50.195   7.223  15.552  0.00  0.00    +0.000 NA
ATOM     25  C   UNL     1      50.310   7.989  14.517  0.00  0.00    +0.000 A 
ATOM     26  N   UNL     1      49.485   7.951  13.421  0.00  0.00    +0.000 N 
ATOM     27  C   UNL     1      48.460   7.042  13.290  0.00  0.00    +0.000 A 
ATOM     28  O   UNL     1      47.804   6.954  12.258  0.00  0.00    +0.000 OA
ATOM     29  C   UNL     1      48.264   6.187  14.443  0.00  0.00    +0.000 A 
ATOM     30  H   UNL     1      49.641   8.564  12.635  0.00  0.00    +0.000 HD
ENDBRANCH  17  20
ENDBRANCH   2  16
TORSDOF 5
ENDMDL
MODEL 4
REMARK VINA RESULT:    -7.952      3.735     10.125
REMARK INTER + INTRA:          -9.968
REMARK INTER:                  -8.869
REMARK INTRA:                  -1.099
REMARK UNBOUND:                 0.309
REMARK  Name = 
REMARK  6 active torsions:
REMARK  status: ('A' for Active; 'I' for Inactive)
REMARK    1  A    between atoms: C_1  and  C_2
REMARK    2  A    between atoms: C_2  and  N_3
REMARK    3  A    between atoms: C_2  and  C_16
REMARK    4  A    between atoms: C_4  and  C_6
REMARK    5  A    between atoms: C_19  and  O_20
REMARK    6  A    between atoms: O_20  and  C_21
REMARK                            x       y       z     vdW  Elec       q    Type
REMARK                         _______ _______ _______ _____ _____    ______ ____
ROOT
ATOM      1  C   UNL     1      47.725   3.077  16.790  0.00  0.00    +0.000 C 
ATOM      2  C   UNL     1      48.030   4.460  16.194  0.00  0.00    +0.000 C 
ENDROOT
BRANCH   2   3
ATOM      3  C   UNL     1      48.110   5.494  17.318  0.00  0.00    +0.000 A 
ATOM      4  C   UNL     1      47.276   5.379  18.431  0.00  0.00    +0.000 A 
ATOM      5  C   UNL     1      47.340   6.338  19.438  0.00  0.00    +0.000 A 
ATOM      6  C   UNL     1      48.274   7.366  19.347  0.00  0.00    +0.000 A 
ATOM      7  C   UNL     1      49.038   7.435  18.190  0.00  0.00    +0.000 A 
ATOM      8  N   UNL     1      48.981   6.526  17.182  0.00  0.00    +0.000 NA
BRANCH   6   9
ATOM      9  O   UNL     1      48.460   8.341  20.299  0.00  0.00    +0.000 OA
BRANCH   9  10
ATOM     10  C   UNL     1      47.420   9.177  20.596  0.00  0.00    +0.000 A 
ATOM     11  C   UNL     1      46.816  10.061  19.724  0.00  0.00    +0.000 A 
ATOM     12  N   UNL     1      45.827  10.911  20.076  0.00  0.00    +0.000 NA
ATOM     13  C   UNL     1      45.408  10.817  21.347  0.00  0.00    +0.000 A 
ATOM     14  N   UNL     1      45.867   9.953  22.267  0.00  0.00    +0.000 NA
ATOM     15  C   UNL     1      46.866   9.138  21.857  0.00  0.00    +0.000 A 
ENDBRANCH   9  10
ENDBRANCH   6   9
ENDBRANCH   2   3
BRANCH   2  16
ATOM     16  N   UNL     1      47.034   4.871  15.208  0.00  0.00    +0.000 N 
ATOM     17  C   UNL     1      47.368   5.537  14.055  0.00  0.00    +0.000 C 
ATOM     18  O   UNL     1      48.528   5.788  13.746  0.00  0.00    +0.000 OA
ATOM     19  H   UNL     1      46.097   5.024  15.571  0.00  0.00    +0.000 HD
BRANCH  17  20
ATOM     20  C   UNL     1      46.259   5.856  13.153  0.00  0.00    +0.000 A 
ATOM     21  C   UNL     1      45.970   7.182  12.864  0.00  0.00    +0.000 A 
ATOM     22  S   UNL     1      44.675   7.372  11.769  0.00  0.00    +0.000 S 
ATOM     23  C   UNL     1      44.424   5.691  11.688  0.00  0.00    +0.000 A 
ATOM     24  N   UNL     1      43.421   5.168  10.933  0.00  0.00    +0.000 NA
ATOM     25  C   UNL     1      43.319   3.882  11.000  0.00  0.00    +0.000 A 
ATOM     26  N   UNL     1      44.138   3.071  11.745  0.00  0.00    +0.000 N 
ATOM     27  C   UNL     1      45.203   3.551  12.473  0.00  0.00    +0.000 A 
ATOM     28  O   UNL     1      45.986   2.800  13.044  0.00  0.00    +0.000 OA
ATOM     29  C   UNL     1      45.334   4.994  12.463  0.00  0.00    +0.000 A 
ATOM     30  H   UNL     1      44.019   2.068  11.738  0.00  0.00    +0.000 HD
ENDBRANCH  17  20
ENDBRANCH   2  16
TORSDOF 5
ENDMDL
MODEL 5
REMARK VINA RESULT:    -7.899      3.695      6.352
REMARK INTER + INTRA:          -9.899
REMARK INTER:                  -8.731
REMARK INTRA:                  -1.167
REMARK UNBOUND:                 0.309
REMARK  Name = 
REMARK  6 active torsions:
REMARK  status: ('A' for Active; 'I' for Inactive)
REMARK    1  A    between atoms: C_1  and  C_2
REMARK    2  A    between atoms: C_2  and  N_3
REMARK    3  A    between atoms: C_2  and  C_16
REMARK    4  A    between atoms: C_4  and  C_6
REMARK    5  A    between atoms: C_19  and  O_20
REMARK    6  A    between atoms: O_20  and  C_21
REMARK                            x       y       z     vdW  Elec       q    Type
REMARK                         _______ _______ _______ _____ _____    ______ ____
ROOT
ATOM      1  C   UNL     1      48.084   6.629  18.401  0.00  0.00    +0.000 C 
ATOM      2  C   UNL     1      49.039   6.242  17.262  0.00  0.00    +0.000 C 
ENDROOT
BRANCH   2   3
ATOM      3  C   UNL     1      48.243   5.610  16.120  0.00  0.00    +0.000 A 
ATOM      4  C   UNL     1      48.167   6.254  14.884  0.00  0.00    +0.000 A 
ATOM      5  C   UNL     1      47.421   5.681  13.858  0.00  0.00    +0.000 A 
ATOM      6  C   UNL     1      46.809   4.447  14.061  0.00  0.00    +0.000 A 
ATOM      7  C   UNL     1      46.898   3.891  15.330  0.00  0.00    +0.000 A 
ATOM      8  N   UNL     1      47.600   4.438  16.356  0.00  0.00    +0.000 NA
BRANCH   6   9
ATOM      9  O   UNL     1      46.088   3.766  13.109  0.00  0.00    +0.000 OA
BRANCH   9  10
ATOM     10  C   UNL     1      44.945   4.332  12.619  0.00  0.00    +0.000 A 
ATOM     11  C   UNL     1      43.794   4.586  13.338  0.00  0.00    +0.000 A 
ATOM     12  N   UNL     1      42.665   5.097  12.798  0.00  0.00    +0.000 NA
ATOM     13  C   UNL     1      42.734   5.405  11.495  0.00  0.00    +0.000 A 
ATOM     14  N   UNL     1      43.815   5.270  10.709  0.00  0.00    +0.000 NA
ATOM     15  C   UNL     1      44.908   4.741  11.303  0.00  0.00    +0.000 A 
ENDBRANCH   9  10
ENDBRANCH   6   9
ENDBRANCH   2   3
BRANCH   2  16
ATOM     16  N   UNL     1      50.089   5.328  17.705  0.00  0.00    +0.000 N 
ATOM     17  C   UNL     1      51.368   5.377  17.207  0.00  0.00    +0.000 C 
ATOM     18  O   UNL     1      51.734   6.222  16.398  0.00  0.00    +0.000 OA
ATOM     19  H   UNL     1      49.767   4.429  18.055  0.00  0.00    +0.000 HD
BRANCH  17  20
ATOM     20  C   UNL     1      52.314   4.412  17.771  0.00  0.00    +0.000 A 
ATOM     21  C   UNL     1      53.479   4.865  18.374  0.00  0.00    +0.000 A 
ATOM     22  S   UNL     1      54.447   3.613  19.010  0.00  0.00    +0.000 S 
ATOM     23  C   UNL     1      53.368   2.420  18.453  0.00  0.00    +0.000 A 
ATOM     24  N   UNL     1      53.626   1.099  18.644  0.00  0.00    +0.000 NA
ATOM     25  C   UNL     1      52.744   0.305  18.131  0.00  0.00    +0.000 A 
ATOM     26  N   UNL     1      51.622   0.716  17.455  0.00  0.00    +0.000 N 
ATOM     27  C   UNL     1      51.291   2.042  17.294  0.00  0.00    +0.000 A 
ATOM     28  O   UNL     1      50.231   2.385  16.782  0.00  0.00    +0.000 OA
ATOM     29  C   UNL     1      52.271   2.973  17.817  0.00  0.00    +0.000 A 
ATOM     30  H   UNL     1      50.959   0.044  17.096  0.00  0.00    +0.000 HD
ENDBRANCH  17  20
ENDBRANCH   2  16
TORSDOF 5
ENDMDL
MODEL 6
REMARK VINA RESULT:    -7.791      2.204      3.307
REMARK INTER + INTRA:          -9.760
REMARK INTER:                  -8.828
REMARK INTRA:                  -0.931
REMARK UNBOUND:                 0.309
REMARK  Name = 
REMARK  6 active torsions:
REMARK  status: ('A' for Active; 'I' for Inactive)
REMARK    1  A    between atoms: C_1  and  C_2
REMARK    2  A    between atoms: C_2  and  N_3
REMARK    3  A    between atoms: C_2  and  C_16
REMARK    4  A    between atoms: C_4  and  C_6
REMARK    5  A    between atoms: C_19  and  O_20
REMARK    6  A    between atoms: O_20  and  C_21
REMARK                            x       y       z     vdW  Elec       q    Type
REMARK                         _______ _______ _______ _____ _____    ______ ____
ROOT
ATOM      1  C   UNL     1      46.893   9.264  13.688  0.00  0.00    +0.000 C 
ATOM      2  C   UNL     1      47.475   7.857  13.481  0.00  0.00    +0.000 C 
ENDROOT
BRANCH   2   3
ATOM      3  C   UNL     1      46.510   7.024  12.636  0.00  0.00    +0.000 A 
ATOM      4  C   UNL     1      45.463   7.649  11.956  0.00  0.00    +0.000 A 
ATOM      5  C   UNL     1      44.576   6.879  11.207  0.00  0.00    +0.000 A 
ATOM      6  C   UNL     1      44.780   5.506  11.102  0.00  0.00    +0.000 A 
ATOM      7  C   UNL     1      45.819   4.956  11.841  0.00  0.00    +0.000 A 
ATOM      8  N   UNL     1      46.685   5.679  12.597  0.00  0.00    +0.000 NA
BRANCH   6   9
ATOM      9  O   UNL     1      43.999   4.655  10.357  0.00  0.00    +0.000 OA
BRANCH   9  10
ATOM     10  C   UNL     1      44.612   3.776   9.507  0.00  0.00    +0.000 A 
ATOM     11  C   UNL     1      44.605   2.400   9.620  0.00  0.00    +0.000 A 
ATOM     12  N   UNL     1      45.273   1.572   8.788  0.00  0.00    +0.000 NA
ATOM     13  C   UNL     1      45.925   2.167   7.778  0.00  0.00    +0.000 A 
ATOM     14  N   UNL     1      45.949   3.485   7.523  0.00  0.00    +0.000 NA
ATOM     15  C   UNL     1      45.273   4.263   8.400  0.00  0.00    +0.000 A 
ENDBRANCH   9  10
ENDBRANCH   6   9
ENDBRANCH   2   3
BRANCH   2  16
ATOM     16  N   UNL     1      47.746   7.177  14.744  0.00  0.00    +0.000 N 
ATOM     17  C   UNL     1      49.007   6.776  15.111  0.00  0.00    +0.000 C 
ATOM     18  O   UNL     1      50.001   7.006  14.430  0.00  0.00    +0.000 OA
ATOM     19  H   UNL     1      46.966   6.654  15.135  0.00  0.00    +0.000 HD
BRANCH  17  20
ATOM     20  C   UNL     1      49.121   6.131  16.421  0.00  0.00    +0.000 A 
ATOM     21  C   UNL     1      49.959   6.677  17.383  0.00  0.00    +0.000 A 
ATOM     22  S   UNL     1      49.943   5.825  18.861  0.00  0.00    +0.000 S 
ATOM     23  C   UNL     1      48.857   4.668  18.246  0.00  0.00    +0.000 A 
ATOM     24  N   UNL     1      48.448   3.617  19.006  0.00  0.00    +0.000 NA
ATOM     25  C   UNL     1      47.660   2.795  18.397  0.00  0.00    +0.000 A 
ATOM     26  N   UNL     1      47.234   2.935  17.100  0.00  0.00    +0.000 N 
ATOM     27  C   UNL     1      47.573   4.014  16.316  0.00  0.00    +0.000 A 
ATOM     28  O   UNL     1      47.096   4.175  15.198  0.00  0.00    +0.000 OA
ATOM     29  C   UNL     1      48.490   4.946  16.941  0.00  0.00    +0.000 A 
ATOM     30  H   UNL     1      46.599   2.267  16.688  0.00  0.00    +0.000 HD
ENDBRANCH  17  20
ENDBRANCH   2  16
TORSDOF 5
ENDMDL
MODEL 7
REMARK VINA RESULT:    -7.713      3.006      3.852
REMARK INTER + INTRA:          -9.659
REMARK INTER:                  -8.767
REMARK INTRA:                  -0.892
REMARK UNBOUND:                 0.309
REMARK  Name = 
REMARK  6 active torsions:
REMARK  status: ('A' for Active; 'I' for Inactive)
REMARK    1  A    between atoms: C_1  and  C_2
REMARK    2  A    between atoms: C_2  and  N_3
REMARK    3  A    between atoms: C_2  and  C_16
REMARK    4  A    between atoms: C_4  and  C_6
REMARK    5  A    between atoms: C_19  and  O_20
REMARK    6  A    between atoms: O_20  and  C_21
REMARK                            x       y       z     vdW  Elec       q    Type
REMARK                         _______ _______ _______ _____ _____    ______ ____
ROOT
ATOM      1  C   UNL     1      46.328   4.915  14.197  0.00  0.00    +0.000 C 
ATOM      2  C   UNL     1      45.964   5.920  13.095  0.00  0.00    +0.000 C 
ENDROOT
BRANCH   2   3
ATOM      3  C   UNL     1      45.617   5.167  11.810  0.00  0.00    +0.000 A 
ATOM      4  C   UNL     1      45.048   3.895  11.880  0.00  0.00    +0.000 A 
ATOM      5  C   UNL     1      44.757   3.208  10.705  0.00  0.00    +0.000 A 
ATOM      6  C   UNL     1      44.985   3.823   9.477  0.00  0.00    +0.000 A 
ATOM      7  C   UNL     1      45.591   5.072   9.491  0.00  0.00    +0.000 A 
ATOM      8  N   UNL     1      45.906   5.756  10.621  0.00  0.00    +0.000 NA
BRANCH   6   9
ATOM      9  O   UNL     1      44.694   3.262   8.256  0.00  0.00    +0.000 OA
BRANCH   9  10
ATOM     10  C   UNL     1      45.712   2.723   7.521  0.00  0.00    +0.000 A 
ATOM     11  C   UNL     1      46.259   3.265   6.374  0.00  0.00    +0.000 A 
ATOM     12  N   UNL     1      47.228   2.669   5.646  0.00  0.00    +0.000 NA
ATOM     13  C   UNL     1      47.688   1.507   6.135  0.00  0.00    +0.000 A 
ATOM     14  N   UNL     1      47.287   0.917   7.272  0.00  0.00    +0.000 NA
ATOM     15  C   UNL     1      46.305   1.555   7.949  0.00  0.00    +0.000 A 
ENDBRANCH   9  10
ENDBRANCH   6   9
ENDBRANCH   2   3
BRANCH   2  16
ATOM     16  N   UNL     1      47.039   6.876  12.838  0.00  0.00    +0.000 N 
ATOM     17  C   UNL     1      46.865   8.232  12.959  0.00  0.00    +0.000 C 
ATOM     18  O   UNL     1      45.814   8.736  13.340  0.00  0.00    +0.000 OA
ATOM     19  H   UNL     1      47.758   6.561  12.193  0.00  0.00    +0.000 HD
BRANCH  17  20
ATOM     20  C   UNL     1      48.046   9.057  12.695  0.00  0.00    +0.000 A 
ATOM     21  C   UNL     1      47.912  10.235  11.972  0.00  0.00    +0.000 A 
ATOM     22  S   UNL     1      49.377  11.090  11.789  0.00  0.00    +0.000 S 
ATOM     23  C   UNL     1      50.247   9.888  12.624  0.00  0.00    +0.000 A 
ATOM     24  N   UNL     1      51.592   9.989  12.796  0.00  0.00    +0.000 NA
ATOM     25  C   UNL     1      52.128   8.985  13.408  0.00  0.00    +0.000 A 
ATOM     26  N   UNL     1      51.437   7.895  13.874  0.00  0.00    +0.000 N 
ATOM     27  C   UNL     1      50.069   7.781  13.776  0.00  0.00    +0.000 A 
ATOM     28  O   UNL     1      49.460   6.850  14.294  0.00  0.00    +0.000 OA
ATOM     29  C   UNL     1      49.425   8.864  13.060  0.00  0.00    +0.000 A 
ATOM     30  H   UNL     1      51.912   7.151  14.364  0.00  0.00    +0.000 HD
ENDBRANCH  17  20
ENDBRANCH   2  16
TORSDOF 5
ENDMDL
MODEL 8
REMARK VINA RESULT:    -7.662      2.918      4.633
REMARK INTER + INTRA:          -9.593
REMARK INTER:                  -8.592
REMARK INTRA:                  -1.000
REMARK UNBOUND:                 0.309
REMARK  Name = 
REMARK  6 active torsions:
REMARK  status: ('A' for Active; 'I' for Inactive)
REMARK    1  A    between atoms: C_1  and  C_2
REMARK    2  A    between atoms: C_2  and  N_3
REMARK    3  A    between atoms: C_2  and  C_16
REMARK    4  A    between atoms: C_4  and  C_6
REMARK    5  A    between atoms: C_19  and  O_20
REMARK    6  A    between atoms: O_20  and  C_21
REMARK                            x       y       z     vdW  Elec       q    Type
REMARK                         _______ _______ _______ _____ _____    ______ ____
ROOT
ATOM      1  C   UNL     1      48.988   8.389  14.267  0.00  0.00    +0.000 C 
ATOM      2  C   UNL     1      48.740   6.904  14.569  0.00  0.00    +0.000 C 
ENDROOT
BRANCH   2   3
ATOM      3  C   UNL     1      47.568   6.400  13.725  0.00  0.00    +0.000 A 
ATOM      4  C   UNL     1      46.764   7.309  13.036  0.00  0.00    +0.000 A 
ATOM      5  C   UNL     1      45.687   6.841  12.289  0.00  0.00    +0.000 A 
ATOM      6  C   UNL     1      45.461   5.471  12.194  0.00  0.00    +0.000 A 
ATOM      7  C   UNL     1      46.279   4.635  12.942  0.00  0.00    +0.000 A 
ATOM      8  N   UNL     1      47.323   5.065  13.697  0.00  0.00    +0.000 NA
BRANCH   6   9
ATOM      9  O   UNL     1      44.459   4.893  11.451  0.00  0.00    +0.000 OA
BRANCH   9  10
ATOM     10  C   UNL     1      44.778   4.320  10.251  0.00  0.00    +0.000 A 
ATOM     11  C   UNL     1      45.461   4.931   9.218  0.00  0.00    +0.000 A 
ATOM     12  N   UNL     1      45.705   4.345   8.025  0.00  0.00    +0.000 NA
ATOM     13  C   UNL     1      45.282   3.078   7.905  0.00  0.00    +0.000 A 
ATOM     14  N   UNL     1      44.671   2.357   8.859  0.00  0.00    +0.000 NA
ATOM     15  C   UNL     1      44.443   3.003  10.025  0.00  0.00    +0.000 A 
ENDBRANCH   9  10
ENDBRANCH   6   9
ENDBRANCH   2   3
BRANCH   2  16
ATOM     16  N   UNL     1      48.474   6.663  15.985  0.00  0.00    +0.000 N 
ATOM     17  C   UNL     1      49.399   6.087  16.821  0.00  0.00    +0.000 C 
ATOM     18  O   UNL     1      50.528   5.782  16.454  0.00  0.00    +0.000 OA
ATOM     19  H   UNL     1      47.495   6.546  16.233  0.00  0.00    +0.000 HD
BRANCH  17  20
ATOM     20  C   UNL     1      48.993   5.938  18.221  0.00  0.00    +0.000 A 
ATOM     21  C   UNL     1      49.154   4.714  18.855  0.00  0.00    +0.000 A 
ATOM     22  S   UNL     1      48.667   4.725  20.490  0.00  0.00    +0.000 S 
ATOM     23  C   UNL     1      48.175   6.352  20.389  0.00  0.00    +0.000 A 
ATOM     24  N   UNL     1      47.622   6.983  21.459  0.00  0.00    +0.000 NA
ATOM     25  C   UNL     1      47.255   8.201  21.226  0.00  0.00    +0.000 A 
ATOM     26  N   UNL     1      47.404   8.846  20.025  0.00  0.00    +0.000 N 
ATOM     27  C   UNL     1      48.014   8.266  18.936  0.00  0.00    +0.000 A 
ATOM     28  O   UNL     1      48.233   8.896  17.907  0.00  0.00    +0.000 OA
ATOM     29  C   UNL     1      48.407   6.885  19.134  0.00  0.00    +0.000 A 
ATOM     30  H   UNL     1      47.115   9.807  19.914  0.00  0.00    +0.000 HD
ENDBRANCH  17  20
ENDBRANCH   2  16
TORSDOF 5
ENDMDL
MODEL 9
REMARK VINA RESULT:    -7.549      3.193      4.590
REMARK INTER + INTRA:          -9.447
REMARK INTER:                  -8.384
REMARK INTRA:                  -1.063
REMARK UNBOUND:                 0.309
REMARK  Name = 
REMARK  6 active torsions:
REMARK  status: ('A' for Active; 'I' for Inactive)
REMARK    1  A    between atoms: C_1  and  C_2
REMARK    2  A    between atoms: C_2  and  N_3
REMARK    3  A    between atoms: C_2  and  C_16
REMARK    4  A    between atoms: C_4  and  C_6
REMARK    5  A    between atoms: C_19  and  O_20
REMARK    6  A    between atoms: O_20  and  C_21
REMARK                            x       y       z     vdW  Elec       q    Type
REMARK                         _______ _______ _______ _____ _____    ______ ____
ROOT
ATOM      1  C   UNL     1      47.414   4.135  15.878  0.00  0.00    +0.000 C 
ATOM      2  C   UNL     1      47.178   5.373  15.001  0.00  0.00    +0.000 C 
ENDROOT
BRANCH   2   3
ATOM      3  C   UNL     1      46.387   4.974  13.754  0.00  0.00    +0.000 A 
ATOM      4  C   UNL     1      45.940   5.956  12.869  0.00  0.00    +0.000 A 
ATOM      5  C   UNL     1      45.201   5.585  11.750  0.00  0.00    +0.000 A 
ATOM      6  C   UNL     1      44.967   4.236  11.499  0.00  0.00    +0.000 A 
ATOM      7  C   UNL     1      45.410   3.324  12.447  0.00  0.00    +0.000 A 
ATOM      8  N   UNL     1      46.113   3.659  13.559  0.00  0.00    +0.000 NA
BRANCH   6   9
ATOM      9  O   UNL     1      44.293   3.749  10.404  0.00  0.00    +0.000 OA
BRANCH   9  10
ATOM     10  C   UNL     1      45.013   3.329   9.321  0.00  0.00    +0.000 A 
ATOM     11  C   UNL     1      45.379   2.026   9.047  0.00  0.00    +0.000 A 
ATOM     12  N   UNL     1      46.141   1.662   7.993  0.00  0.00    +0.000 NA
ATOM     13  C   UNL     1      46.498   2.656   7.165  0.00  0.00    +0.000 A 
ATOM     14  N   UNL     1      46.148   3.947   7.287  0.00  0.00    +0.000 NA
ATOM     15  C   UNL     1      45.396   4.250   8.369  0.00  0.00    +0.000 A 
ENDBRANCH   9  10
ENDBRANCH   6   9
ENDBRANCH   2   3
BRANCH   2  16
ATOM     16  N   UNL     1      48.427   6.023  14.611  0.00  0.00    +0.000 N 
ATOM     17  C   UNL     1      49.016   7.004  15.370  0.00  0.00    +0.000 C 
ATOM     18  O   UNL     1      48.566   7.368  16.452  0.00  0.00    +0.000 OA
ATOM     19  H   UNL     1      48.620   6.037  13.613  0.00  0.00    +0.000 HD
BRANCH  17  20
ATOM     20  C   UNL     1      50.281   7.538  14.860  0.00  0.00    +0.000 A 
ATOM     21  C   UNL     1      51.424   7.462  15.645  0.00  0.00    +0.000 A 
ATOM     22  S   UNL     1      52.813   8.095  14.884  0.00  0.00    +0.000 S 
ATOM     23  C   UNL     1      51.923   8.540  13.504  0.00  0.00    +0.000 A 
ATOM     24  N   UNL     1      52.521   9.175  12.460  0.00  0.00    +0.000 NA
ATOM     25  C   UNL     1      51.717   9.493  11.500  0.00  0.00    +0.000 A 
ATOM     26  N   UNL     1      50.371   9.222  11.485  0.00  0.00    +0.000 N 
ATOM     27  C   UNL     1      49.739   8.528  12.490  0.00  0.00    +0.000 A 
ATOM     28  O   UNL     1      48.559   8.203  12.407  0.00  0.00    +0.000 OA
ATOM     29  C   UNL     1      50.591   8.184  13.611  0.00  0.00    +0.000 A 
ATOM     30  H   UNL     1      49.800   9.479  10.693  0.00  0.00    +0.000 HD
ENDBRANCH  17  20
ENDBRANCH   2  16
TORSDOF 5
ENDMDL
