MODEL 1
REMARK VINA RESULT:    -8.760      0.000      0.000
REMARK INTER + INTRA:         -13.319
REMARK INTER:                 -12.345
REMARK INTRA:                  -0.974
REMARK UNBOUND:                -0.974
REMARK  Name = 
REMARK  8 active torsions:
REMARK  status: ('A' for Active; 'I' for Inactive)
REMARK    1  A    between atoms: C_1  and  C_2
REMARK    2  A    between atoms: C_2  and  O_3
REMARK    3  A    between atoms: O_3  and  C_4
REMARK    4  A    between atoms: C_6  and  C_7
REMARK    5  A    between atoms: C_7  and  C_8
REMARK    6  A    between atoms: C_8  and  N_9
REMARK    7  A    between atoms: C_13  and  C_14
REMARK    8  A    between atoms: C_20  and  C_21
REMARK                            x       y       z     vdW  Elec       q    Type
REMARK                         _______ _______ _______ _____ _____    ______ ____
ROOT
ATOM      1  C   UNL     1      46.673   4.635  13.853  0.00  0.00    +0.000 A 
ATOM      2  C   UNL     1      45.342   4.534  13.450  0.00  0.00    +0.000 A 
ATOM      3  C   UNL     1      44.773   5.521  12.638  0.00  0.00    +0.000 A 
ATOM      4  C   UNL     1      45.560   6.612  12.234  0.00  0.00    +0.000 A 
ATOM      5  C   UNL     1      46.900   6.758  12.640  0.00  0.00    +0.000 A 
ATOM      6  C   UNL     1      47.436   5.738  13.446  0.00  0.00    +0.000 A 
ENDROOT
BRANCH   5   7
ATOM      7  C   UNL     1      47.693   7.952  12.254  0.00  0.00    +0.000 A 
ATOM      8  C   UNL     1      49.042   7.855  11.861  0.00  0.00    +0.000 A 
ATOM      9  C   UNL     1      49.780   8.983  11.485  0.00  0.00    +0.000 A 
ATOM     10  C   UNL     1      49.182  10.241  11.483  0.00  0.00    +0.000 A 
ATOM     11  C   UNL     1      47.854  10.363  11.873  0.00  0.00    +0.000 A 
ATOM     12 CL   UNL     1      47.100  11.910  11.868  0.00  0.00    +0.000 Cl
ATOM     13  C   UNL     1      47.122   9.239  12.267  0.00  0.00    +0.000 A 
ENDBRANCH   5   7
BRANCH   1  14
ATOM     14  O   UNL     1      47.337   3.741  14.651  0.00  0.00    +0.000 OA
BRANCH  14  16
ATOM     15  C   UNL     1      48.058   2.900  16.768  0.00  0.00    +0.000 C 
ATOM     16  C   UNL     1      47.468   4.087  16.030  0.00  0.00    +0.000 C 
ENDBRANCH  14  16
ENDBRANCH   1  14
BRANCH   3  17
ATOM     17  C   UNL     1      43.304   5.473  12.280  0.00  0.00    +0.000 C 
BRANCH  17  18
ATOM     18  C   UNL     1      43.091   4.622  11.025  0.00  0.00    +0.000 C 
BRANCH  18  19
ATOM     19  N   UNL     1      43.908   5.105   9.906  0.00  0.00    +0.000 N 
ATOM     20  C   UNL     1      44.655   4.071   9.305  0.00  0.00    +0.000 A 
ATOM     21  C   UNL     1      45.484   4.376   8.230  0.00  0.00    +0.000 A 
ATOM     22  C   UNL     1      46.229   3.356   7.626  0.00  0.00    +0.000 A 
ATOM     23  C   UNL     1      46.132   2.050   8.106  0.00  0.00    +0.000 A 
ATOM     24  C   UNL     1      45.270   1.835   9.165  0.00  0.00    +0.000 A 
ATOM     25  N   UNL     1      44.541   2.807   9.761  0.00  0.00    +0.000 NA
ATOM     26  H   UNL     1      44.545   5.846  10.179  0.00  0.00    +0.000 HD
BRANCH  23  27
ATOM     27  C   UNL     1      46.939   0.974   7.480  0.00  0.00    +0.000 C 
ATOM     28  N   UNL     1      47.879   1.308   6.543  0.00  0.00    +0.000 N 
ATOM     29  O   UNL     1      46.767  -0.201   7.783  0.00  0.00    +0.000 OA
ATOM     30  H   UNL     1      48.099   2.236   6.220  0.00  0.00    +0.000 HD
ATOM     31  H   UNL     1      48.400   0.541   6.136  0.00  0.00    +0.000 HD
ENDBRANCH  23  27
ENDBRANCH  18  19
ENDBRANCH  17  18
ENDBRANCH   3  17
TORSDOF 7
ENDMDL
MODEL 2
REMARK VINA RESULT:    -8.681      1.581      1.998
REMARK INTER + INTRA:         -13.208
REMARK INTER:                 -12.097
REMARK INTRA:                  -1.111
REMARK UNBOUND:                -0.974
REMARK  Name = 
REMARK  8 active torsions:
REMARK  status: ('A' for Active; 'I' for Inactive)
REMARK    1  A    between atoms: C_1  and  C_2
REMARK    2  A    between atoms: C_2  and  O_3
REMARK    3  A    between atoms: O_3  and  C_4
REMARK    4  A    between atoms: C_6  and  C_7
REMARK    5  A    between atoms: C_7  and  C_8
REMARK    6  A    between atoms: C_8  and  N_9
REMARK    7  A    between atoms: C_13  and  C_14
REMARK    8  A    between atoms: C_20  and  C_21
REMARK                            x       y       z     vdW  Elec       q    Type
REMARK                         _______ _______ _______ _____ _____    ______ ____
ROOT
ATOM      1  C   UNL     1      46.701   4.608  13.939  0.00  0.00    +0.000 A 
ATOM      2  C   UNL     1      45.410   4.554  13.416  0.00  0.00    +0.000 A 
ATOM      3  C   UNL     1      44.990   5.498  12.473  0.00  0.00    +0.000 A 
ATOM      4  C   UNL     1      45.885   6.499  12.061  0.00  0.00    +0.000 A 
ATOM      5  C   UNL     1      47.188   6.598  12.584  0.00  0.00    +0.000 A 
ATOM      6  C   UNL     1      47.574   5.622  13.521  0.00  0.00    +0.000 A 
ENDROOT
BRANCH   5   7
ATOM      7  C   UNL     1      48.095   7.702  12.181  0.00  0.00    +0.000 A 
ATOM      8  C   UNL     1      47.661   9.040  12.126  0.00  0.00    +0.000 A 
ATOM      9  C   UNL     1      48.525  10.078  11.757  0.00  0.00    +0.000 A 
ATOM     10  C   UNL     1      49.854   9.802  11.444  0.00  0.00    +0.000 A 
ATOM     11  C   UNL     1      50.304   8.488  11.486  0.00  0.00    +0.000 A 
ATOM     12 CL   UNL     1      51.946   8.135  11.109  0.00  0.00    +0.000 Cl
ATOM     13  C   UNL     1      49.437   7.451  11.835  0.00  0.00    +0.000 A 
ENDBRANCH   5   7
BRANCH   1  14
ATOM     14  O   UNL     1      47.224   3.751  14.871  0.00  0.00    +0.000 OA
BRANCH  14  16
ATOM     15  C   UNL     1      47.551   3.137  17.157  0.00  0.00    +0.000 C 
ATOM     16  C   UNL     1      47.471   4.288  16.170  0.00  0.00    +0.000 C 
ENDBRANCH  14  16
ENDBRANCH   1  14
BRANCH   3  17
ATOM     17  C   UNL     1      43.561   5.508  11.977  0.00  0.00    +0.000 C 
BRANCH  17  18
ATOM     18  C   UNL     1      43.499   5.008  10.531  0.00  0.00    +0.000 C 
BRANCH  18  19
ATOM     19  N   UNL     1      43.858   3.588  10.439  0.00  0.00    +0.000 N 
ATOM     20  C   UNL     1      44.745   3.330   9.374  0.00  0.00    +0.000 A 
ATOM     21  C   UNL     1      45.173   2.024   9.155  0.00  0.00    +0.000 A 
ATOM     22  C   UNL     1      46.055   1.758   8.102  0.00  0.00    +0.000 A 
ATOM     23  C   UNL     1      46.495   2.800   7.285  0.00  0.00    +0.000 A 
ATOM     24  C   UNL     1      46.033   4.068   7.587  0.00  0.00    +0.000 A 
ATOM     25  N   UNL     1      45.181   4.345   8.602  0.00  0.00    +0.000 NA
ATOM     26  H   UNL     1      43.046   2.986  10.335  0.00  0.00    +0.000 HD
BRANCH  23  27
ATOM     27  C   UNL     1      47.411   2.514   6.155  0.00  0.00    +0.000 C 
ATOM     28  N   UNL     1      48.763   2.573   6.364  0.00  0.00    +0.000 N 
ATOM     29  O   UNL     1      46.976   2.236   5.044  0.00  0.00    +0.000 OA
ATOM     30  H   UNL     1      49.225   2.793   7.231  0.00  0.00    +0.000 HD
ATOM     31  H   UNL     1      49.351   2.379   5.563  0.00  0.00    +0.000 HD
ENDBRANCH  23  27
ENDBRANCH  18  19
ENDBRANCH  17  18
ENDBRANCH   3  17
TORSDOF 7
ENDMDL
MODEL 3
REMARK VINA RESULT:    -7.706      2.241      2.879
REMARK INTER + INTRA:         -11.833
REMARK INTER:                 -10.704
REMARK INTRA:                  -1.129
REMARK UNBOUND:                -0.974
REMARK  Name = 
REMARK  8 active torsions:
REMARK  status: ('A' for Active; 'I' for Inactive)
REMARK    1  A    between atoms: C_1  and  C_2
REMARK    2  A    between atoms: C_2  and  O_3
REMARK    3  A    between atoms: O_3  and  C_4
REMARK    4  A    between atoms: C_6  and  C_7
REMARK    5  A    between atoms: C_7  and  C_8
REMARK    6  A    between atoms: C_8  and  N_9
REMARK    7  A    between atoms: C_13  and  C_14
REMARK    8  A    between atoms: C_20  and  C_21
REMARK                            x       y       z     vdW  Elec       q    Type
REMARK                         _______ _______ _______ _____ _____    ______ ____
ROOT
ATOM      1  C   UNL     1      47.136   6.116  13.424  0.00  0.00    +0.000 A 
ATOM      2  C   UNL     1      46.191   5.092  13.382  0.00  0.00    +0.000 A 
ATOM      3  C   UNL     1      44.939   5.311  12.799  0.00  0.00    +0.000 A 
ATOM      4  C   UNL     1      44.647   6.573  12.255  0.00  0.00    +0.000 A 
ATOM      5  C   UNL     1      45.569   7.636  12.300  0.00  0.00    +0.000 A 
ATOM      6  C   UNL     1      46.820   7.371  12.884  0.00  0.00    +0.000 A 
ENDROOT
BRANCH   5   7
ATOM      7  C   UNL     1      45.216   8.980  11.776  0.00  0.00    +0.000 A 
ATOM      8  C   UNL     1      46.033  10.105  12.001  0.00  0.00    +0.000 A 
ATOM      9  C   UNL     1      45.701  11.367  11.493  0.00  0.00    +0.000 A 
ATOM     10  C   UNL     1      44.544  11.532  10.736  0.00  0.00    +0.000 A 
ATOM     11  C   UNL     1      43.719  10.438  10.507  0.00  0.00    +0.000 A 
ATOM     12 CL   UNL     1      42.290  10.628   9.566  0.00  0.00    +0.000 Cl
ATOM     13  C   UNL     1      44.040   9.183  11.029  0.00  0.00    +0.000 A 
ENDBRANCH   5   7
BRANCH   1  14
ATOM     14  O   UNL     1      48.388   6.027  13.974  0.00  0.00    +0.000 OA
BRANCH  14  16
ATOM     15  C   UNL     1      49.009   7.442  15.796  0.00  0.00    +0.000 C 
ATOM     16  C   UNL     1      48.468   6.082  15.398  0.00  0.00    +0.000 C 
ENDBRANCH  14  16
ENDBRANCH   1  14
BRANCH   3  17
ATOM     17  C   UNL     1      43.871   4.239  12.839  0.00  0.00    +0.000 C 
BRANCH  17  18
ATOM     18  C   UNL     1      43.328   3.978  11.432  0.00  0.00    +0.000 C 
BRANCH  18  19
ATOM     19  N   UNL     1      43.740   2.661  10.934  0.00  0.00    +0.000 N 
ATOM     20  C   UNL     1      44.592   2.755   9.814  0.00  0.00    +0.000 A 
ATOM     21  C   UNL     1      45.063   1.586   9.226  0.00  0.00    +0.000 A 
ATOM     22  C   UNL     1      45.910   1.670   8.115  0.00  0.00    +0.000 A 
ATOM     23  C   UNL     1      46.273   2.919   7.612  0.00  0.00    +0.000 A 
ATOM     24  C   UNL     1      45.774   4.027   8.271  0.00  0.00    +0.000 A 
ATOM     25  N   UNL     1      44.955   3.967   9.347  0.00  0.00    +0.000 NA
ATOM     26  H   UNL     1      42.949   2.072  10.688  0.00  0.00    +0.000 HD
BRANCH  23  27
ATOM     27  C   UNL     1      47.153   3.006   6.422  0.00  0.00    +0.000 C 
ATOM     28  N   UNL     1      48.442   2.556   6.514  0.00  0.00    +0.000 N 
ATOM     29  O   UNL     1      46.745   3.481   5.368  0.00  0.00    +0.000 OA
ATOM     30  H   UNL     1      48.879   2.153   7.327  0.00  0.00    +0.000 HD
ATOM     31  H   UNL     1      49.010   2.643   5.679  0.00  0.00    +0.000 HD
ENDBRANCH  23  27
ENDBRANCH  18  19
ENDBRANCH  17  18
ENDBRANCH   3  17
TORSDOF 7
ENDMDL
MODEL 4
REMARK VINA RESULT:    -7.105      4.176      7.957
REMARK INTER + INTRA:         -10.986
REMARK INTER:                  -9.798
REMARK INTRA:                  -1.188
REMARK UNBOUND:                -0.974
REMARK  Name = 
REMARK  8 active torsions:
REMARK  status: ('A' for Active; 'I' for Inactive)
REMARK    1  A    between atoms: C_1  and  C_2
REMARK    2  A    between atoms: C_2  and  O_3
REMARK    3  A    between atoms: O_3  and  C_4
REMARK    4  A    between atoms: C_6  and  C_7
REMARK    5  A    between atoms: C_7  and  C_8
REMARK    6  A    between atoms: C_8  and  N_9
REMARK    7  A    between atoms: C_13  and  C_14
REMARK    8  A    between atoms: C_20  and  C_21
REMARK                            x       y       z     vdW  Elec       q    Type
REMARK                         _______ _______ _______ _____ _____    ______ ____
ROOT
ATOM      1  C   UNL     1      44.765   9.581  11.591  0.00  0.00    +0.000 A 
ATOM      2  C   UNL     1      46.077   9.787  12.014  0.00  0.00    +0.000 A 
ATOM      3  C   UNL     1      46.902   8.697  12.311  0.00  0.00    +0.000 A 
ATOM      4  C   UNL     1      46.392   7.395  12.176  0.00  0.00    +0.000 A 
ATOM      5  C   UNL     1      45.065   7.150  11.773  0.00  0.00    +0.000 A 
ATOM      6  C   UNL     1      44.273   8.273  11.473  0.00  0.00    +0.000 A 
ENDROOT
BRANCH   5   7
ATOM      7  C   UNL     1      44.528   5.768  11.699  0.00  0.00    +0.000 A 
ATOM      8  C   UNL     1      43.764   5.209  12.741  0.00  0.00    +0.000 A 
ATOM      9  C   UNL     1      43.249   3.909  12.659  0.00  0.00    +0.000 A 
ATOM     10  C   UNL     1      43.479   3.138  11.523  0.00  0.00    +0.000 A 
ATOM     11  C   UNL     1      44.236   3.666  10.484  0.00  0.00    +0.000 A 
ATOM     12 CL   UNL     1      44.521   2.726   9.070  0.00  0.00    +0.000 Cl
ATOM     13  C   UNL     1      44.766   4.955  10.574  0.00  0.00    +0.000 A 
ENDBRANCH   5   7
BRANCH   1  14
ATOM     14  O   UNL     1      43.860  10.562  11.281  0.00  0.00    +0.000 OA
BRANCH  14  16
ATOM     15  C   UNL     1      43.537  10.807   8.926  0.00  0.00    +0.000 C 
ATOM     16  C   UNL     1      42.946  10.282  10.221  0.00  0.00    +0.000 C 
ENDBRANCH  14  16
ENDBRANCH   1  14
BRANCH   3  17
ATOM     17  C   UNL     1      48.292   8.911  12.867  0.00  0.00    +0.000 C 
BRANCH  17  18
ATOM     18  C   UNL     1      48.970   7.565  13.134  0.00  0.00    +0.000 C 
BRANCH  18  19
ATOM     19  N   UNL     1      49.626   7.545  14.446  0.00  0.00    +0.000 N 
ATOM     20  C   UNL     1      49.122   6.526  15.280  0.00  0.00    +0.000 A 
ATOM     21  C   UNL     1      49.643   6.385  16.562  0.00  0.00    +0.000 A 
ATOM     22  C   UNL     1      49.151   5.375  17.396  0.00  0.00    +0.000 A 
ATOM     23  C   UNL     1      48.147   4.523  16.936  0.00  0.00    +0.000 A 
ATOM     24  C   UNL     1      47.701   4.723  15.642  0.00  0.00    +0.000 A 
ATOM     25  N   UNL     1      48.167   5.693  14.820  0.00  0.00    +0.000 NA
ATOM     26  H   UNL     1      49.545   8.431  14.936  0.00  0.00    +0.000 HD
BRANCH  23  27
ATOM     27  C   UNL     1      47.610   3.467  17.828  0.00  0.00    +0.000 C 
ATOM     28  N   UNL     1      48.264   3.189  18.997  0.00  0.00    +0.000 N 
ATOM     29  O   UNL     1      46.600   2.840  17.528  0.00  0.00    +0.000 OA
ATOM     30  H   UNL     1      49.099   3.639  19.338  0.00  0.00    +0.000 HD
ATOM     31  H   UNL     1      47.867   2.456  19.572  0.00  0.00    +0.000 HD
ENDBRANCH  23  27
ENDBRANCH  18  19
ENDBRANCH  17  18
ENDBRANCH   3  17
TORSDOF 7
ENDMDL
MODEL 5
REMARK VINA RESULT:    -7.041      2.800      4.183
REMARK INTER + INTRA:         -10.897
REMARK INTER:                  -9.954
REMARK INTRA:                  -0.943
REMARK UNBOUND:                -0.974
REMARK  Name = 
REMARK  8 active torsions:
REMARK  status: ('A' for Active; 'I' for Inactive)
REMARK    1  A    between atoms: C_1  and  C_2
REMARK    2  A    between atoms: C_2  and  O_3
REMARK    3  A    between atoms: O_3  and  C_4
REMARK    4  A    between atoms: C_6  and  C_7
REMARK    5  A    between atoms: C_7  and  C_8
REMARK    6  A    between atoms: C_8  and  N_9
REMARK    7  A    between atoms: C_13  and  C_14
REMARK    8  A    between atoms: C_20  and  C_21
REMARK                            x       y       z     vdW  Elec       q    Type
REMARK                         _______ _______ _______ _____ _____    ______ ____
ROOT
ATOM      1  C   UNL     1      44.961   8.931  11.665  0.00  0.00    +0.000 A 
ATOM      2  C   UNL     1      44.339   7.692  11.804  0.00  0.00    +0.000 A 
ATOM      3  C   UNL     1      45.065   6.585  12.257  0.00  0.00    +0.000 A 
ATOM      4  C   UNL     1      46.425   6.739  12.570  0.00  0.00    +0.000 A 
ATOM      5  C   UNL     1      47.091   7.971  12.421  0.00  0.00    +0.000 A 
ATOM      6  C   UNL     1      46.323   9.060  11.974  0.00  0.00    +0.000 A 
ENDROOT
BRANCH   5   7
ATOM      7  C   UNL     1      48.545   8.096  12.698  0.00  0.00    +0.000 A 
ATOM      8  C   UNL     1      49.431   8.679  11.772  0.00  0.00    +0.000 A 
ATOM      9  C   UNL     1      50.799   8.805  12.045  0.00  0.00    +0.000 A 
ATOM     10  C   UNL     1      51.313   8.360  13.260  0.00  0.00    +0.000 A 
ATOM     11  C   UNL     1      50.458   7.776  14.187  0.00  0.00    +0.000 A 
ATOM     12 CL   UNL     1      51.079   7.228  15.696  0.00  0.00    +0.000 Cl
ATOM     13  C   UNL     1      49.097   7.632  13.907  0.00  0.00    +0.000 A 
ENDBRANCH   5   7
BRANCH   1  14
ATOM     14  O   UNL     1      44.362  10.082  11.224  0.00  0.00    +0.000 OA
BRANCH  14  16
ATOM     15  C   UNL     1      43.247  10.673   9.196  0.00  0.00    +0.000 C 
ATOM     16  C   UNL     1      43.132   9.934  10.516  0.00  0.00    +0.000 C 
ENDBRANCH  14  16
ENDBRANCH   1  14
BRANCH   3  17
ATOM     17  C   UNL     1      44.426   5.215  12.313  0.00  0.00    +0.000 C 
BRANCH  17  18
ATOM     18  C   UNL     1      43.786   4.872  10.965  0.00  0.00    +0.000 C 
BRANCH  18  19
ATOM     19  N   UNL     1      43.974   3.457  10.627  0.00  0.00    +0.000 N 
ATOM     20  C   UNL     1      44.832   3.282   9.521  0.00  0.00    +0.000 A 
ATOM     21  C   UNL     1      45.104   1.992   9.077  0.00  0.00    +0.000 A 
ATOM     22  C   UNL     1      45.955   1.808   7.981  0.00  0.00    +0.000 A 
ATOM     23  C   UNL     1      46.522   2.915   7.350  0.00  0.00    +0.000 A 
ATOM     24  C   UNL     1      46.212   4.158   7.870  0.00  0.00    +0.000 A 
ATOM     25  N   UNL     1      45.392   4.356   8.929  0.00  0.00    +0.000 NA
ATOM     26  H   UNL     1      43.098   2.982  10.432  0.00  0.00    +0.000 HD
BRANCH  23  27
ATOM     27  C   UNL     1      47.406   2.721   6.175  0.00  0.00    +0.000 C 
ATOM     28  N   UNL     1      48.730   2.439   6.379  0.00  0.00    +0.000 N 
ATOM     29  O   UNL     1      46.970   2.818   5.034  0.00  0.00    +0.000 OA
ATOM     30  H   UNL     1      49.190   2.340   7.269  0.00  0.00    +0.000 HD
ATOM     31  H   UNL     1      49.298   2.323   5.549  0.00  0.00    +0.000 HD
ENDBRANCH  23  27
ENDBRANCH  18  19
ENDBRANCH  17  18
ENDBRANCH   3  17
TORSDOF 7
ENDMDL
MODEL 6
REMARK VINA RESULT:    -6.962      2.832      4.208
REMARK INTER + INTRA:         -10.785
REMARK INTER:                  -9.802
REMARK INTRA:                  -0.982
REMARK UNBOUND:                -0.974
REMARK  Name = 
REMARK  8 active torsions:
REMARK  status: ('A' for Active; 'I' for Inactive)
REMARK    1  A    between atoms: C_1  and  C_2
REMARK    2  A    between atoms: C_2  and  O_3
REMARK    3  A    between atoms: O_3  and  C_4
REMARK    4  A    between atoms: C_6  and  C_7
REMARK    5  A    between atoms: C_7  and  C_8
REMARK    6  A    between atoms: C_8  and  N_9
REMARK    7  A    between atoms: C_13  and  C_14
REMARK    8  A    between atoms: C_20  and  C_21
REMARK                            x       y       z     vdW  Elec       q    Type
REMARK                         _______ _______ _______ _____ _____    ______ ____
ROOT
ATOM      1  C   UNL     1      45.191   9.493  12.173  0.00  0.00    +0.000 A 
ATOM      2  C   UNL     1      44.717   8.185  12.271  0.00  0.00    +0.000 A 
ATOM      3  C   UNL     1      45.612   7.109  12.277  0.00  0.00    +0.000 A 
ATOM      4  C   UNL     1      46.990   7.364  12.183  0.00  0.00    +0.000 A 
ATOM      5  C   UNL     1      47.501   8.670  12.059  0.00  0.00    +0.000 A 
ATOM      6  C   UNL     1      46.570   9.723  12.070  0.00  0.00    +0.000 A 
ENDROOT
BRANCH   5   7
ATOM      7  C   UNL     1      48.958   8.911  11.897  0.00  0.00    +0.000 A 
ATOM      8  C   UNL     1      49.580  10.071  12.398  0.00  0.00    +0.000 A 
ATOM      9  C   UNL     1      50.956  10.286  12.252  0.00  0.00    +0.000 A 
ATOM     10  C   UNL     1      51.747   9.338  11.609  0.00  0.00    +0.000 A 
ATOM     11  C   UNL     1      51.154   8.189  11.101  0.00  0.00    +0.000 A 
ATOM     12 CL   UNL     1      52.122   7.005  10.310  0.00  0.00    +0.000 Cl
ATOM     13  C   UNL     1      49.778   7.983  11.229  0.00  0.00    +0.000 A 
ENDBRANCH   5   7
BRANCH   1  14
ATOM     14  O   UNL     1      44.417  10.623  12.148  0.00  0.00    +0.000 OA
BRANCH  14  16
ATOM     15  C   UNL     1      43.959  10.717   9.805  0.00  0.00    +0.000 C 
ATOM     16  C   UNL     1      43.355  10.653  11.195  0.00  0.00    +0.000 C 
ENDBRANCH  14  16
ENDBRANCH   1  14
BRANCH   3  17
ATOM     17  C   UNL     1      45.104   5.684  12.281  0.00  0.00    +0.000 C 
BRANCH  17  18
ATOM     18  C   UNL     1      44.332   5.393  10.991  0.00  0.00    +0.000 C 
BRANCH  18  19
ATOM     19  N   UNL     1      44.311   3.957  10.691  0.00  0.00    +0.000 N 
ATOM     20  C   UNL     1      45.053   3.642   9.535  0.00  0.00    +0.000 A 
ATOM     21  C   UNL     1      45.123   2.316   9.119  0.00  0.00    +0.000 A 
ATOM     22  C   UNL     1      45.858   1.993   7.973  0.00  0.00    +0.000 A 
ATOM     23  C   UNL     1      46.513   2.999   7.263  0.00  0.00    +0.000 A 
ATOM     24  C   UNL     1      46.405   4.285   7.758  0.00  0.00    +0.000 A 
ATOM     25  N   UNL     1      45.700   4.617   8.866  0.00  0.00    +0.000 NA
ATOM     26  H   UNL     1      43.368   3.596  10.577  0.00  0.00    +0.000 HD
BRANCH  23  27
ATOM     27  C   UNL     1      47.274   2.659   6.036  0.00  0.00    +0.000 C 
ATOM     28  N   UNL     1      48.628   2.484   6.121  0.00  0.00    +0.000 N 
ATOM     29  O   UNL     1      46.709   2.544   4.955  0.00  0.00    +0.000 OA
ATOM     30  H   UNL     1      49.190   2.557   6.954  0.00  0.00    +0.000 HD
ATOM     31  H   UNL     1      49.108   2.261   5.258  0.00  0.00    +0.000 HD
ENDBRANCH  23  27
ENDBRANCH  18  19
ENDBRANCH  17  18
ENDBRANCH   3  17
TORSDOF 7
ENDMDL
MODEL 7
REMARK VINA RESULT:    -6.478      4.131      7.095
REMARK INTER + INTRA:         -10.103
REMARK INTER:                  -8.898
REMARK INTRA:                  -1.205
REMARK UNBOUND:                -0.974
REMARK  Name = 
REMARK  8 active torsions:
REMARK  status: ('A' for Active; 'I' for Inactive)
REMARK    1  A    between atoms: C_1  and  C_2
REMARK    2  A    between atoms: C_2  and  O_3
REMARK    3  A    between atoms: O_3  and  C_4
REMARK    4  A    between atoms: C_6  and  C_7
REMARK    5  A    between atoms: C_7  and  C_8
REMARK    6  A    between atoms: C_8  and  N_9
REMARK    7  A    between atoms: C_13  and  C_14
REMARK    8  A    between atoms: C_20  and  C_21
REMARK                            x       y       z     vdW  Elec       q    Type
REMARK                         _______ _______ _______ _____ _____    ______ ____
ROOT
ATOM      1  C   UNL     1      48.374   6.419  14.457  0.00  0.00    +0.000 A 
ATOM      2  C   UNL     1      48.826   7.574  13.821  0.00  0.00    +0.000 A 
ATOM      3  C   UNL     1      48.173   8.053  12.681  0.00  0.00    +0.000 A 
ATOM      4  C   UNL     1      47.058   7.358  12.187  0.00  0.00    +0.000 A 
ATOM      5  C   UNL     1      46.587   6.176  12.790  0.00  0.00    +0.000 A 
ATOM      6  C   UNL     1      47.265   5.734  13.940  0.00  0.00    +0.000 A 
ENDROOT
BRANCH   5   7
ATOM      7  C   UNL     1      45.445   5.421  12.213  0.00  0.00    +0.000 A 
ATOM      8  C   UNL     1      44.332   5.047  12.990  0.00  0.00    +0.000 A 
ATOM      9  C   UNL     1      43.253   4.347  12.437  0.00  0.00    +0.000 A 
ATOM     10  C   UNL     1      43.257   4.013  11.085  0.00  0.00    +0.000 A 
ATOM     11  C   UNL     1      44.347   4.366  10.300  0.00  0.00    +0.000 A 
ATOM     12 CL   UNL     1      44.361   3.965   8.626  0.00  0.00    +0.000 Cl
ATOM     13  C   UNL     1      45.433   5.047  10.856  0.00  0.00    +0.000 A 
ENDBRANCH   5   7
BRANCH   1  14
ATOM     14  O   UNL     1      48.932   5.847  15.570  0.00  0.00    +0.000 OA
BRANCH  14  16
ATOM     15  C   UNL     1      48.754   3.905  16.950  0.00  0.00    +0.000 C 
ATOM     16  C   UNL     1      48.047   5.150  16.446  0.00  0.00    +0.000 C 
ENDBRANCH  14  16
ENDBRANCH   1  14
BRANCH   3  17
ATOM     17  C   UNL     1      48.716   9.246  11.926  0.00  0.00    +0.000 C 
BRANCH  17  18
ATOM     18  C   UNL     1      47.999  10.525  12.367  0.00  0.00    +0.000 C 
BRANCH  18  19
ATOM     19  N   UNL     1      47.460  11.262  11.218  0.00  0.00    +0.000 N 
ATOM     20  C   UNL     1      46.066  11.100  11.087  0.00  0.00    +0.000 A 
ATOM     21  C   UNL     1      45.410  11.736  10.037  0.00  0.00    +0.000 A 
ATOM     22  C   UNL     1      44.026  11.583   9.899  0.00  0.00    +0.000 A 
ATOM     23  C   UNL     1      43.320  10.799  10.812  0.00  0.00    +0.000 A 
ATOM     24  C   UNL     1      44.050  10.220  11.834  0.00  0.00    +0.000 A 
ATOM     25  N   UNL     1      45.388  10.357  11.985  0.00  0.00    +0.000 NA
ATOM     26  H   UNL     1      47.899  10.994  10.343  0.00  0.00    +0.000 HD
BRANCH  23  27
ATOM     27  C   UNL     1      41.857  10.619  10.652  0.00  0.00    +0.000 C 
ATOM     28  N   UNL     1      41.271   9.478  11.128  0.00  0.00    +0.000 N 
ATOM     29  O   UNL     1      41.174  11.471  10.094  0.00  0.00    +0.000 OA
ATOM     30  H   UNL     1      41.736   8.717  11.597  0.00  0.00    +0.000 HD
ATOM     31  H   UNL     1      40.272   9.393  10.989  0.00  0.00    +0.000 HD
ENDBRANCH  23  27
ENDBRANCH  18  19
ENDBRANCH  17  18
ENDBRANCH   3  17
TORSDOF 7
ENDMDL
MODEL 8
REMARK VINA RESULT:    -6.065      4.437      7.681
REMARK INTER + INTRA:          -9.522
REMARK INTER:                  -8.592
REMARK INTRA:                  -0.930
REMARK UNBOUND:                -0.974
REMARK  Name = 
REMARK  8 active torsions:
REMARK  status: ('A' for Active; 'I' for Inactive)
REMARK    1  A    between atoms: C_1  and  C_2
REMARK    2  A    between atoms: C_2  and  O_3
REMARK    3  A    between atoms: O_3  and  C_4
REMARK    4  A    between atoms: C_6  and  C_7
REMARK    5  A    between atoms: C_7  and  C_8
REMARK    6  A    between atoms: C_8  and  N_9
REMARK    7  A    between atoms: C_13  and  C_14
REMARK    8  A    between atoms: C_20  and  C_21
REMARK                            x       y       z     vdW  Elec       q    Type
REMARK                         _______ _______ _______ _____ _____    ______ ____
ROOT
ATOM      1  C   UNL     1      44.528   5.648  11.528  0.00  0.00    +0.000 A 
ATOM      2  C   UNL     1      45.784   5.358  12.059  0.00  0.00    +0.000 A 
ATOM      3  C   UNL     1      46.659   6.393  12.406  0.00  0.00    +0.000 A 
ATOM      4  C   UNL     1      46.255   7.725  12.214  0.00  0.00    +0.000 A 
ATOM      5  C   UNL     1      45.004   8.053  11.658  0.00  0.00    +0.000 A 
ATOM      6  C   UNL     1      44.150   6.984  11.334  0.00  0.00    +0.000 A 
ENDROOT
BRANCH   5   7
ATOM      7  C   UNL     1      44.624   9.466  11.405  0.00  0.00    +0.000 A 
ATOM      8  C   UNL     1      45.434  10.541  11.818  0.00  0.00    +0.000 A 
ATOM      9  C   UNL     1      45.076  11.870  11.564  0.00  0.00    +0.000 A 
ATOM     10  C   UNL     1      43.898  12.157  10.878  0.00  0.00    +0.000 A 
ATOM     11  C   UNL     1      43.079  11.113  10.466  0.00  0.00    +0.000 A 
ATOM     12 CL   UNL     1      41.625  11.454   9.610  0.00  0.00    +0.000 Cl
ATOM     13  C   UNL     1      43.427   9.788  10.736  0.00  0.00    +0.000 A 
ENDBRANCH   5   7
BRANCH   1  14
ATOM     14  O   UNL     1      43.591   4.726  11.142  0.00  0.00    +0.000 OA
BRANCH  14  16
ATOM     15  C   UNL     1      44.404   4.070   8.993  0.00  0.00    +0.000 C 
ATOM     16  C   UNL     1      44.063   3.604  10.397  0.00  0.00    +0.000 C 
ENDBRANCH  14  16
ENDBRANCH   1  14
BRANCH   3  17
ATOM     17  C   UNL     1      48.060   6.089  12.887  0.00  0.00    +0.000 C 
BRANCH  17  18
ATOM     18  C   UNL     1      48.290   6.700  14.273  0.00  0.00    +0.000 C 
BRANCH  18  19
ATOM     19  N   UNL     1      47.696   5.871  15.329  0.00  0.00    +0.000 N 
ATOM     20  C   UNL     1      48.629   5.537  16.332  0.00  0.00    +0.000 A 
ATOM     21  C   UNL     1      48.215   4.748  17.401  0.00  0.00    +0.000 A 
ATOM     22  C   UNL     1      49.132   4.412  18.402  0.00  0.00    +0.000 A 
ATOM     23  C   UNL     1      50.448   4.870  18.320  0.00  0.00    +0.000 A 
ATOM     24  C   UNL     1      50.767   5.663  17.234  0.00  0.00    +0.000 A 
ATOM     25  N   UNL     1      49.893   6.000  16.256  0.00  0.00    +0.000 NA
ATOM     26  H   UNL     1      47.289   5.014  14.969  0.00  0.00    +0.000 HD
BRANCH  23  27
ATOM     27  C   UNL     1      51.425   4.494  19.370  0.00  0.00    +0.000 C 
ATOM     28  N   UNL     1      51.005   4.409  20.669  0.00  0.00    +0.000 N 
ATOM     29  O   UNL     1      52.597   4.271  19.090  0.00  0.00    +0.000 OA
ATOM     30  H   UNL     1      50.070   4.573  21.008  0.00  0.00    +0.000 HD
ATOM     31  H   UNL     1      51.707   4.158  21.354  0.00  0.00    +0.000 HD
ENDBRANCH  23  27
ENDBRANCH  18  19
ENDBRANCH  17  18
ENDBRANCH   3  17
TORSDOF 7
ENDMDL
MODEL 9
REMARK VINA RESULT:    -5.856      5.707      8.781
REMARK INTER + INTRA:          -9.227
REMARK INTER:                  -8.401
REMARK INTRA:                  -0.825
REMARK UNBOUND:                -0.974
REMARK  Name = 
REMARK  8 active torsions:
REMARK  status: ('A' for Active; 'I' for Inactive)
REMARK    1  A    between atoms: C_1  and  C_2
REMARK    2  A    between atoms: C_2  and  O_3
REMARK    3  A    between atoms: O_3  and  C_4
REMARK    4  A    between atoms: C_6  and  C_7
REMARK    5  A    between atoms: C_7  and  C_8
REMARK    6  A    between atoms: C_8  and  N_9
REMARK    7  A    between atoms: C_13  and  C_14
REMARK    8  A    between atoms: C_20  and  C_21
REMARK                            x       y       z     vdW  Elec       q    Type
REMARK                         _______ _______ _______ _____ _____    ______ ____
ROOT
ATOM      1  C   UNL     1      46.850   8.268  12.998  0.00  0.00    +0.000 A 
ATOM      2  C   UNL     1      46.206   9.335  12.372  0.00  0.00    +0.000 A 
ATOM      3  C   UNL     1      45.078   9.110  11.576  0.00  0.00    +0.000 A 
ATOM      4  C   UNL     1      44.603   7.798  11.417  0.00  0.00    +0.000 A 
ATOM      5  C   UNL     1      45.241   6.695  12.015  0.00  0.00    +0.000 A 
ATOM      6  C   UNL     1      46.364   6.966  12.817  0.00  0.00    +0.000 A 
ENDROOT
BRANCH   5   7
ATOM      7  C   UNL     1      44.759   5.310  11.782  0.00  0.00    +0.000 A 
ATOM      8  C   UNL     1      44.040   4.596  12.760  0.00  0.00    +0.000 A 
ATOM      9  C   UNL     1      43.577   3.295  12.529  0.00  0.00    +0.000 A 
ATOM     10  C   UNL     1      43.814   2.678  11.303  0.00  0.00    +0.000 A 
ATOM     11  C   UNL     1      44.527   3.359  10.324  0.00  0.00    +0.000 A 
ATOM     12 CL   UNL     1      44.820   2.610   8.802  0.00  0.00    +0.000 Cl
ATOM     13  C   UNL     1      45.006   4.650  10.562  0.00  0.00    +0.000 A 
ENDBRANCH   5   7
BRANCH   1  14
ATOM     14  O   UNL     1      47.963   8.360  13.790  0.00  0.00    +0.000 OA
BRANCH  14  16
ATOM     15  C   UNL     1      50.326   8.012  13.720  0.00  0.00    +0.000 C 
ATOM     16  C   UNL     1      48.962   7.356  13.612  0.00  0.00    +0.000 C 
ENDBRANCH  14  16
ENDBRANCH   1  14
BRANCH   3  17
ATOM     17  C   UNL     1      44.435  10.246  10.812  0.00  0.00    +0.000 C 
BRANCH  17  18
ATOM     18  C   UNL     1      43.147  10.692  11.510  0.00  0.00    +0.000 C 
BRANCH  18  19
ATOM     19  N   UNL     1      41.957  10.207  10.802  0.00  0.00    +0.000 N 
ATOM     20  C   UNL     1      40.761  10.656  11.399  0.00  0.00    +0.000 A 
ATOM     21  C   UNL     1      39.545  10.272  10.842  0.00  0.00    +0.000 A 
ATOM     22  C   UNL     1      38.352  10.714  11.426  0.00  0.00    +0.000 A 
ATOM     23  C   UNL     1      38.394  11.531  12.555  0.00  0.00    +0.000 A 
ATOM     24  C   UNL     1      39.645  11.878  13.030  0.00  0.00    +0.000 A 
ATOM     25  N   UNL     1      40.810  11.462  12.478  0.00  0.00    +0.000 NA
ATOM     26  H   UNL     1      41.926   9.194  10.741  0.00  0.00    +0.000 HD
BRANCH  23  27
ATOM     27  C   UNL     1      37.130  11.980  13.187  0.00  0.00    +0.000 C 
ATOM     28  N   UNL     1      37.182  12.904  14.195  0.00  0.00    +0.000 N 
ATOM     29  O   UNL     1      36.049  11.529  12.826  0.00  0.00    +0.000 OA
ATOM     30  H   UNL     1      38.011  13.336  14.569  0.00  0.00    +0.000 HD
ATOM     31  H   UNL     1      36.295  13.175  14.603  0.00  0.00    +0.000 HD
ENDBRANCH  23  27
ENDBRANCH  18  19
ENDBRANCH  17  18
ENDBRANCH   3  17
TORSDOF 7
ENDMDL
