MODEL 1
REMARK VINA RESULT:    -7.718      0.000      0.000
REMARK INTER + INTRA:         -10.744
REMARK INTER:                  -9.973
REMARK INTRA:                  -0.770
REMARK UNBOUND:                -0.770
REMARK  Name = 
REMARK  6 active torsions:
REMARK  status: ('A' for Active; 'I' for Inactive)
REMARK    1  A    between atoms: C_1  and  O_2
REMARK    2  A    between atoms: O_2  and  C_3
REMARK    3  A    between atoms: C_7  and  O_8
REMARK    4  A    between atoms: O_8  and  C_9
REMARK    5  A    between atoms: C_9  and  C_10
REMARK    6  A    between atoms: C_14  and  C_15
REMARK                            x       y       z     vdW  Elec       q    Type
REMARK                         _______ _______ _______ _____ _____    ______ ____
ROOT
ATOM      1  C   UNL     1      45.042   4.997  12.024  0.00  0.00    +0.000 A 
ATOM      2  C   UNL     1      45.211   4.085  13.062  0.00  0.00    +0.000 A 
ATOM      3  N   UNL     1      46.269   4.056  13.910  0.00  0.00    +0.000 NA
ATOM      4  C   UNL     1      47.216   4.999  13.720  0.00  0.00    +0.000 A 
ATOM      5  C   UNL     1      47.184   5.959  12.711  0.00  0.00    +0.000 A 
ATOM      6  C   UNL     1      46.089   5.904  11.844  0.00  0.00    +0.000 A 
ENDROOT
BRANCH   5   7
ATOM      7  C   UNL     1      48.264   7.020  12.612  0.00  0.00    +0.000 C 
ATOM      8  C   UNL     1      48.870   7.403  13.975  0.00  0.00    +0.000 C 
ATOM      9  C   UNL     1      48.065   8.449  14.749  0.00  0.00    +0.000 C 
ATOM     10  N   UNL     1      47.712   9.613  13.939  0.00  0.00    +0.000 NA
ATOM     11  C   UNL     1      47.023   9.256  12.699  0.00  0.00    +0.000 C 
ATOM     12  C   UNL     1      47.825   8.275  11.846  0.00  0.00    +0.000 C 
ATOM     13  H   UNL     1      48.563  10.123  13.709  0.00  0.00    +0.000 HD
ENDBRANCH   5   7
BRANCH   1  14
ATOM     14  C   UNL     1      43.800   5.068  11.178  0.00  0.00    +0.000 C 
ATOM     15  C   UNL     1      42.486   5.422  11.870  0.00  0.00    +0.000 C 
ATOM     16  O   UNL     1      43.160   6.352  11.034  0.00  0.00    +0.000 OA
BRANCH  14  17
ATOM     17  O   UNL     1      43.657   4.082  10.140  0.00  0.00    +0.000 OA
BRANCH  17  22
ATOM     18  C   UNL     1      45.882   1.882   8.304  0.00  0.00    +0.000 A 
ATOM     19  C   UNL     1      46.602   2.759   7.499  0.00  0.00    +0.000 A 
ATOM     20  C   UNL     1      46.381   4.136   7.605  0.00  0.00    +0.000 A 
ATOM     21  C   UNL     1      45.431   4.641   8.504  0.00  0.00    +0.000 A 
ATOM     22  C   UNL     1      44.680   3.767   9.285  0.00  0.00    +0.000 A 
ATOM     23  C   UNL     1      44.932   2.394   9.191  0.00  0.00    +0.000 A 
BRANCH  18  25
ATOM     24  C   UNL     1      46.962  -0.060   7.455  0.00  0.00    +0.000 C 
ATOM     25  O   UNL     1      45.994   0.519   8.320  0.00  0.00    +0.000 OA
ENDBRANCH  18  25
ENDBRANCH  17  22
ENDBRANCH  14  17
ENDBRANCH   1  14
TORSDOF 5
ENDMDL
MODEL 2
REMARK VINA RESULT:    -6.552      2.754      6.825
REMARK INTER + INTRA:          -9.238
REMARK INTER:                  -8.613
REMARK INTRA:                  -0.625
REMARK UNBOUND:                -0.770
REMARK  Name = 
REMARK  6 active torsions:
REMARK  status: ('A' for Active; 'I' for Inactive)
REMARK    1  A    between atoms: C_1  and  O_2
REMARK    2  A    between atoms: O_2  and  C_3
REMARK    3  A    between atoms: C_7  and  O_8
REMARK    4  A    between atoms: O_8  and  C_9
REMARK    5  A    between atoms: C_9  and  C_10
REMARK    6  A    between atoms: C_14  and  C_15
REMARK                            x       y       z     vdW  Elec       q    Type
REMARK                         _______ _______ _______ _____ _____    ______ ____
ROOT
ATOM      1  C   UNL     1      46.301   5.695  12.277  0.00  0.00    +0.000 A 
ATOM      2  C   UNL     1      46.266   4.722  13.272  0.00  0.00    +0.000 A 
ATOM      3  N   UNL     1      45.673   3.508  13.154  0.00  0.00    +0.000 NA
ATOM      4  C   UNL     1      45.084   3.240  11.969  0.00  0.00    +0.000 A 
ATOM      5  C   UNL     1      45.028   4.128  10.897  0.00  0.00    +0.000 A 
ATOM      6  C   UNL     1      45.618   5.377  11.101  0.00  0.00    +0.000 A 
ENDROOT
BRANCH   5   7
ATOM      7  C   UNL     1      44.396   3.716   9.580  0.00  0.00    +0.000 C 
ATOM      8  C   UNL     1      44.431   2.196   9.335  0.00  0.00    +0.000 C 
ATOM      9  C   UNL     1      45.746   1.685   8.741  0.00  0.00    +0.000 C 
ATOM     10  N   UNL     1      46.186   2.456   7.580  0.00  0.00    +0.000 NA
ATOM     11  C   UNL     1      46.273   3.891   7.850  0.00  0.00    +0.000 C 
ATOM     12  C   UNL     1      44.958   4.470   8.367  0.00  0.00    +0.000 C 
ATOM     13  H   UNL     1      45.530   2.303   6.816  0.00  0.00    +0.000 HD
ENDBRANCH   5   7
BRANCH   1  14
ATOM     14  C   UNL     1      47.067   6.984  12.406  0.00  0.00    +0.000 C 
ATOM     15  C   UNL     1      48.539   6.900  12.802  0.00  0.00    +0.000 C 
ATOM     16  O   UNL     1      48.143   7.219  11.475  0.00  0.00    +0.000 OA
BRANCH  14  17
ATOM     17  O   UNL     1      46.376   8.102  12.991  0.00  0.00    +0.000 OA
BRANCH  17  22
ATOM     18  C   UNL     1      43.939   9.894  10.987  0.00  0.00    +0.000 A 
ATOM     19  C   UNL     1      44.548  11.127  10.776  0.00  0.00    +0.000 A 
ATOM     20  C   UNL     1      45.836  11.358  11.270  0.00  0.00    +0.000 A 
ATOM     21  C   UNL     1      46.515  10.363  11.988  0.00  0.00    +0.000 A 
ATOM     22  C   UNL     1      45.898   9.140  12.236  0.00  0.00    +0.000 A 
ATOM     23  C   UNL     1      44.621   8.913  11.711  0.00  0.00    +0.000 A 
BRANCH  18  25
ATOM     24  C   UNL     1      41.771  10.562  10.272  0.00  0.00    +0.000 C 
ATOM     25  O   UNL     1      42.695   9.521  10.560  0.00  0.00    +0.000 OA
ENDBRANCH  18  25
ENDBRANCH  17  22
ENDBRANCH  14  17
ENDBRANCH   1  14
TORSDOF 5
ENDMDL
MODEL 3
REMARK VINA RESULT:    -6.154      3.431      7.051
REMARK INTER + INTRA:          -8.723
REMARK INTER:                  -7.950
REMARK INTRA:                  -0.773
REMARK UNBOUND:                -0.770
REMARK  Name = 
REMARK  6 active torsions:
REMARK  status: ('A' for Active; 'I' for Inactive)
REMARK    1  A    between atoms: C_1  and  O_2
REMARK    2  A    between atoms: O_2  and  C_3
REMARK    3  A    between atoms: C_7  and  O_8
REMARK    4  A    between atoms: O_8  and  C_9
REMARK    5  A    between atoms: C_9  and  C_10
REMARK    6  A    between atoms: C_14  and  C_15
REMARK                            x       y       z     vdW  Elec       q    Type
REMARK                         _______ _______ _______ _____ _____    ______ ____
ROOT
ATOM      1  C   UNL     1      47.209   7.586  12.449  0.00  0.00    +0.000 A 
ATOM      2  C   UNL     1      46.540   8.805  12.533  0.00  0.00    +0.000 A 
ATOM      3  N   UNL     1      45.259   9.019  12.143  0.00  0.00    +0.000 NA
ATOM      4  C   UNL     1      44.597   7.952  11.645  0.00  0.00    +0.000 A 
ATOM      5  C   UNL     1      45.149   6.684  11.488  0.00  0.00    +0.000 A 
ATOM      6  C   UNL     1      46.486   6.543  11.867  0.00  0.00    +0.000 A 
ENDROOT
BRANCH   5   7
ATOM      7  C   UNL     1      44.309   5.528  10.976  0.00  0.00    +0.000 C 
ATOM      8  C   UNL     1      42.926   5.435  11.647  0.00  0.00    +0.000 C 
ATOM      9  C   UNL     1      42.926   4.699  12.989  0.00  0.00    +0.000 C 
ATOM     10  N   UNL     1      43.617   3.412  12.934  0.00  0.00    +0.000 NA
ATOM     11  C   UNL     1      44.980   3.519  12.411  0.00  0.00    +0.000 C 
ATOM     12  C   UNL     1      45.027   4.173  11.032  0.00  0.00    +0.000 C 
ATOM     13  H   UNL     1      43.085   2.778  12.341  0.00  0.00    +0.000 HD
ENDBRANCH   5   7
BRANCH   1  14
ATOM     14  C   UNL     1      48.591   7.361  12.999  0.00  0.00    +0.000 C 
ATOM     15  C   UNL     1      49.779   7.726  12.111  0.00  0.00    +0.000 C 
ATOM     16  O   UNL     1      49.416   8.521  13.232  0.00  0.00    +0.000 OA
BRANCH  14  17
ATOM     17  O   UNL     1      48.801   6.171  13.779  0.00  0.00    +0.000 OA
BRANCH  17  22
ATOM     18  C   UNL     1      47.431   4.746  16.822  0.00  0.00    +0.000 A 
ATOM     19  C   UNL     1      47.893   5.609  17.811  0.00  0.00    +0.000 A 
ATOM     20  C   UNL     1      48.642   6.734  17.455  0.00  0.00    +0.000 A 
ATOM     21  C   UNL     1      48.944   6.996  16.112  0.00  0.00    +0.000 A 
ATOM     22  C   UNL     1      48.518   6.118  15.119  0.00  0.00    +0.000 A 
ATOM     23  C   UNL     1      47.745   5.011  15.487  0.00  0.00    +0.000 A 
BRANCH  18  25
ATOM     24  C   UNL     1      47.282   2.566  17.763  0.00  0.00    +0.000 C 
ATOM     25  O   UNL     1      46.685   3.617  17.015  0.00  0.00    +0.000 OA
ENDBRANCH  18  25
ENDBRANCH  17  22
ENDBRANCH  14  17
ENDBRANCH   1  14
TORSDOF 5
ENDMDL
MODEL 4
REMARK VINA RESULT:    -6.014      3.023      7.111
REMARK INTER + INTRA:          -8.542
REMARK INTER:                  -8.218
REMARK INTRA:                  -0.325
REMARK UNBOUND:                -0.770
REMARK  Name = 
REMARK  6 active torsions:
REMARK  status: ('A' for Active; 'I' for Inactive)
REMARK    1  A    between atoms: C_1  and  O_2
REMARK    2  A    between atoms: O_2  and  C_3
REMARK    3  A    between atoms: C_7  and  O_8
REMARK    4  A    between atoms: O_8  and  C_9
REMARK    5  A    between atoms: C_9  and  C_10
REMARK    6  A    between atoms: C_14  and  C_15
REMARK                            x       y       z     vdW  Elec       q    Type
REMARK                         _______ _______ _______ _____ _____    ______ ____
ROOT
ATOM      1  C   UNL     1      47.338   6.767  12.587  0.00  0.00    +0.000 A 
ATOM      2  C   UNL     1      47.409   5.895  13.670  0.00  0.00    +0.000 A 
ATOM      3  N   UNL     1      46.584   4.837  13.874  0.00  0.00    +0.000 NA
ATOM      4  C   UNL     1      45.634   4.629  12.938  0.00  0.00    +0.000 A 
ATOM      5  C   UNL     1      45.438   5.433  11.818  0.00  0.00    +0.000 A 
ATOM      6  C   UNL     1      46.293   6.531  11.692  0.00  0.00    +0.000 A 
ENDROOT
BRANCH   5   7
ATOM      7  C   UNL     1      44.381   5.085  10.786  0.00  0.00    +0.000 C 
ATOM      8  C   UNL     1      43.183   4.317  11.374  0.00  0.00    +0.000 C 
ATOM      9  C   UNL     1      43.403   2.808  11.499  0.00  0.00    +0.000 C 
ATOM     10  N   UNL     1      43.917   2.202  10.272  0.00  0.00    +0.000 NA
ATOM     11  C   UNL     1      45.130   2.855   9.780  0.00  0.00    +0.000 C 
ATOM     12  C   UNL     1      44.939   4.353   9.557  0.00  0.00    +0.000 C 
ATOM     13  H   UNL     1      43.198   2.256   9.553  0.00  0.00    +0.000 HD
ENDBRANCH   5   7
BRANCH   1  14
ATOM     14  C   UNL     1      48.342   7.859  12.337  0.00  0.00    +0.000 C 
ATOM     15  C   UNL     1      49.822   7.513  12.484  0.00  0.00    +0.000 C 
ATOM     16  O   UNL     1      49.227   7.709  11.209  0.00  0.00    +0.000 OA
BRANCH  14  17
ATOM     17  O   UNL     1      48.010   9.177  12.810  0.00  0.00    +0.000 OA
BRANCH  17  22
ATOM     18  C   UNL     1      45.278  11.177  11.507  0.00  0.00    +0.000 A 
ATOM     19  C   UNL     1      45.914  12.050  10.631  0.00  0.00    +0.000 A 
ATOM     20  C   UNL     1      47.292  11.940  10.421  0.00  0.00    +0.000 A 
ATOM     21  C   UNL     1      48.042  10.966  11.096  0.00  0.00    +0.000 A 
ATOM     22  C   UNL     1      47.419  10.114  12.004  0.00  0.00    +0.000 A 
ATOM     23  C   UNL     1      46.035  10.217  12.182  0.00  0.00    +0.000 A 
BRANCH  18  25
ATOM     24  C   UNL     1      43.105  10.374  10.968  0.00  0.00    +0.000 C 
ATOM     25  O   UNL     1      43.944  11.158  11.805  0.00  0.00    +0.000 OA
ENDBRANCH  18  25
ENDBRANCH  17  22
ENDBRANCH  14  17
ENDBRANCH   1  14
TORSDOF 5
ENDMDL
MODEL 5
REMARK VINA RESULT:    -5.991      1.562      2.029
REMARK INTER + INTRA:          -8.513
REMARK INTER:                  -7.960
REMARK INTRA:                  -0.552
REMARK UNBOUND:                -0.770
REMARK  Name = 
REMARK  6 active torsions:
REMARK  status: ('A' for Active; 'I' for Inactive)
REMARK    1  A    between atoms: C_1  and  O_2
REMARK    2  A    between atoms: O_2  and  C_3
REMARK    3  A    between atoms: C_7  and  O_8
REMARK    4  A    between atoms: O_8  and  C_9
REMARK    5  A    between atoms: C_9  and  C_10
REMARK    6  A    between atoms: C_14  and  C_15
REMARK                            x       y       z     vdW  Elec       q    Type
REMARK                         _______ _______ _______ _____ _____    ______ ____
ROOT
ATOM      1  C   UNL     1      45.677   5.711  12.488  0.00  0.00    +0.000 A 
ATOM      2  C   UNL     1      45.397   4.705  13.410  0.00  0.00    +0.000 A 
ATOM      3  N   UNL     1      46.207   4.341  14.436  0.00  0.00    +0.000 NA
ATOM      4  C   UNL     1      47.365   5.026  14.558  0.00  0.00    +0.000 A 
ATOM      5  C   UNL     1      47.777   6.039  13.697  0.00  0.00    +0.000 A 
ATOM      6  C   UNL     1      46.918   6.333  12.635  0.00  0.00    +0.000 A 
ENDROOT
BRANCH   5   7
ATOM      7  C   UNL     1      49.069   6.796  13.949  0.00  0.00    +0.000 C 
ATOM      8  C   UNL     1      49.395   6.965  15.445  0.00  0.00    +0.000 C 
ATOM      9  C   UNL     1      48.696   8.151  16.111  0.00  0.00    +0.000 C 
ATOM     10  N   UNL     1      48.838   9.395  15.357  0.00  0.00    +0.000 NA
ATOM     11  C   UNL     1      48.409   9.268  13.964  0.00  0.00    +0.000 C 
ATOM     12  C   UNL     1      49.140   8.148  13.227  0.00  0.00    +0.000 C 
ATOM     13  H   UNL     1      49.815   9.682  15.377  0.00  0.00    +0.000 HD
ENDBRANCH   5   7
BRANCH   1  14
ATOM     14  C   UNL     1      44.702   6.162  11.435  0.00  0.00    +0.000 C 
ATOM     15  C   UNL     1      44.035   7.523  11.618  0.00  0.00    +0.000 C 
ATOM     16  O   UNL     1      45.053   7.318  10.648  0.00  0.00    +0.000 OA
BRANCH  14  17
ATOM     17  O   UNL     1      43.827   5.163  10.880  0.00  0.00    +0.000 OA
BRANCH  17  22
ATOM     18  C   UNL     1      45.658   3.668   8.128  0.00  0.00    +0.000 A 
ATOM     19  C   UNL     1      45.532   2.303   8.368  0.00  0.00    +0.000 A 
ATOM     20  C   UNL     1      44.768   1.858   9.452  0.00  0.00    +0.000 A 
ATOM     21  C   UNL     1      44.139   2.773  10.307  0.00  0.00    +0.000 A 
ATOM     22  C   UNL     1      44.292   4.140  10.096  0.00  0.00    +0.000 A 
ATOM     23  C   UNL     1      45.034   4.572   8.991  0.00  0.00    +0.000 A 
BRANCH  18  25
ATOM     24  C   UNL     1      46.886   3.386   6.110  0.00  0.00    +0.000 C 
ATOM     25  O   UNL     1      46.360   4.249   7.109  0.00  0.00    +0.000 OA
ENDBRANCH  18  25
ENDBRANCH  17  22
ENDBRANCH  14  17
ENDBRANCH   1  14
TORSDOF 5
ENDMDL
MODEL 6
REMARK VINA RESULT:    -5.796      3.901      7.950
REMARK INTER + INTRA:          -8.261
REMARK INTER:                  -7.741
REMARK INTRA:                  -0.520
REMARK UNBOUND:                -0.770
REMARK  Name = 
REMARK  6 active torsions:
REMARK  status: ('A' for Active; 'I' for Inactive)
REMARK    1  A    between atoms: C_1  and  O_2
REMARK    2  A    between atoms: O_2  and  C_3
REMARK    3  A    between atoms: C_7  and  O_8
REMARK    4  A    between atoms: O_8  and  C_9
REMARK    5  A    between atoms: C_9  and  C_10
REMARK    6  A    between atoms: C_14  and  C_15
REMARK                            x       y       z     vdW  Elec       q    Type
REMARK                         _______ _______ _______ _____ _____    ______ ____
ROOT
ATOM      1  C   UNL     1      47.581   7.336  13.494  0.00  0.00    +0.000 A 
ATOM      2  C   UNL     1      46.603   8.326  13.452  0.00  0.00    +0.000 A 
ATOM      3  N   UNL     1      45.406   8.213  12.822  0.00  0.00    +0.000 NA
ATOM      4  C   UNL     1      45.164   7.039  12.201  0.00  0.00    +0.000 A 
ATOM      5  C   UNL     1      46.060   5.974  12.147  0.00  0.00    +0.000 A 
ATOM      6  C   UNL     1      47.291   6.173  12.778  0.00  0.00    +0.000 A 
ENDROOT
BRANCH   5   7
ATOM      7  C   UNL     1      45.676   4.668  11.477  0.00  0.00    +0.000 C 
ATOM      8  C   UNL     1      44.727   4.853  10.278  0.00  0.00    +0.000 C 
ATOM      9  C   UNL     1      43.250   4.968  10.658  0.00  0.00    +0.000 C 
ATOM     10  N   UNL     1      42.810   3.913  11.570  0.00  0.00    +0.000 NA
ATOM     11  C   UNL     1      43.639   3.819  12.772  0.00  0.00    +0.000 C 
ATOM     12  C   UNL     1      45.118   3.619  12.448  0.00  0.00    +0.000 C 
ATOM     13  H   UNL     1      42.838   3.021  11.079  0.00  0.00    +0.000 HD
ENDBRANCH   5   7
BRANCH   1  14
ATOM     14  C   UNL     1      48.846   7.457  14.299  0.00  0.00    +0.000 C 
ATOM     15  C   UNL     1      49.996   8.265  13.703  0.00  0.00    +0.000 C 
ATOM     16  O   UNL     1      49.213   8.766  14.778  0.00  0.00    +0.000 OA
BRANCH  14  17
ATOM     17  O   UNL     1      49.278   6.289  15.021  0.00  0.00    +0.000 OA
BRANCH  17  22
ATOM     18  C   UNL     1      48.110   6.408  18.454  0.00  0.00    +0.000 A 
ATOM     19  C   UNL     1      47.280   5.296  18.545  0.00  0.00    +0.000 A 
ATOM     20  C   UNL     1      47.141   4.443  17.446  0.00  0.00    +0.000 A 
ATOM     21  C   UNL     1      47.820   4.705  16.248  0.00  0.00    +0.000 A 
ATOM     22  C   UNL     1      48.622   5.837  16.136  0.00  0.00    +0.000 A 
ATOM     23  C   UNL     1      48.775   6.666  17.253  0.00  0.00    +0.000 A 
BRANCH  18  25
ATOM     24  C   UNL     1      47.752   7.080  20.708  0.00  0.00    +0.000 C 
ATOM     25  O   UNL     1      48.351   7.322  19.442  0.00  0.00    +0.000 OA
ENDBRANCH  18  25
ENDBRANCH  17  22
ENDBRANCH  14  17
ENDBRANCH   1  14
TORSDOF 5
ENDMDL
MODEL 7
REMARK VINA RESULT:    -5.502      5.302      8.091
REMARK INTER + INTRA:          -7.881
REMARK INTER:                  -7.890
REMARK INTRA:                   0.010
REMARK UNBOUND:                -0.770
REMARK  Name = 
REMARK  6 active torsions:
REMARK  status: ('A' for Active; 'I' for Inactive)
REMARK    1  A    between atoms: C_1  and  O_2
REMARK    2  A    between atoms: O_2  and  C_3
REMARK    3  A    between atoms: C_7  and  O_8
REMARK    4  A    between atoms: O_8  and  C_9
REMARK    5  A    between atoms: C_9  and  C_10
REMARK    6  A    between atoms: C_14  and  C_15
REMARK                            x       y       z     vdW  Elec       q    Type
REMARK                         _______ _______ _______ _____ _____    ______ ____
ROOT
ATOM      1  C   UNL     1      47.711   5.067  15.231  0.00  0.00    +0.000 A 
ATOM      2  C   UNL     1      48.207   6.324  14.898  0.00  0.00    +0.000 A 
ATOM      3  N   UNL     1      47.904   7.007  13.765  0.00  0.00    +0.000 NA
ATOM      4  C   UNL     1      47.048   6.404  12.913  0.00  0.00    +0.000 A 
ATOM      5  C   UNL     1      46.492   5.142  13.112  0.00  0.00    +0.000 A 
ATOM      6  C   UNL     1      46.881   4.476  14.277  0.00  0.00    +0.000 A 
ENDROOT
BRANCH   5   7
ATOM      7  C   UNL     1      45.489   4.570  12.128  0.00  0.00    +0.000 C 
ATOM      8  C   UNL     1      45.087   5.562  11.020  0.00  0.00    +0.000 C 
ATOM      9  C   UNL     1      43.978   6.537  11.420  0.00  0.00    +0.000 C 
ATOM     10  N   UNL     1      42.826   5.873  12.029  0.00  0.00    +0.000 NA
ATOM     11  C   UNL     1      43.194   5.026  13.164  0.00  0.00    +0.000 C 
ATOM     12  C   UNL     1      44.241   3.977  12.797  0.00  0.00    +0.000 C 
ATOM     13  H   UNL     1      42.367   5.299  11.324  0.00  0.00    +0.000 HD
ENDBRANCH   5   7
BRANCH   1  14
ATOM     14  C   UNL     1      47.980   4.395  16.550  0.00  0.00    +0.000 C 
ATOM     15  C   UNL     1      46.851   4.364  17.577  0.00  0.00    +0.000 C 
ATOM     16  O   UNL     1      47.233   3.200  16.857  0.00  0.00    +0.000 OA
BRANCH  14  17
ATOM     17  O   UNL     1      49.282   4.588  17.131  0.00  0.00    +0.000 OA
BRANCH  17  22
ATOM     18  C   UNL     1      52.424   3.039  18.075  0.00  0.00    +0.000 A 
ATOM     19  C   UNL     1      52.217   1.696  17.778  0.00  0.00    +0.000 A 
ATOM     20  C   UNL     1      51.012   1.293  17.194  0.00  0.00    +0.000 A 
ATOM     21  C   UNL     1      50.004   2.228  16.918  0.00  0.00    +0.000 A 
ATOM     22  C   UNL     1      50.189   3.568  17.246  0.00  0.00    +0.000 A 
ATOM     23  C   UNL     1      51.410   3.961  17.803  0.00  0.00    +0.000 A 
BRANCH  18  25
ATOM     24  C   UNL     1      54.087   2.920  19.772  0.00  0.00    +0.000 C 
ATOM     25  O   UNL     1      53.547   3.581  18.635  0.00  0.00    +0.000 OA
ENDBRANCH  18  25
ENDBRANCH  17  22
ENDBRANCH  14  17
ENDBRANCH   1  14
TORSDOF 5
ENDMDL
MODEL 8
REMARK VINA RESULT:    -5.447      2.955      5.393
REMARK INTER + INTRA:          -7.810
REMARK INTER:                  -7.283
REMARK INTRA:                  -0.527
REMARK UNBOUND:                -0.770
REMARK  Name = 
REMARK  6 active torsions:
REMARK  status: ('A' for Active; 'I' for Inactive)
REMARK    1  A    between atoms: C_1  and  O_2
REMARK    2  A    between atoms: O_2  and  C_3
REMARK    3  A    between atoms: C_7  and  O_8
REMARK    4  A    between atoms: O_8  and  C_9
REMARK    5  A    between atoms: C_9  and  C_10
REMARK    6  A    between atoms: C_14  and  C_15
REMARK                            x       y       z     vdW  Elec       q    Type
REMARK                         _______ _______ _______ _____ _____    ______ ____
ROOT
ATOM      1  C   UNL     1      48.833   7.214  14.202  0.00  0.00    +0.000 A 
ATOM      2  C   UNL     1      50.163   7.620  14.250  0.00  0.00    +0.000 A 
ATOM      3  N   UNL     1      51.020   7.363  15.270  0.00  0.00    +0.000 NA
ATOM      4  C   UNL     1      50.525   6.650  16.305  0.00  0.00    +0.000 A 
ATOM      5  C   UNL     1      49.211   6.198  16.395  0.00  0.00    +0.000 A 
ATOM      6  C   UNL     1      48.369   6.536  15.332  0.00  0.00    +0.000 A 
ENDROOT
BRANCH   5   7
ATOM      7  C   UNL     1      48.759   5.349  17.569  0.00  0.00    +0.000 C 
ATOM      8  C   UNL     1      49.874   4.453  18.139  0.00  0.00    +0.000 C 
ATOM      9  C   UNL     1      50.062   3.131  17.393  0.00  0.00    +0.000 C 
ATOM     10  N   UNL     1      48.807   2.409  17.185  0.00  0.00    +0.000 NA
ATOM     11  C   UNL     1      47.785   3.224  16.529  0.00  0.00    +0.000 C 
ATOM     12  C   UNL     1      47.499   4.522  17.281  0.00  0.00    +0.000 C 
ATOM     13  H   UNL     1      48.453   2.100  18.089  0.00  0.00    +0.000 HD
ENDBRANCH   5   7
BRANCH   1  14
ATOM     14  C   UNL     1      47.948   7.419  13.003  0.00  0.00    +0.000 C 
ATOM     15  C   UNL     1      48.167   8.676  12.163  0.00  0.00    +0.000 C 
ATOM     16  O   UNL     1      48.567   7.393  11.701  0.00  0.00    +0.000 OA
BRANCH  14  17
ATOM     17  O   UNL     1      46.563   7.053  13.139  0.00  0.00    +0.000 OA
BRANCH  17  22
ATOM     18  C   UNL     1      45.112   4.636  10.855  0.00  0.00    +0.000 A 
ATOM     19  C   UNL     1      45.184   3.444  11.568  0.00  0.00    +0.000 A 
ATOM     20  C   UNL     1      45.682   3.446  12.874  0.00  0.00    +0.000 A 
ATOM     21  C   UNL     1      46.124   4.637  13.468  0.00  0.00    +0.000 A 
ATOM     22  C   UNL     1      46.091   5.828  12.748  0.00  0.00    +0.000 A 
ATOM     23  C   UNL     1      45.563   5.816  11.453  0.00  0.00    +0.000 A 
BRANCH  18  25
ATOM     24  C   UNL     1      44.639   3.639   8.748  0.00  0.00    +0.000 C 
ATOM     25  O   UNL     1      44.643   4.791   9.580  0.00  0.00    +0.000 OA
ENDBRANCH  18  25
ENDBRANCH  17  22
ENDBRANCH  14  17
ENDBRANCH   1  14
TORSDOF 5
ENDMDL
MODEL 9
REMARK VINA RESULT:    -5.375      3.565      8.009
REMARK INTER + INTRA:          -7.717
REMARK INTER:                  -7.512
REMARK INTRA:                  -0.204
REMARK UNBOUND:                -0.770
REMARK  Name = 
REMARK  6 active torsions:
REMARK  status: ('A' for Active; 'I' for Inactive)
REMARK    1  A    between atoms: C_1  and  O_2
REMARK    2  A    between atoms: O_2  and  C_3
REMARK    3  A    between atoms: C_7  and  O_8
REMARK    4  A    between atoms: O_8  and  C_9
REMARK    5  A    between atoms: C_9  and  C_10
REMARK    6  A    between atoms: C_14  and  C_15
REMARK                            x       y       z     vdW  Elec       q    Type
REMARK                         _______ _______ _______ _____ _____    ______ ____
ROOT
ATOM      1  C   UNL     1      47.512   6.154  13.535  0.00  0.00    +0.000 A 
ATOM      2  C   UNL     1      47.424   5.061  14.393  0.00  0.00    +0.000 A 
ATOM      3  N   UNL     1      46.488   4.082  14.316  0.00  0.00    +0.000 NA
ATOM      4  C   UNL     1      45.585   4.193  13.317  0.00  0.00    +0.000 A 
ATOM      5  C   UNL     1      45.545   5.242  12.402  0.00  0.00    +0.000 A 
ATOM      6  C   UNL     1      46.510   6.239  12.566  0.00  0.00    +0.000 A 
ENDROOT
BRANCH   5   7
ATOM      7  C   UNL     1      44.530   5.251  11.274  0.00  0.00    +0.000 C 
ATOM      8  C   UNL     1      43.235   4.489  11.612  0.00  0.00    +0.000 C 
ATOM      9  C   UNL     1      43.315   2.979  11.384  0.00  0.00    +0.000 C 
ATOM     10  N   UNL     1      43.852   2.627  10.070  0.00  0.00    +0.000 NA
ATOM     11  C   UNL     1      45.146   3.253   9.798  0.00  0.00    +0.000 C 
ATOM     12  C   UNL     1      45.100   4.774   9.931  0.00  0.00    +0.000 C 
ATOM     13  H   UNL     1      43.188   2.918   9.355  0.00  0.00    +0.000 HD
ENDBRANCH   5   7
BRANCH   1  14
ATOM     14  C   UNL     1      48.633   7.155  13.582  0.00  0.00    +0.000 C 
ATOM     15  C   UNL     1      49.503   7.310  12.337  0.00  0.00    +0.000 C 
ATOM     16  O   UNL     1      48.549   8.297  12.706  0.00  0.00    +0.000 OA
BRANCH  14  17
ATOM     17  O   UNL     1      49.369   7.258  14.814  0.00  0.00    +0.000 OA
BRANCH  17  22
ATOM     18  C   UNL     1      48.496   7.532  18.325  0.00  0.00    +0.000 A 
ATOM     19  C   UNL     1      48.009   8.832  18.430  0.00  0.00    +0.000 A 
ATOM     20  C   UNL     1      47.917   9.631  17.286  0.00  0.00    +0.000 A 
ATOM     21  C   UNL     1      48.322   9.141  16.037  0.00  0.00    +0.000 A 
ATOM     22  C   UNL     1      48.845   7.856  15.930  0.00  0.00    +0.000 A 
ATOM     23  C   UNL     1      48.905   7.057  17.077  0.00  0.00    +0.000 A 
BRANCH  18  25
ATOM     24  C   UNL     1      47.446   6.183  19.979  0.00  0.00    +0.000 C 
ATOM     25  O   UNL     1      48.636   6.635  19.347  0.00  0.00    +0.000 OA
ENDBRANCH  18  25
ENDBRANCH  17  22
ENDBRANCH  14  17
ENDBRANCH   1  14
TORSDOF 5
ENDMDL
