MODEL 1
REMARK VINA RESULT:    -7.855      0.000      0.000
REMARK INTER + INTRA:         -10.943
REMARK INTER:                 -10.151
REMARK INTRA:                  -0.792
REMARK UNBOUND:                -0.792
REMARK  Name = 
REMARK  5 active torsions:
REMARK  status: ('A' for Active; 'I' for Inactive)
REMARK    1  A    between atoms: C_2  and  C_4
REMARK    2  A    between atoms: C_8  and  S_9
REMARK    3  A    between atoms: S_9  and  C_10
REMARK    4  A    between atoms: C_10  and  C_11
REMARK    5  A    between atoms: C_15  and  C_16
REMARK                            x       y       z     vdW  Elec       q    Type
REMARK                         _______ _______ _______ _____ _____    ______ ____
ROOT
ATOM      1  C   UNL     1      43.795   6.261  11.890  0.00  0.00    +0.000 C 
ENDROOT
BRANCH   1   2
ATOM      2  C   UNL     1      43.831   4.860  11.312  0.00  0.00    +0.000 A 
ATOM      3  C   UNL     1      43.167   3.814  11.952  0.00  0.00    +0.000 A 
ATOM      4  C   UNL     1      43.278   2.535  11.427  0.00  0.00    +0.000 A 
ATOM      5  N   UNL     1      44.011   2.224  10.335  0.00  0.00    +0.000 NA
ATOM      6  C   UNL     1      44.687   3.227   9.725  0.00  0.00    +0.000 A 
ATOM      7  C   UNL     1      44.607   4.541  10.189  0.00  0.00    +0.000 A 
BRANCH   6   8
ATOM      8  C   UNL     1      45.533   2.852   8.569  0.00  0.00    +0.000 A 
ATOM      9  C   UNL     1      45.837   3.778   7.556  0.00  0.00    +0.000 A 
ATOM     10  C   UNL     1      46.640   3.425   6.464  0.00  0.00    +0.000 A 
ATOM     11  C   UNL     1      47.153   2.136   6.359  0.00  0.00    +0.000 A 
ATOM     12  C   UNL     1      46.864   1.198   7.343  0.00  0.00    +0.000 A 
ATOM     13  C   UNL     1      46.062   1.554   8.431  0.00  0.00    +0.000 A 
ENDBRANCH   6   8
ENDBRANCH   1   2
BRANCH   1  14
ATOM     14  S   UNL     1      45.181   7.312  11.329  0.00  0.00    +0.000 S 
BRANCH  14  19
ATOM     15  C   UNL     1      47.322   5.550  14.262  0.00  0.00    +0.000 A 
ATOM     16  C   UNL     1      48.317   6.478  14.578  0.00  0.00    +0.000 A 
ATOM     17  C   UNL     1      48.370   7.695  13.895  0.00  0.00    +0.000 A 
ATOM     18  C   UNL     1      47.437   7.984  12.892  0.00  0.00    +0.000 A 
ATOM     19  C   UNL     1      46.450   7.055  12.554  0.00  0.00    +0.000 A 
ATOM     20  C   UNL     1      46.398   5.841  13.252  0.00  0.00    +0.000 A 
BRANCH  15  22
ATOM     21  N   UNL     1      46.840   4.237  16.261  0.00  0.00    +0.000 N 
ATOM     22  C   UNL     1      47.217   4.236  14.946  0.00  0.00    +0.000 C 
ATOM     23  O   UNL     1      47.422   3.182  14.355  0.00  0.00    +0.000 OA
ATOM     24  H   UNL     1      46.660   3.330  16.669  0.00  0.00    +0.000 HD
ATOM     25  H   UNL     1      46.409   5.040  16.696  0.00  0.00    +0.000 HD
ENDBRANCH  15  22
ENDBRANCH  14  19
ENDBRANCH   1  14
TORSDOF 5
ENDMDL
MODEL 2
REMARK VINA RESULT:    -7.733      2.722      6.827
REMARK INTER + INTRA:         -10.785
REMARK INTER:                  -9.981
REMARK INTRA:                  -0.805
REMARK UNBOUND:                -0.792
REMARK  Name = 
REMARK  5 active torsions:
REMARK  status: ('A' for Active; 'I' for Inactive)
REMARK    1  A    between atoms: C_2  and  C_4
REMARK    2  A    between atoms: C_8  and  S_9
REMARK    3  A    between atoms: S_9  and  C_10
REMARK    4  A    between atoms: C_10  and  C_11
REMARK    5  A    between atoms: C_15  and  C_16
REMARK                            x       y       z     vdW  Elec       q    Type
REMARK                         _______ _______ _______ _____ _____    ______ ____
ROOT
ATOM      1  C   UNL     1      44.109   4.837  11.398  0.00  0.00    +0.000 C 
ENDROOT
BRANCH   1   2
ATOM      2  C   UNL     1      45.434   5.109  12.083  0.00  0.00    +0.000 A 
ATOM      3  C   UNL     1      45.833   4.345  13.180  0.00  0.00    +0.000 A 
ATOM      4  C   UNL     1      47.021   4.667  13.818  0.00  0.00    +0.000 A 
ATOM      5  N   UNL     1      47.821   5.696  13.460  0.00  0.00    +0.000 NA
ATOM      6  C   UNL     1      47.426   6.465  12.416  0.00  0.00    +0.000 A 
ATOM      7  C   UNL     1      46.250   6.187  11.717  0.00  0.00    +0.000 A 
BRANCH   6   8
ATOM      8  C   UNL     1      48.286   7.623  12.082  0.00  0.00    +0.000 A 
ATOM      9  C   UNL     1      49.649   7.458  11.783  0.00  0.00    +0.000 A 
ATOM     10  C   UNL     1      50.463   8.552  11.464  0.00  0.00    +0.000 A 
ATOM     11  C   UNL     1      49.930   9.837  11.439  0.00  0.00    +0.000 A 
ATOM     12  C   UNL     1      48.586  10.032  11.735  0.00  0.00    +0.000 A 
ATOM     13  C   UNL     1      47.778   8.937  12.055  0.00  0.00    +0.000 A 
ENDBRANCH   6   8
ENDBRANCH   1   2
BRANCH   1  14
ATOM     14  S   UNL     1      44.000   3.164  10.671  0.00  0.00    +0.000 S 
BRANCH  14  19
ATOM     15  C   UNL     1      46.435   1.931   7.697  0.00  0.00    +0.000 A 
ATOM     16  C   UNL     1      46.857   3.109   7.076  0.00  0.00    +0.000 A 
ATOM     17  C   UNL     1      46.405   4.342   7.552  0.00  0.00    +0.000 A 
ATOM     18  C   UNL     1      45.527   4.401   8.641  0.00  0.00    +0.000 A 
ATOM     19  C   UNL     1      45.082   3.229   9.257  0.00  0.00    +0.000 A 
ATOM     20  C   UNL     1      45.549   1.996   8.780  0.00  0.00    +0.000 A 
BRANCH  15  22
ATOM     21  N   UNL     1      47.336   0.485   5.951  0.00  0.00    +0.000 N 
ATOM     22  C   UNL     1      46.872   0.590   7.234  0.00  0.00    +0.000 C 
ATOM     23  O   UNL     1      46.858  -0.386   7.975  0.00  0.00    +0.000 OA
ATOM     24  H   UNL     1      47.738  -0.408   5.699  0.00  0.00    +0.000 HD
ATOM     25  H   UNL     1      47.614   1.292   5.412  0.00  0.00    +0.000 HD
ENDBRANCH  15  22
ENDBRANCH  14  19
ENDBRANCH   1  14
TORSDOF 5
ENDMDL
MODEL 3
REMARK VINA RESULT:    -7.493      0.969      1.544
REMARK INTER + INTRA:         -10.474
REMARK INTER:                  -9.655
REMARK INTRA:                  -0.819
REMARK UNBOUND:                -0.792
REMARK  Name = 
REMARK  5 active torsions:
REMARK  status: ('A' for Active; 'I' for Inactive)
REMARK    1  A    between atoms: C_2  and  C_4
REMARK    2  A    between atoms: C_8  and  S_9
REMARK    3  A    between atoms: S_9  and  C_10
REMARK    4  A    between atoms: C_10  and  C_11
REMARK    5  A    between atoms: C_15  and  C_16
REMARK                            x       y       z     vdW  Elec       q    Type
REMARK                         _______ _______ _______ _____ _____    ______ ____
ROOT
ATOM      1  C   UNL     1      45.295   7.014  11.975  0.00  0.00    +0.000 C 
ENDROOT
BRANCH   1   2
ATOM      2  C   UNL     1      44.745   5.764  11.319  0.00  0.00    +0.000 A 
ATOM      3  C   UNL     1      43.594   5.152  11.815  0.00  0.00    +0.000 A 
ATOM      4  C   UNL     1      43.160   3.974  11.227  0.00  0.00    +0.000 A 
ATOM      5  N   UNL     1      43.793   3.357  10.205  0.00  0.00    +0.000 NA
ATOM      6  C   UNL     1      44.931   3.924   9.737  0.00  0.00    +0.000 A 
ATOM      7  C   UNL     1      45.416   5.120  10.270  0.00  0.00    +0.000 A 
BRANCH   6   8
ATOM      8  C   UNL     1      45.641   3.198   8.660  0.00  0.00    +0.000 A 
ATOM      9  C   UNL     1      45.805   1.802   8.707  0.00  0.00    +0.000 A 
ATOM     10  C   UNL     1      46.474   1.113   7.688  0.00  0.00    +0.000 A 
ATOM     11  C   UNL     1      46.997   1.806   6.600  0.00  0.00    +0.000 A 
ATOM     12  C   UNL     1      46.854   3.186   6.529  0.00  0.00    +0.000 A 
ATOM     13  C   UNL     1      46.187   3.871   7.550  0.00  0.00    +0.000 A 
ENDBRANCH   6   8
ENDBRANCH   1   2
BRANCH   1  14
ATOM     14  S   UNL     1      47.109   7.175  11.821  0.00  0.00    +0.000 S 
BRANCH  14  19
ATOM     15  C   UNL     1      47.822   5.161  15.246  0.00  0.00    +0.000 A 
ATOM     16  C   UNL     1      48.534   6.061  16.042  0.00  0.00    +0.000 A 
ATOM     17  C   UNL     1      48.827   7.335  15.553  0.00  0.00    +0.000 A 
ATOM     18  C   UNL     1      48.416   7.711  14.268  0.00  0.00    +0.000 A 
ATOM     19  C   UNL     1      47.721   6.813  13.455  0.00  0.00    +0.000 A 
ATOM     20  C   UNL     1      47.423   5.539  13.958  0.00  0.00    +0.000 A 
BRANCH  15  22
ATOM     21  N   UNL     1      46.798   3.667  16.881  0.00  0.00    +0.000 N 
ATOM     22  C   UNL     1      47.486   3.789  15.705  0.00  0.00    +0.000 C 
ATOM     23  O   UNL     1      47.777   2.798  15.045  0.00  0.00    +0.000 OA
ATOM     24  H   UNL     1      46.478   2.736  17.110  0.00  0.00    +0.000 HD
ATOM     25  H   UNL     1      46.313   4.446  17.303  0.00  0.00    +0.000 HD
ENDBRANCH  15  22
ENDBRANCH  14  19
ENDBRANCH   1  14
TORSDOF 5
ENDMDL
MODEL 4
REMARK VINA RESULT:    -7.017      2.436      3.335
REMARK INTER + INTRA:          -9.859
REMARK INTER:                  -9.958
REMARK INTRA:                   0.099
REMARK UNBOUND:                -0.792
REMARK  Name = 
REMARK  5 active torsions:
REMARK  status: ('A' for Active; 'I' for Inactive)
REMARK    1  A    between atoms: C_2  and  C_4
REMARK    2  A    between atoms: C_8  and  S_9
REMARK    3  A    between atoms: S_9  and  C_10
REMARK    4  A    between atoms: C_10  and  C_11
REMARK    5  A    between atoms: C_15  and  C_16
REMARK                            x       y       z     vdW  Elec       q    Type
REMARK                         _______ _______ _______ _____ _____    ______ ____
ROOT
ATOM      1  C   UNL     1      43.671   3.141  11.667  0.00  0.00    +0.000 C 
ENDROOT
BRANCH   1   2
ATOM      2  C   UNL     1      44.500   3.683  10.520  0.00  0.00    +0.000 A 
ATOM      3  C   UNL     1      44.628   5.059  10.328  0.00  0.00    +0.000 A 
ATOM      4  C   UNL     1      45.341   5.514   9.230  0.00  0.00    +0.000 A 
ATOM      5  N   UNL     1      45.912   4.708   8.308  0.00  0.00    +0.000 NA
ATOM      6  C   UNL     1      45.766   3.370   8.465  0.00  0.00    +0.000 A 
ATOM      7  C   UNL     1      45.076   2.842   9.558  0.00  0.00    +0.000 A 
BRANCH   6   8
ATOM      8  C   UNL     1      46.345   2.509   7.410  0.00  0.00    +0.000 A 
ATOM      9  C   UNL     1      46.643   1.157   7.653  0.00  0.00    +0.000 A 
ATOM     10  C   UNL     1      47.188   0.340   6.655  0.00  0.00    +0.000 A 
ATOM     11  C   UNL     1      47.451   0.860   5.391  0.00  0.00    +0.000 A 
ATOM     12  C   UNL     1      47.171   2.195   5.123  0.00  0.00    +0.000 A 
ATOM     13  C   UNL     1      46.628   3.007   6.123  0.00  0.00    +0.000 A 
ENDBRANCH   6   8
ENDBRANCH   1   2
BRANCH   1  14
ATOM     14  S   UNL     1      43.333   4.381  12.966  0.00  0.00    +0.000 S 
BRANCH  14  19
ATOM     15  C   UNL     1      46.140   7.280  13.053  0.00  0.00    +0.000 A 
ATOM     16  C   UNL     1      47.299   6.636  13.490  0.00  0.00    +0.000 A 
ATOM     17  C   UNL     1      47.264   5.270  13.778  0.00  0.00    +0.000 A 
ATOM     18  C   UNL     1      46.072   4.548  13.639  0.00  0.00    +0.000 A 
ATOM     19  C   UNL     1      44.902   5.187  13.222  0.00  0.00    +0.000 A 
ATOM     20  C   UNL     1      44.949   6.555  12.925  0.00  0.00    +0.000 A 
BRANCH  15  22
ATOM     21  N   UNL     1      44.901   9.368  12.813  0.00  0.00    +0.000 N 
ATOM     22  C   UNL     1      46.109   8.731  12.738  0.00  0.00    +0.000 C 
ATOM     23  O   UNL     1      47.127   9.353  12.456  0.00  0.00    +0.000 OA
ATOM     24  H   UNL     1      44.925  10.374  12.712  0.00  0.00    +0.000 HD
ATOM     25  H   UNL     1      44.109   8.965  13.294  0.00  0.00    +0.000 HD
ENDBRANCH  15  22
ENDBRANCH  14  19
ENDBRANCH   1  14
TORSDOF 5
ENDMDL
MODEL 5
REMARK VINA RESULT:    -7.001      1.703      2.253
REMARK INTER + INTRA:          -9.839
REMARK INTER:                  -9.113
REMARK INTRA:                  -0.726
REMARK UNBOUND:                -0.792
REMARK  Name = 
REMARK  5 active torsions:
REMARK  status: ('A' for Active; 'I' for Inactive)
REMARK    1  A    between atoms: C_2  and  C_4
REMARK    2  A    between atoms: C_8  and  S_9
REMARK    3  A    between atoms: S_9  and  C_10
REMARK    4  A    between atoms: C_10  and  C_11
REMARK    5  A    between atoms: C_15  and  C_16
REMARK                            x       y       z     vdW  Elec       q    Type
REMARK                         _______ _______ _______ _____ _____    ______ ____
ROOT
ATOM      1  C   UNL     1      45.321   6.975  11.742  0.00  0.00    +0.000 C 
ENDROOT
BRANCH   1   2
ATOM      2  C   UNL     1      44.793   5.697  11.123  0.00  0.00    +0.000 A 
ATOM      3  C   UNL     1      43.673   5.061  11.659  0.00  0.00    +0.000 A 
ATOM      4  C   UNL     1      43.260   3.860  11.103  0.00  0.00    +0.000 A 
ATOM      5  N   UNL     1      43.886   3.242  10.077  0.00  0.00    +0.000 NA
ATOM      6  C   UNL     1      44.995   3.834   9.570  0.00  0.00    +0.000 A 
ATOM      7  C   UNL     1      45.457   5.053  10.069  0.00  0.00    +0.000 A 
BRANCH   6   8
ATOM      8  C   UNL     1      45.700   3.108   8.489  0.00  0.00    +0.000 A 
ATOM      9  C   UNL     1      46.151   3.775   7.337  0.00  0.00    +0.000 A 
ATOM     10  C   UNL     1      46.821   3.091   6.315  0.00  0.00    +0.000 A 
ATOM     11  C   UNL     1      47.052   1.723   6.423  0.00  0.00    +0.000 A 
ATOM     12  C   UNL     1      46.612   1.037   7.548  0.00  0.00    +0.000 A 
ATOM     13  C   UNL     1      45.943   1.723   8.565  0.00  0.00    +0.000 A 
ENDBRANCH   6   8
ENDBRANCH   1   2
BRANCH   1  14
ATOM     14  S   UNL     1      47.129   6.957  12.009  0.00  0.00    +0.000 S 
BRANCH  14  19
ATOM     15  C   UNL     1      48.496   6.068  15.701  0.00  0.00    +0.000 A 
ATOM     16  C   UNL     1      47.860   4.870  16.034  0.00  0.00    +0.000 A 
ATOM     17  C   UNL     1      46.977   4.281  15.127  0.00  0.00    +0.000 A 
ATOM     18  C   UNL     1      46.721   4.890  13.892  0.00  0.00    +0.000 A 
ATOM     19  C   UNL     1      47.335   6.099  13.557  0.00  0.00    +0.000 A 
ATOM     20  C   UNL     1      48.228   6.678  14.469  0.00  0.00    +0.000 A 
BRANCH  15  22
ATOM     21  N   UNL     1      48.924   7.274  17.779  0.00  0.00    +0.000 N 
ATOM     22  C   UNL     1      49.439   6.749  16.625  0.00  0.00    +0.000 C 
ATOM     23  O   UNL     1      50.640   6.812  16.391  0.00  0.00    +0.000 OA
ATOM     24  H   UNL     1      49.600   7.624  18.444  0.00  0.00    +0.000 HD
ATOM     25  H   UNL     1      48.014   7.010  18.130  0.00  0.00    +0.000 HD
ENDBRANCH  15  22
ENDBRANCH  14  19
ENDBRANCH   1  14
TORSDOF 5
ENDMDL
MODEL 6
REMARK VINA RESULT:    -6.982      2.613      3.137
REMARK INTER + INTRA:          -9.814
REMARK INTER:                  -9.108
REMARK INTRA:                  -0.706
REMARK UNBOUND:                -0.792
REMARK  Name = 
REMARK  5 active torsions:
REMARK  status: ('A' for Active; 'I' for Inactive)
REMARK    1  A    between atoms: C_2  and  C_4
REMARK    2  A    between atoms: C_8  and  S_9
REMARK    3  A    between atoms: S_9  and  C_10
REMARK    4  A    between atoms: C_10  and  C_11
REMARK    5  A    between atoms: C_15  and  C_16
REMARK                            x       y       z     vdW  Elec       q    Type
REMARK                         _______ _______ _______ _____ _____    ______ ____
ROOT
ATOM      1  C   UNL     1      44.819   5.914  12.765  0.00  0.00    +0.000 C 
ENDROOT
BRANCH   1   2
ATOM      2  C   UNL     1      44.454   4.733  11.889  0.00  0.00    +0.000 A 
ATOM      3  C   UNL     1      43.472   3.829  12.294  0.00  0.00    +0.000 A 
ATOM      4  C   UNL     1      43.213   2.726  11.495  0.00  0.00    +0.000 A 
ATOM      5  N   UNL     1      43.867   2.450  10.344  0.00  0.00    +0.000 NA
ATOM      6  C   UNL     1      44.845   3.305   9.958  0.00  0.00    +0.000 A 
ATOM      7  C   UNL     1      45.147   4.445  10.705  0.00  0.00    +0.000 A 
BRANCH   6   8
ATOM      8  C   UNL     1      45.590   2.949   8.729  0.00  0.00    +0.000 A 
ATOM      9  C   UNL     1      45.887   3.915   7.751  0.00  0.00    +0.000 A 
ATOM     10  C   UNL     1      46.593   3.581   6.589  0.00  0.00    +0.000 A 
ATOM     11  C   UNL     1      47.017   2.272   6.379  0.00  0.00    +0.000 A 
ATOM     12  C   UNL     1      46.734   1.296   7.326  0.00  0.00    +0.000 A 
ATOM     13  C   UNL     1      46.027   1.633   8.484  0.00  0.00    +0.000 A 
ENDBRANCH   6   8
ENDBRANCH   1   2
BRANCH   1  14
ATOM     14  S   UNL     1      46.568   5.909  13.295  0.00  0.00    +0.000 S 
BRANCH  14  19
ATOM     15  C   UNL     1      49.203   8.539  11.736  0.00  0.00    +0.000 A 
ATOM     16  C   UNL     1      48.491   9.737  11.641  0.00  0.00    +0.000 A 
ATOM     17  C   UNL     1      47.158   9.784  12.056  0.00  0.00    +0.000 A 
ATOM     18  C   UNL     1      46.533   8.637  12.560  0.00  0.00    +0.000 A 
ATOM     19  C   UNL     1      47.229   7.429  12.640  0.00  0.00    +0.000 A 
ATOM     20  C   UNL     1      48.569   7.393  12.231  0.00  0.00    +0.000 A 
BRANCH  15  22
ATOM     21  N   UNL     1      51.443   9.486  11.545  0.00  0.00    +0.000 N 
ATOM     22  C   UNL     1      50.618   8.422  11.304  0.00  0.00    +0.000 C 
ATOM     23  O   UNL     1      51.052   7.401  10.783  0.00  0.00    +0.000 OA
ATOM     24  H   UNL     1      52.424   9.337  11.352  0.00  0.00    +0.000 HD
ATOM     25  H   UNL     1      51.200  10.217  12.200  0.00  0.00    +0.000 HD
ENDBRANCH  15  22
ENDBRANCH  14  19
ENDBRANCH   1  14
TORSDOF 5
ENDMDL
MODEL 7
REMARK VINA RESULT:    -6.931      2.229      2.668
REMARK INTER + INTRA:          -9.749
REMARK INTER:                  -9.032
REMARK INTRA:                  -0.717
REMARK UNBOUND:                -0.792
REMARK  Name = 
REMARK  5 active torsions:
REMARK  status: ('A' for Active; 'I' for Inactive)
REMARK    1  A    between atoms: C_2  and  C_4
REMARK    2  A    between atoms: C_8  and  S_9
REMARK    3  A    between atoms: S_9  and  C_10
REMARK    4  A    between atoms: C_10  and  C_11
REMARK    5  A    between atoms: C_15  and  C_16
REMARK                            x       y       z     vdW  Elec       q    Type
REMARK                         _______ _______ _______ _____ _____    ______ ____
ROOT
ATOM      1  C   UNL     1      44.799   6.427  12.844  0.00  0.00    +0.000 C 
ENDROOT
BRANCH   1   2
ATOM      2  C   UNL     1      44.421   5.184  12.064  0.00  0.00    +0.000 A 
ATOM      3  C   UNL     1      43.467   4.298  12.564  0.00  0.00    +0.000 A 
ATOM      4  C   UNL     1      43.197   3.139  11.852  0.00  0.00    +0.000 A 
ATOM      5  N   UNL     1      43.815   2.794  10.701  0.00  0.00    +0.000 NA
ATOM      6  C   UNL     1      44.768   3.631  10.223  0.00  0.00    +0.000 A 
ATOM      7  C   UNL     1      45.078   4.823  10.880  0.00  0.00    +0.000 A 
BRANCH   6   8
ATOM      8  C   UNL     1      45.476   3.201   8.996  0.00  0.00    +0.000 A 
ATOM      9  C   UNL     1      45.765   1.846   8.757  0.00  0.00    +0.000 A 
ATOM     10  C   UNL     1      46.432   1.438   7.596  0.00  0.00    +0.000 A 
ATOM     11  C   UNL     1      46.827   2.378   6.648  0.00  0.00    +0.000 A 
ATOM     12  C   UNL     1      46.559   3.724   6.860  0.00  0.00    +0.000 A 
ATOM     13  C   UNL     1      45.894   4.128   8.022  0.00  0.00    +0.000 A 
ENDBRANCH   6   8
ENDBRANCH   1   2
BRANCH   1  14
ATOM     14  S   UNL     1      45.560   7.727  11.811  0.00  0.00    +0.000 S 
BRANCH  14  19
ATOM     15  C   UNL     1      48.682   8.538  14.238  0.00  0.00    +0.000 A 
ATOM     16  C   UNL     1      49.807   8.155  13.505  0.00  0.00    +0.000 A 
ATOM     17  C   UNL     1      49.650   7.627  12.222  0.00  0.00    +0.000 A 
ATOM     18  C   UNL     1      48.371   7.473  11.673  0.00  0.00    +0.000 A 
ATOM     19  C   UNL     1      47.237   7.834  12.405  0.00  0.00    +0.000 A 
ATOM     20  C   UNL     1      47.405   8.372  13.687  0.00  0.00    +0.000 A 
BRANCH  15  22
ATOM     21  N   UNL     1      47.614   9.308  16.292  0.00  0.00    +0.000 N 
ATOM     22  C   UNL     1      48.781   9.098  15.610  0.00  0.00    +0.000 C 
ATOM     23  O   UNL     1      49.863   9.332  16.136  0.00  0.00    +0.000 OA
ATOM     24  H   UNL     1      47.712   9.576  17.262  0.00  0.00    +0.000 HD
ATOM     25  H   UNL     1      46.742   8.885  16.009  0.00  0.00    +0.000 HD
ENDBRANCH  15  22
ENDBRANCH  14  19
ENDBRANCH   1  14
TORSDOF 5
ENDMDL
MODEL 8
REMARK VINA RESULT:    -6.571      2.429      4.190
REMARK INTER + INTRA:          -9.283
REMARK INTER:                  -8.423
REMARK INTRA:                  -0.860
REMARK UNBOUND:                -0.792
REMARK  Name = 
REMARK  5 active torsions:
REMARK  status: ('A' for Active; 'I' for Inactive)
REMARK    1  A    between atoms: C_2  and  C_4
REMARK    2  A    between atoms: C_8  and  S_9
REMARK    3  A    between atoms: S_9  and  C_10
REMARK    4  A    between atoms: C_10  and  C_11
REMARK    5  A    between atoms: C_15  and  C_16
REMARK                            x       y       z     vdW  Elec       q    Type
REMARK                         _______ _______ _______ _____ _____    ______ ____
ROOT
ATOM      1  C   UNL     1      49.188   7.769  12.907  0.00  0.00    +0.000 C 
ENDROOT
BRANCH   1   2
ATOM      2  C   UNL     1      47.737   7.643  12.488  0.00  0.00    +0.000 A 
ATOM      3  C   UNL     1      46.798   8.590  12.897  0.00  0.00    +0.000 A 
ATOM      4  C   UNL     1      45.470   8.404  12.547  0.00  0.00    +0.000 A 
ATOM      5  N   UNL     1      45.010   7.345  11.845  0.00  0.00    +0.000 NA
ATOM      6  C   UNL     1      45.908   6.401  11.471  0.00  0.00    +0.000 A 
ATOM      7  C   UNL     1      47.265   6.533  11.774  0.00  0.00    +0.000 A 
BRANCH   6   8
ATOM      8  C   UNL     1      45.373   5.219  10.758  0.00  0.00    +0.000 A 
ATOM      9  C   UNL     1      45.568   5.051   9.376  0.00  0.00    +0.000 A 
ATOM     10  C   UNL     1      45.064   3.932   8.701  0.00  0.00    +0.000 A 
ATOM     11  C   UNL     1      44.353   2.957   9.394  0.00  0.00    +0.000 A 
ATOM     12  C   UNL     1      44.141   3.100  10.760  0.00  0.00    +0.000 A 
ATOM     13  C   UNL     1      44.643   4.219  11.430  0.00  0.00    +0.000 A 
ENDBRANCH   6   8
ENDBRANCH   1   2
BRANCH   1  14
ATOM     14  S   UNL     1      49.400   8.453  14.588  0.00  0.00    +0.000 S 
BRANCH  14  19
ATOM     15  C   UNL     1      48.283   4.983  16.322  0.00  0.00    +0.000 A 
ATOM     16  C   UNL     1      49.281   4.722  17.263  0.00  0.00    +0.000 A 
ATOM     17  C   UNL     1      50.349   5.611  17.404  0.00  0.00    +0.000 A 
ATOM     18  C   UNL     1      50.425   6.756  16.602  0.00  0.00    +0.000 A 
ATOM     19  C   UNL     1      49.444   7.017  15.643  0.00  0.00    +0.000 A 
ATOM     20  C   UNL     1      48.371   6.125  15.516  0.00  0.00    +0.000 A 
BRANCH  15  22
ATOM     21  N   UNL     1      46.650   3.934  14.844  0.00  0.00    +0.000 N 
ATOM     22  C   UNL     1      47.127   4.073  16.119  0.00  0.00    +0.000 C 
ATOM     23  O   UNL     1      46.634   3.439  17.043  0.00  0.00    +0.000 OA
ATOM     24  H   UNL     1      45.945   3.222  14.712  0.00  0.00    +0.000 HD
ATOM     25  H   UNL     1      47.186   4.218  14.036  0.00  0.00    +0.000 HD
ENDBRANCH  15  22
ENDBRANCH  14  19
ENDBRANCH   1  14
TORSDOF 5
ENDMDL
MODEL 9
REMARK VINA RESULT:    -6.530      2.302      7.454
REMARK INTER + INTRA:          -9.231
REMARK INTER:                  -8.406
REMARK INTRA:                  -0.824
REMARK UNBOUND:                -0.792
REMARK  Name = 
REMARK  5 active torsions:
REMARK  status: ('A' for Active; 'I' for Inactive)
REMARK    1  A    between atoms: C_2  and  C_4
REMARK    2  A    between atoms: C_8  and  S_9
REMARK    3  A    between atoms: S_9  and  C_10
REMARK    4  A    between atoms: C_10  and  C_11
REMARK    5  A    between atoms: C_15  and  C_16
REMARK                            x       y       z     vdW  Elec       q    Type
REMARK                         _______ _______ _______ _____ _____    ______ ____
ROOT
ATOM      1  C   UNL     1      47.073   6.984  11.763  0.00  0.00    +0.000 C 
ENDROOT
BRANCH   1   2
ATOM      2  C   UNL     1      47.890   7.029  13.038  0.00  0.00    +0.000 A 
ATOM      3  C   UNL     1      48.925   7.953  13.183  0.00  0.00    +0.000 A 
ATOM      4  C   UNL     1      49.690   7.919  14.339  0.00  0.00    +0.000 A 
ATOM      5  N   UNL     1      49.514   7.029  15.341  0.00  0.00    +0.000 NA
ATOM      6  C   UNL     1      48.533   6.105  15.196  0.00  0.00    +0.000 A 
ATOM      7  C   UNL     1      47.713   6.092  14.066  0.00  0.00    +0.000 A 
BRANCH   6   8
ATOM      8  C   UNL     1      48.400   5.101  16.276  0.00  0.00    +0.000 A 
ATOM      9  C   UNL     1      49.339   5.024  17.319  0.00  0.00    +0.000 A 
ATOM     10  C   UNL     1      49.213   4.077  18.343  0.00  0.00    +0.000 A 
ATOM     11  C   UNL     1      48.145   3.185  18.344  0.00  0.00    +0.000 A 
ATOM     12  C   UNL     1      47.204   3.235  17.323  0.00  0.00    +0.000 A 
ATOM     13  C   UNL     1      47.334   4.181  16.301  0.00  0.00    +0.000 A 
ENDBRANCH   6   8
ENDBRANCH   1   2
BRANCH   1  14
ATOM     14  S   UNL     1      45.275   7.136  12.048  0.00  0.00    +0.000 S 
BRANCH  14  19
ATOM     15  C   UNL     1      44.460   3.527  10.435  0.00  0.00    +0.000 A 
ATOM     16  C   UNL     1      43.728   2.858  11.418  0.00  0.00    +0.000 A 
ATOM     17  C   UNL     1      43.454   3.496  12.630  0.00  0.00    +0.000 A 
ATOM     18  C   UNL     1      43.914   4.798  12.864  0.00  0.00    +0.000 A 
ATOM     19  C   UNL     1      44.664   5.469  11.895  0.00  0.00    +0.000 A 
ATOM     20  C   UNL     1      44.926   4.825  10.678  0.00  0.00    +0.000 A 
BRANCH  15  22
ATOM     21  N   UNL     1      44.378   3.547   7.996  0.00  0.00    +0.000 N 
ATOM     22  C   UNL     1      44.792   2.901   9.130  0.00  0.00    +0.000 C 
ATOM     23  O   UNL     1      45.442   1.866   9.057  0.00  0.00    +0.000 OA
ATOM     24  H   UNL     1      44.718   3.167   7.123  0.00  0.00    +0.000 HD
ATOM     25  H   UNL     1      44.088   4.514   8.004  0.00  0.00    +0.000 HD
ENDBRANCH  15  22
ENDBRANCH  14  19
ENDBRANCH   1  14
TORSDOF 5
ENDMDL
