MODEL 1
REMARK VINA RESULT:    -6.717      0.000      0.000
REMARK INTER + INTRA:          -8.835
REMARK INTER:                  -8.484
REMARK INTRA:                  -0.350
REMARK UNBOUND:                -0.350
REMARK  Name = 
REMARK  5 active torsions:
REMARK  status: ('A' for Active; 'I' for Inactive)
REMARK    1  A    between atoms: N_1  and  C_2
REMARK    2  A    between atoms: C_2  and  C_3
REMARK    3  A    between atoms: N_8  and  C_9
REMARK    4  A    between atoms: C_9  and  C_10
REMARK    5  A    between atoms: C_10  and  C_11
REMARK                            x       y       z     vdW  Elec       q    Type
REMARK                         _______ _______ _______ _____ _____    ______ ____
ROOT
ATOM      1  C   UNL     1      44.192   4.119  12.301  0.00  0.00    +0.000 A 
ATOM      2  C   UNL     1      44.337   5.240  13.111  0.00  0.00    +0.000 A 
ATOM      3  C   UNL     1      44.940   6.362  12.566  0.00  0.00    +0.000 A 
ATOM      4  N   UNL     1      45.399   6.441  11.294  0.00  0.00    +0.000 NA
ATOM      5  C   UNL     1      45.254   5.361  10.505  0.00  0.00    +0.000 A 
ATOM      6  N   UNL     1      45.717   5.476   9.213  0.00  0.00    +0.000 N 
ATOM      7  C   UNL     1      44.656   4.200  10.984  0.00  0.00    +0.000 A 
ATOM      8  H   UNL     1      46.167   6.357   8.999  0.00  0.00    +0.000 HD
ENDROOT
BRANCH   1   9
ATOM      9  C   UNL     1      43.549   2.851  12.787  0.00  0.00    +0.000 C 
BRANCH   9  10
ATOM     10  N   UNL     1      42.979   2.089  11.681  0.00  0.00    +0.000 NA
ATOM     11  H   UNL     1      42.039   2.427  11.487  0.00  0.00    +0.000 HD
ATOM     12  H   UNL     1      42.885   1.115  11.964  0.00  0.00    +0.000 HD
ENDBRANCH   9  10
ENDBRANCH   1   9
BRANCH   6  13
ATOM     13  C   UNL     1      45.663   4.377   8.273  0.00  0.00    +0.000 C 
BRANCH  13  14
ATOM     14  C   UNL     1      46.886   4.314   7.360  0.00  0.00    +0.000 C 
BRANCH  14  15
ATOM     15  C   UNL     1      46.966   2.964   6.681  0.00  0.00    +0.000 A 
ATOM     16  C   UNL     1      47.195   2.876   5.300  0.00  0.00    +0.000 A 
ATOM     17  C   UNL     1      47.314   1.633   4.676  0.00  0.00    +0.000 A 
ATOM     18  C   UNL     1      47.213   0.461   5.426  0.00  0.00    +0.000 A 
ATOM     19  C   UNL     1      46.996   0.540   6.800  0.00  0.00    +0.000 A 
ATOM     20 CL   UNL     1      46.885  -0.905   7.729  0.00  0.00    +0.000 Cl
ATOM     21  C   UNL     1      46.878   1.780   7.430  0.00  0.00    +0.000 A 
ENDBRANCH  14  15
ENDBRANCH  13  14
ENDBRANCH   6  13
TORSDOF 5
ENDMDL
MODEL 2
REMARK VINA RESULT:    -6.655      1.936      3.389
REMARK INTER + INTRA:          -8.757
REMARK INTER:                  -8.435
REMARK INTRA:                  -0.321
REMARK UNBOUND:                -0.350
REMARK  Name = 
REMARK  5 active torsions:
REMARK  status: ('A' for Active; 'I' for Inactive)
REMARK    1  A    between atoms: N_1  and  C_2
REMARK    2  A    between atoms: C_2  and  C_3
REMARK    3  A    between atoms: N_8  and  C_9
REMARK    4  A    between atoms: C_9  and  C_10
REMARK    5  A    between atoms: C_10  and  C_11
REMARK                            x       y       z     vdW  Elec       q    Type
REMARK                         _______ _______ _______ _____ _____    ______ ____
ROOT
ATOM      1  C   UNL     1      46.923   7.365  13.036  0.00  0.00    +0.000 A 
ATOM      2  C   UNL     1      46.416   8.660  13.025  0.00  0.00    +0.000 A 
ATOM      3  C   UNL     1      45.318   8.919  12.222  0.00  0.00    +0.000 A 
ATOM      4  N   UNL     1      44.703   7.996  11.445  0.00  0.00    +0.000 NA
ATOM      5  C   UNL     1      45.187   6.740  11.459  0.00  0.00    +0.000 A 
ATOM      6  N   UNL     1      44.533   5.820  10.670  0.00  0.00    +0.000 N 
ATOM      7  C   UNL     1      46.286   6.405  12.243  0.00  0.00    +0.000 A 
ATOM      8  H   UNL     1      43.773   6.197  10.117  0.00  0.00    +0.000 HD
ENDROOT
BRANCH   1   9
ATOM      9  C   UNL     1      48.108   6.970  13.873  0.00  0.00    +0.000 C 
BRANCH   9  10
ATOM     10  N   UNL     1      49.224   6.535  13.040  0.00  0.00    +0.000 NA
ATOM     11  H   UNL     1      50.029   6.341  13.630  0.00  0.00    +0.000 HD
ATOM     12  H   UNL     1      49.492   7.299  12.422  0.00  0.00    +0.000 HD
ENDBRANCH   9  10
ENDBRANCH   1   9
BRANCH   6  13
ATOM     13  C   UNL     1      44.975   4.446  10.558  0.00  0.00    +0.000 C 
BRANCH  13  14
ATOM     14  C   UNL     1      44.312   3.700   9.402  0.00  0.00    +0.000 C 
BRANCH  14  15
ATOM     15  C   UNL     1      45.363   3.077   8.509  0.00  0.00    +0.000 A 
ATOM     16  C   UNL     1      46.188   3.884   7.712  0.00  0.00    +0.000 A 
ATOM     17  C   UNL     1      47.190   3.318   6.922  0.00  0.00    +0.000 A 
ATOM     18  C   UNL     1      47.383   1.937   6.922  0.00  0.00    +0.000 A 
ATOM     19  C   UNL     1      46.576   1.128   7.718  0.00  0.00    +0.000 A 
ATOM     20 CL   UNL     1      46.823  -0.575   7.730  0.00  0.00    +0.000 Cl
ATOM     21  C   UNL     1      45.574   1.689   8.513  0.00  0.00    +0.000 A 
ENDBRANCH  14  15
ENDBRANCH  13  14
ENDBRANCH   6  13
TORSDOF 5
ENDMDL
MODEL 3
REMARK VINA RESULT:    -6.637      2.090      3.951
REMARK INTER + INTRA:          -8.734
REMARK INTER:                  -8.144
REMARK INTRA:                  -0.590
REMARK UNBOUND:                -0.350
REMARK  Name = 
REMARK  5 active torsions:
REMARK  status: ('A' for Active; 'I' for Inactive)
REMARK    1  A    between atoms: N_1  and  C_2
REMARK    2  A    between atoms: C_2  and  C_3
REMARK    3  A    between atoms: N_8  and  C_9
REMARK    4  A    between atoms: C_9  and  C_10
REMARK    5  A    between atoms: C_10  and  C_11
REMARK                            x       y       z     vdW  Elec       q    Type
REMARK                         _______ _______ _______ _____ _____    ______ ____
ROOT
ATOM      1  C   UNL     1      46.204   6.859  12.720  0.00  0.00    +0.000 A 
ATOM      2  C   UNL     1      47.216   6.682  13.656  0.00  0.00    +0.000 A 
ATOM      3  C   UNL     1      47.416   5.409  14.164  0.00  0.00    +0.000 A 
ATOM      4  N   UNL     1      46.690   4.322  13.809  0.00  0.00    +0.000 NA
ATOM      5  C   UNL     1      45.714   4.488  12.897  0.00  0.00    +0.000 A 
ATOM      6  N   UNL     1      45.002   3.363  12.545  0.00  0.00    +0.000 N 
ATOM      7  C   UNL     1      45.458   5.738  12.343  0.00  0.00    +0.000 A 
ATOM      8  H   UNL     1      45.258   2.523  13.049  0.00  0.00    +0.000 HD
ENDROOT
BRANCH   1   9
ATOM      9  C   UNL     1      45.903   8.196  12.101  0.00  0.00    +0.000 C 
BRANCH   9  10
ATOM     10  N   UNL     1      45.256   9.088  13.056  0.00  0.00    +0.000 NA
ATOM     11  H   UNL     1      45.436   8.759  14.001  0.00  0.00    +0.000 HD
ATOM     12  H   UNL     1      44.247   9.045  12.919  0.00  0.00    +0.000 HD
ENDBRANCH   9  10
ENDBRANCH   1   9
BRANCH   6  13
ATOM     13  C   UNL     1      43.899   3.408  11.610  0.00  0.00    +0.000 C 
BRANCH  13  14
ATOM     14  C   UNL     1      43.976   2.317  10.544  0.00  0.00    +0.000 C 
BRANCH  14  15
ATOM     15  C   UNL     1      44.880   2.753   9.412  0.00  0.00    +0.000 A 
ATOM     16  C   UNL     1      45.001   4.111   9.082  0.00  0.00    +0.000 A 
ATOM     17  C   UNL     1      45.868   4.523   8.069  0.00  0.00    +0.000 A 
ATOM     18  C   UNL     1      46.630   3.583   7.375  0.00  0.00    +0.000 A 
ATOM     19  C   UNL     1      46.525   2.234   7.704  0.00  0.00    +0.000 A 
ATOM     20 CL   UNL     1      47.476   1.074   6.859  0.00  0.00    +0.000 Cl
ATOM     21  C   UNL     1      45.661   1.815   8.718  0.00  0.00    +0.000 A 
ENDBRANCH  14  15
ENDBRANCH  13  14
ENDBRANCH   6  13
TORSDOF 5
ENDMDL
MODEL 4
REMARK VINA RESULT:    -6.386      4.363      6.077
REMARK INTER + INTRA:          -8.416
REMARK INTER:                  -8.077
REMARK INTRA:                  -0.339
REMARK UNBOUND:                -0.350
REMARK  Name = 
REMARK  5 active torsions:
REMARK  status: ('A' for Active; 'I' for Inactive)
REMARK    1  A    between atoms: N_1  and  C_2
REMARK    2  A    between atoms: C_2  and  C_3
REMARK    3  A    between atoms: N_8  and  C_9
REMARK    4  A    between atoms: C_9  and  C_10
REMARK    5  A    between atoms: C_10  and  C_11
REMARK                            x       y       z     vdW  Elec       q    Type
REMARK                         _______ _______ _______ _____ _____    ______ ____
ROOT
ATOM      1  C   UNL     1      47.972   4.383  17.584  0.00  0.00    +0.000 A 
ATOM      2  C   UNL     1      48.763   3.251  17.748  0.00  0.00    +0.000 A 
ATOM      3  C   UNL     1      48.883   2.381  16.677  0.00  0.00    +0.000 A 
ATOM      4  N   UNL     1      48.282   2.560  15.476  0.00  0.00    +0.000 NA
ATOM      5  C   UNL     1      47.522   3.658  15.311  0.00  0.00    +0.000 A 
ATOM      6  N   UNL     1      46.935   3.820  14.076  0.00  0.00    +0.000 N 
ATOM      7  C   UNL     1      47.357   4.576  16.343  0.00  0.00    +0.000 A 
ATOM      8  H   UNL     1      47.099   3.062  13.424  0.00  0.00    +0.000 HD
ENDROOT
BRANCH   1   9
ATOM      9  C   UNL     1      47.776   5.395  18.678  0.00  0.00    +0.000 C 
BRANCH   9  10
ATOM     10  N   UNL     1      46.362   5.559  18.999  0.00  0.00    +0.000 NA
ATOM     11  H   UNL     1      45.886   5.996  18.214  0.00  0.00    +0.000 HD
ATOM     12  H   UNL     1      46.274   6.198  19.788  0.00  0.00    +0.000 HD
ENDBRANCH   9  10
ENDBRANCH   1   9
BRANCH   6  13
ATOM     13  C   UNL     1      46.058   4.932  13.778  0.00  0.00    +0.000 C 
BRANCH  13  14
ATOM     14  C   UNL     1      44.755   4.500  13.107  0.00  0.00    +0.000 C 
BRANCH  14  15
ATOM     15  C   UNL     1      44.950   4.380  11.611  0.00  0.00    +0.000 A 
ATOM     16  C   UNL     1      45.402   5.478  10.863  0.00  0.00    +0.000 A 
ATOM     17  C   UNL     1      45.627   5.360   9.491  0.00  0.00    +0.000 A 
ATOM     18  C   UNL     1      45.409   4.141   8.848  0.00  0.00    +0.000 A 
ATOM     19  C   UNL     1      44.972   3.043   9.585  0.00  0.00    +0.000 A 
ATOM     20 CL   UNL     1      44.717   1.535   8.796  0.00  0.00    +0.000 Cl
ATOM     21  C   UNL     1      44.747   3.154  10.958  0.00  0.00    +0.000 A 
ENDBRANCH  14  15
ENDBRANCH  13  14
ENDBRANCH   6  13
TORSDOF 5
ENDMDL
MODEL 5
REMARK VINA RESULT:    -6.322      1.446      2.650
REMARK INTER + INTRA:          -8.335
REMARK INTER:                  -8.161
REMARK INTRA:                  -0.174
REMARK UNBOUND:                -0.350
REMARK  Name = 
REMARK  5 active torsions:
REMARK  status: ('A' for Active; 'I' for Inactive)
REMARK    1  A    between atoms: N_1  and  C_2
REMARK    2  A    between atoms: C_2  and  C_3
REMARK    3  A    between atoms: N_8  and  C_9
REMARK    4  A    between atoms: C_9  and  C_10
REMARK    5  A    between atoms: C_10  and  C_11
REMARK                            x       y       z     vdW  Elec       q    Type
REMARK                         _______ _______ _______ _____ _____    ______ ____
ROOT
ATOM      1  C   UNL     1      45.028   7.041  11.792  0.00  0.00    +0.000 A 
ATOM      2  C   UNL     1      45.333   6.679  13.099  0.00  0.00    +0.000 A 
ATOM      3  C   UNL     1      45.527   5.335  13.372  0.00  0.00    +0.000 A 
ATOM      4  N   UNL     1      45.441   4.347  12.450  0.00  0.00    +0.000 NA
ATOM      5  C   UNL     1      45.153   4.695  11.182  0.00  0.00    +0.000 A 
ATOM      6  N   UNL     1      45.086   3.671  10.263  0.00  0.00    +0.000 N 
ATOM      7  C   UNL     1      44.947   6.026  10.833  0.00  0.00    +0.000 A 
ATOM      8  H   UNL     1      45.215   2.744  10.649  0.00  0.00    +0.000 HD
ENDROOT
BRANCH   1   9
ATOM      9  C   UNL     1      44.802   8.470  11.382  0.00  0.00    +0.000 C 
BRANCH   9  10
ATOM     10  N   UNL     1      44.708   9.345  12.546  0.00  0.00    +0.000 NA
ATOM     11  H   UNL     1      45.296  10.163  12.401  0.00  0.00    +0.000 HD
ATOM     12  H   UNL     1      45.082   8.857  13.358  0.00  0.00    +0.000 HD
ENDBRANCH   9  10
ENDBRANCH   1   9
BRANCH   6  13
ATOM     13  C   UNL     1      44.743   3.899   8.876  0.00  0.00    +0.000 C 
BRANCH  13  14
ATOM     14  C   UNL     1      45.946   4.301   8.024  0.00  0.00    +0.000 C 
BRANCH  14  15
ATOM     15  C   UNL     1      46.425   3.123   7.204  0.00  0.00    +0.000 A 
ATOM     16  C   UNL     1      46.949   3.319   5.917  0.00  0.00    +0.000 A 
ATOM     17  C   UNL     1      47.434   2.241   5.175  0.00  0.00    +0.000 A 
ATOM     18  C   UNL     1      47.409   0.954   5.712  0.00  0.00    +0.000 A 
ATOM     19  C   UNL     1      46.902   0.752   6.994  0.00  0.00    +0.000 A 
ATOM     20 CL   UNL     1      46.885  -0.833   7.663  0.00  0.00    +0.000 Cl
ATOM     21  C   UNL     1      46.417   1.826   7.742  0.00  0.00    +0.000 A 
ENDBRANCH  14  15
ENDBRANCH  13  14
ENDBRANCH   6  13
TORSDOF 5
ENDMDL
MODEL 6
REMARK VINA RESULT:    -5.923      5.641      8.512
REMARK INTER + INTRA:          -7.831
REMARK INTER:                  -7.557
REMARK INTRA:                  -0.274
REMARK UNBOUND:                -0.350
REMARK  Name = 
REMARK  5 active torsions:
REMARK  status: ('A' for Active; 'I' for Inactive)
REMARK    1  A    between atoms: N_1  and  C_2
REMARK    2  A    between atoms: C_2  and  C_3
REMARK    3  A    between atoms: N_8  and  C_9
REMARK    4  A    between atoms: C_9  and  C_10
REMARK    5  A    between atoms: C_10  and  C_11
REMARK                            x       y       z     vdW  Elec       q    Type
REMARK                         _______ _______ _______ _____ _____    ______ ____
ROOT
ATOM      1  C   UNL     1      45.278   5.934  12.037  0.00  0.00    +0.000 A 
ATOM      2  C   UNL     1      44.794   4.967  11.163  0.00  0.00    +0.000 A 
ATOM      3  C   UNL     1      44.991   3.636  11.492  0.00  0.00    +0.000 A 
ATOM      4  N   UNL     1      45.624   3.211  12.612  0.00  0.00    +0.000 NA
ATOM      5  C   UNL     1      46.088   4.144  13.464  0.00  0.00    +0.000 A 
ATOM      6  N   UNL     1      46.715   3.682  14.600  0.00  0.00    +0.000 N 
ATOM      7  C   UNL     1      45.925   5.500  13.199  0.00  0.00    +0.000 A 
ATOM      8  H   UNL     1      46.806   2.675  14.657  0.00  0.00    +0.000 HD
ENDROOT
BRANCH   1   9
ATOM      9  C   UNL     1      45.117   7.406  11.781  0.00  0.00    +0.000 C 
BRANCH   9  10
ATOM     10  N   UNL     1      43.807   7.703  11.209  0.00  0.00    +0.000 NA
ATOM     11  H   UNL     1      43.132   7.831  11.960  0.00  0.00    +0.000 HD
ATOM     12  H   UNL     1      43.493   6.900  10.667  0.00  0.00    +0.000 HD
ENDBRANCH   9  10
ENDBRANCH   1   9
BRANCH   6  13
ATOM     13  C   UNL     1      47.298   4.576  15.577  0.00  0.00    +0.000 C 
BRANCH  13  14
ATOM     14  C   UNL     1      47.559   3.899  16.922  0.00  0.00    +0.000 C 
BRANCH  14  15
ATOM     15  C   UNL     1      49.047   3.807  17.182  0.00  0.00    +0.000 A 
ATOM     16  C   UNL     1      49.798   4.965  17.431  0.00  0.00    +0.000 A 
ATOM     17  C   UNL     1      51.162   4.881  17.716  0.00  0.00    +0.000 A 
ATOM     18  C   UNL     1      51.792   3.638  17.763  0.00  0.00    +0.000 A 
ATOM     19  C   UNL     1      51.051   2.482  17.529  0.00  0.00    +0.000 A 
ATOM     20 CL   UNL     1      51.824   0.945  17.601  0.00  0.00    +0.000 Cl
ATOM     21  C   UNL     1      49.686   2.559  17.245  0.00  0.00    +0.000 A 
ENDBRANCH  14  15
ENDBRANCH  13  14
ENDBRANCH   6  13
TORSDOF 5
ENDMDL
MODEL 7
REMARK VINA RESULT:    -5.850      5.343      8.115
REMARK INTER + INTRA:          -7.739
REMARK INTER:                  -7.446
REMARK INTRA:                  -0.293
REMARK UNBOUND:                -0.350
REMARK  Name = 
REMARK  5 active torsions:
REMARK  status: ('A' for Active; 'I' for Inactive)
REMARK    1  A    between atoms: N_1  and  C_2
REMARK    2  A    between atoms: C_2  and  C_3
REMARK    3  A    between atoms: N_8  and  C_9
REMARK    4  A    between atoms: C_9  and  C_10
REMARK    5  A    between atoms: C_10  and  C_11
REMARK                            x       y       z     vdW  Elec       q    Type
REMARK                         _______ _______ _______ _____ _____    ______ ____
ROOT
ATOM      1  C   UNL     1      44.673   4.295  11.645  0.00  0.00    +0.000 A 
ATOM      2  C   UNL     1      44.474   5.580  11.153  0.00  0.00    +0.000 A 
ATOM      3  C   UNL     1      45.038   6.637  11.849  0.00  0.00    +0.000 A 
ATOM      4  N   UNL     1      45.773   6.503  12.979  0.00  0.00    +0.000 NA
ATOM      5  C   UNL     1      45.973   5.260  13.454  0.00  0.00    +0.000 A 
ATOM      6  N   UNL     1      46.736   5.153  14.596  0.00  0.00    +0.000 N 
ATOM      7  C   UNL     1      45.439   4.151  12.807  0.00  0.00    +0.000 A 
ATOM      8  H   UNL     1      47.033   6.036  14.993  0.00  0.00    +0.000 HD
ENDROOT
BRANCH   1   9
ATOM      9  C   UNL     1      44.110   3.076  10.969  0.00  0.00    +0.000 C 
BRANCH   9  10
ATOM     10  N   UNL     1      43.443   2.200  11.926  0.00  0.00    +0.000 NA
ATOM     11  H   UNL     1      44.080   1.988  12.690  0.00  0.00    +0.000 HD
ATOM     12  H   UNL     1      43.228   1.315  11.470  0.00  0.00    +0.000 HD
ENDBRANCH   9  10
ENDBRANCH   1   9
BRANCH   6  13
ATOM     13  C   UNL     1      46.992   3.881  15.238  0.00  0.00    +0.000 C 
BRANCH  13  14
ATOM     14  C   UNL     1      47.234   4.011  16.741  0.00  0.00    +0.000 C 
BRANCH  14  15
ATOM     15  C   UNL     1      48.715   3.935  17.042  0.00  0.00    +0.000 A 
ATOM     16  C   UNL     1      49.446   5.101  17.311  0.00  0.00    +0.000 A 
ATOM     17  C   UNL     1      50.802   5.033  17.634  0.00  0.00    +0.000 A 
ATOM     18  C   UNL     1      51.444   3.797  17.699  0.00  0.00    +0.000 A 
ATOM     19  C   UNL     1      50.723   2.632  17.445  0.00  0.00    +0.000 A 
ATOM     20 CL   UNL     1      51.511   1.105  17.539  0.00  0.00    +0.000 Cl
ATOM     21  C   UNL     1      49.366   2.694  17.123  0.00  0.00    +0.000 A 
ENDBRANCH  14  15
ENDBRANCH  13  14
ENDBRANCH   6  13
TORSDOF 5
ENDMDL
MODEL 8
REMARK VINA RESULT:    -5.817      4.238      6.864
REMARK INTER + INTRA:          -7.697
REMARK INTER:                  -7.340
REMARK INTRA:                  -0.357
REMARK UNBOUND:                -0.350
REMARK  Name = 
REMARK  5 active torsions:
REMARK  status: ('A' for Active; 'I' for Inactive)
REMARK    1  A    between atoms: N_1  and  C_2
REMARK    2  A    between atoms: C_2  and  C_3
REMARK    3  A    between atoms: N_8  and  C_9
REMARK    4  A    between atoms: C_9  and  C_10
REMARK    5  A    between atoms: C_10  and  C_11
REMARK                            x       y       z     vdW  Elec       q    Type
REMARK                         _______ _______ _______ _____ _____    ______ ____
ROOT
ATOM      1  C   UNL     1      44.381   3.990  10.412  0.00  0.00    +0.000 A 
ATOM      2  C   UNL     1      43.666   2.978  11.044  0.00  0.00    +0.000 A 
ATOM      3  C   UNL     1      43.622   2.982  12.428  0.00  0.00    +0.000 A 
ATOM      4  N   UNL     1      44.227   3.907  13.211  0.00  0.00    +0.000 NA
ATOM      5  C   UNL     1      44.914   4.892  12.602  0.00  0.00    +0.000 A 
ATOM      6  N   UNL     1      45.506   5.826  13.422  0.00  0.00    +0.000 N 
ATOM      7  C   UNL     1      45.000   4.953  11.215  0.00  0.00    +0.000 A 
ATOM      8  H   UNL     1      45.404   5.648  14.414  0.00  0.00    +0.000 HD
ENDROOT
BRANCH   1   9
ATOM      9  C   UNL     1      44.492   4.086   8.916  0.00  0.00    +0.000 C 
BRANCH   9  10
ATOM     10  N   UNL     1      45.554   5.006   8.522  0.00  0.00    +0.000 NA
ATOM     11  H   UNL     1      45.414   5.288   7.555  0.00  0.00    +0.000 HD
ATOM     12  H   UNL     1      46.446   4.515   8.557  0.00  0.00    +0.000 HD
ENDBRANCH   9  10
ENDBRANCH   1   9
BRANCH   6  13
ATOM     13  C   UNL     1      46.310   6.912  12.902  0.00  0.00    +0.000 C 
BRANCH  13  14
ATOM     14  C   UNL     1      47.793   6.560  12.801  0.00  0.00    +0.000 C 
BRANCH  14  15
ATOM     15  C   UNL     1      48.569   7.719  12.215  0.00  0.00    +0.000 A 
ATOM     16  C   UNL     1      47.968   8.979  12.078  0.00  0.00    +0.000 A 
ATOM     17  C   UNL     1      48.693  10.063  11.580  0.00  0.00    +0.000 A 
ATOM     18  C   UNL     1      50.030   9.903  11.218  0.00  0.00    +0.000 A 
ATOM     19  C   UNL     1      50.638   8.658  11.360  0.00  0.00    +0.000 A 
ATOM     20 CL   UNL     1      52.292   8.463  10.927  0.00  0.00    +0.000 Cl
ATOM     21  C   UNL     1      49.919   7.570  11.860  0.00  0.00    +0.000 A 
ENDBRANCH  14  15
ENDBRANCH  13  14
ENDBRANCH   6  13
TORSDOF 5
ENDMDL
MODEL 9
REMARK VINA RESULT:    -5.726      3.731      6.992
REMARK INTER + INTRA:          -7.582
REMARK INTER:                  -7.042
REMARK INTRA:                  -0.540
REMARK UNBOUND:                -0.350
REMARK  Name = 
REMARK  5 active torsions:
REMARK  status: ('A' for Active; 'I' for Inactive)
REMARK    1  A    between atoms: N_1  and  C_2
REMARK    2  A    between atoms: C_2  and  C_3
REMARK    3  A    between atoms: N_8  and  C_9
REMARK    4  A    between atoms: C_9  and  C_10
REMARK    5  A    between atoms: C_10  and  C_11
REMARK                            x       y       z     vdW  Elec       q    Type
REMARK                         _______ _______ _______ _____ _____    ______ ____
ROOT
ATOM      1  C   UNL     1      45.475   3.997   8.858  0.00  0.00    +0.000 A 
ATOM      2  C   UNL     1      45.120   2.716   8.448  0.00  0.00    +0.000 A 
ATOM      3  C   UNL     1      44.298   1.973   9.280  0.00  0.00    +0.000 A 
ATOM      4  N   UNL     1      43.814   2.411  10.467  0.00  0.00    +0.000 NA
ATOM      5  C   UNL     1      44.150   3.653  10.863  0.00  0.00    +0.000 A 
ATOM      6  N   UNL     1      43.632   4.076  12.067  0.00  0.00    +0.000 N 
ATOM      7  C   UNL     1      44.970   4.457  10.078  0.00  0.00    +0.000 A 
ATOM      8  H   UNL     1      43.082   3.383  12.561  0.00  0.00    +0.000 HD
ENDROOT
BRANCH   1   9
ATOM      9  C   UNL     1      46.357   4.891   8.033  0.00  0.00    +0.000 C 
BRANCH   9  10
ATOM     10  N   UNL     1      46.950   4.165   6.915  0.00  0.00    +0.000 NA
ATOM     11  H   UNL     1      46.909   3.166   7.102  0.00  0.00    +0.000 HD
ATOM     12  H   UNL     1      47.937   4.409   6.848  0.00  0.00    +0.000 HD
ENDBRANCH   9  10
ENDBRANCH   1   9
BRANCH   6  13
ATOM     13  C   UNL     1      43.947   5.370  12.631  0.00  0.00    +0.000 C 
BRANCH  13  14
ATOM     14  C   UNL     1      45.265   5.378  13.405  0.00  0.00    +0.000 C 
BRANCH  14  15
ATOM     15  C   UNL     1      46.143   6.517  12.935  0.00  0.00    +0.000 A 
ATOM     16  C   UNL     1      47.507   6.306  12.684  0.00  0.00    +0.000 A 
ATOM     17  C   UNL     1      48.312   7.342  12.207  0.00  0.00    +0.000 A 
ATOM     18  C   UNL     1      47.762   8.601  11.968  0.00  0.00    +0.000 A 
ATOM     19  C   UNL     1      46.406   8.817  12.204  0.00  0.00    +0.000 A 
ATOM     20 CL   UNL     1      45.724  10.367  11.896  0.00  0.00    +0.000 Cl
ATOM     21  C   UNL     1      45.596   7.784  12.679  0.00  0.00    +0.000 A 
ENDBRANCH  14  15
ENDBRANCH  13  14
ENDBRANCH   6  13
TORSDOF 5
ENDMDL
