MODEL 1
REMARK VINA RESULT:    -7.596      0.000      0.000
REMARK INTER + INTRA:         -12.096
REMARK INTER:                 -11.149
REMARK INTRA:                  -0.947
REMARK UNBOUND:                -0.947
REMARK  Name = 
REMARK  8 active torsions:
REMARK  status: ('A' for Active; 'I' for Inactive)
REMARK    1  A    between atoms: C_2  and  O_3
REMARK    2  A    between atoms: C_2  and  C_11
REMARK    3  A    between atoms: O_3  and  C_4
REMARK    4  A    between atoms: C_4  and  C_5
REMARK    5  A    between atoms: C_14  and  C_15
REMARK    6  A    between atoms: C_15  and  N_16
REMARK    7  A    between atoms: N_16  and  C_17
REMARK    8  A    between atoms: C_17  and  C_18
REMARK                            x       y       z     vdW  Elec       q    Type
REMARK                         _______ _______ _______ _____ _____    ______ ____
ROOT
ATOM      1  C   UNL     1      44.953   4.406  11.359  0.00  0.00    +0.000 A 
ATOM      2  C   UNL     1      45.451   4.019  12.609  0.00  0.00    +0.000 A 
ATOM      3  C   UNL     1      46.387   4.816  13.278  0.00  0.00    +0.000 A 
ATOM      4  C   UNL     1      46.847   6.013  12.708  0.00  0.00    +0.000 A 
ATOM      5  C   UNL     1      46.339   6.399  11.459  0.00  0.00    +0.000 A 
ATOM      6  C   UNL     1      45.399   5.606  10.789  0.00  0.00    +0.000 A 
ENDROOT
BRANCH   1   8
ATOM      7  O   UNL     1      42.962   3.092  11.241  0.00  0.00    +0.000 OA
ATOM      8  C   UNL     1      43.964   3.517  10.684  0.00  0.00    +0.000 C 
BRANCH   8   9
ATOM      9  O   UNL     1      44.341   3.246   9.413  0.00  0.00    +0.000 OA
BRANCH   9  10
ATOM     10  C   UNL     1      44.976   1.978   9.195  0.00  0.00    +0.000 C 
BRANCH  10  11
ATOM     11  C   UNL     1      45.970   2.118   8.079  0.00  0.00    +0.000 A 
ATOM     12  C   UNL     1      46.083   3.302   7.346  0.00  0.00    +0.000 A 
ATOM     13  C   UNL     1      47.035   3.399   6.335  0.00  0.00    +0.000 A 
ATOM     14  C   UNL     1      47.851   2.307   6.094  0.00  0.00    +0.000 A 
ATOM     15  N   UNL     1      47.775   1.148   6.783  0.00  0.00    +0.000 NA
ATOM     16  C   UNL     1      46.841   1.082   7.759  0.00  0.00    +0.000 A 
ENDBRANCH  10  11
ENDBRANCH   9  10
ENDBRANCH   8   9
ENDBRANCH   1   8
BRANCH   4  17
ATOM     17  C   UNL     1      47.845   6.885  13.440  0.00  0.00    +0.000 C 
BRANCH  17  18
ATOM     18  N   UNL     1      48.728   6.093  14.297  0.00  0.00    +0.000 NA
ATOM     19  H   UNL     1      49.691   6.235  13.994  0.00  0.00    +0.000 HD
BRANCH  18  20
ATOM     20  C   UNL     1      48.596   6.484  15.700  0.00  0.00    +0.000 C 
BRANCH  20  21
ATOM     21  C   UNL     1      48.428   5.292  16.589  0.00  0.00    +0.000 A 
ATOM     22  C   UNL     1      47.274   4.532  16.614  0.00  0.00    +0.000 A 
ATOM     23  N   UNL     1      47.101   3.446  17.393  0.00  0.00    +0.000 NA
ATOM     24  C   UNL     1      48.144   3.120  18.174  0.00  0.00    +0.000 A 
ATOM     25  N   UNL     1      49.317   3.767  18.232  0.00  0.00    +0.000 NA
ATOM     26  C   UNL     1      49.429   4.847  17.431  0.00  0.00    +0.000 A 
ENDBRANCH  20  21
ENDBRANCH  18  20
ENDBRANCH  17  18
ENDBRANCH   4  17
TORSDOF 8
ENDMDL
MODEL 2
REMARK VINA RESULT:    -7.490      1.531      2.286
REMARK INTER + INTRA:         -11.940
REMARK INTER:                 -11.198
REMARK INTRA:                  -0.742
REMARK UNBOUND:                -0.947
REMARK  Name = 
REMARK  8 active torsions:
REMARK  status: ('A' for Active; 'I' for Inactive)
REMARK    1  A    between atoms: C_2  and  O_3
REMARK    2  A    between atoms: C_2  and  C_11
REMARK    3  A    between atoms: O_3  and  C_4
REMARK    4  A    between atoms: C_4  and  C_5
REMARK    5  A    between atoms: C_14  and  C_15
REMARK    6  A    between atoms: C_15  and  N_16
REMARK    7  A    between atoms: N_16  and  C_17
REMARK    8  A    between atoms: C_17  and  C_18
REMARK                            x       y       z     vdW  Elec       q    Type
REMARK                         _______ _______ _______ _____ _____    ______ ____
ROOT
ATOM      1  C   UNL     1      44.757   4.691  11.646  0.00  0.00    +0.000 A 
ATOM      2  C   UNL     1      45.209   3.468  12.157  0.00  0.00    +0.000 A 
ATOM      3  C   UNL     1      46.078   3.435  13.255  0.00  0.00    +0.000 A 
ATOM      4  C   UNL     1      46.514   4.623  13.859  0.00  0.00    +0.000 A 
ATOM      5  C   UNL     1      46.053   5.844  13.347  0.00  0.00    +0.000 A 
ATOM      6  C   UNL     1      45.180   5.881  12.252  0.00  0.00    +0.000 A 
ENDROOT
BRANCH   1   8
ATOM      7  O   UNL     1      42.861   5.398  10.377  0.00  0.00    +0.000 OA
ATOM      8  C   UNL     1      43.840   4.672  10.471  0.00  0.00    +0.000 C 
BRANCH   8   9
ATOM      9  O   UNL     1      44.231   3.745   9.564  0.00  0.00    +0.000 OA
BRANCH   9  10
ATOM     10  C   UNL     1      44.991   4.229   8.449  0.00  0.00    +0.000 C 
BRANCH  10  11
ATOM     11  C   UNL     1      45.843   3.112   7.919  0.00  0.00    +0.000 A 
ATOM     12  C   UNL     1      46.759   3.320   6.883  0.00  0.00    +0.000 A 
ATOM     13  C   UNL     1      47.547   2.264   6.437  0.00  0.00    +0.000 A 
ATOM     14  C   UNL     1      47.399   1.030   7.048  0.00  0.00    +0.000 A 
ATOM     15  N   UNL     1      46.530   0.791   8.053  0.00  0.00    +0.000 NA
ATOM     16  C   UNL     1      45.776   1.835   8.466  0.00  0.00    +0.000 A 
ENDBRANCH  10  11
ENDBRANCH   9  10
ENDBRANCH   8   9
ENDBRANCH   1   8
BRANCH   4  17
ATOM     17  C   UNL     1      47.438   4.587  15.058  0.00  0.00    +0.000 C 
BRANCH  17  18
ATOM     18  N   UNL     1      46.983   3.624  16.061  0.00  0.00    +0.000 NA
ATOM     19  H   UNL     1      47.200   2.683  15.734  0.00  0.00    +0.000 HD
BRANCH  18  20
ATOM     20  C   UNL     1      47.633   3.853  17.351  0.00  0.00    +0.000 C 
BRANCH  20  21
ATOM     21  C   UNL     1      49.029   3.313  17.365  0.00  0.00    +0.000 A 
ATOM     22  C   UNL     1      50.071   3.945  18.017  0.00  0.00    +0.000 A 
ATOM     23  N   UNL     1      51.333   3.474  18.058  0.00  0.00    +0.000 NA
ATOM     24  C   UNL     1      51.541   2.314  17.416  0.00  0.00    +0.000 A 
ATOM     25  N   UNL     1      50.615   1.600  16.759  0.00  0.00    +0.000 NA
ATOM     26  C   UNL     1      49.371   2.124  16.750  0.00  0.00    +0.000 A 
ENDBRANCH  20  21
ENDBRANCH  18  20
ENDBRANCH  17  18
ENDBRANCH   4  17
TORSDOF 8
ENDMDL
MODEL 3
REMARK VINA RESULT:    -7.184      2.496      8.398
REMARK INTER + INTRA:         -11.491
REMARK INTER:                 -10.731
REMARK INTRA:                  -0.760
REMARK UNBOUND:                -0.947
REMARK  Name = 
REMARK  8 active torsions:
REMARK  status: ('A' for Active; 'I' for Inactive)
REMARK    1  A    between atoms: C_2  and  O_3
REMARK    2  A    between atoms: C_2  and  C_11
REMARK    3  A    between atoms: O_3  and  C_4
REMARK    4  A    between atoms: C_4  and  C_5
REMARK    5  A    between atoms: C_14  and  C_15
REMARK    6  A    between atoms: C_15  and  N_16
REMARK    7  A    between atoms: N_16  and  C_17
REMARK    8  A    between atoms: C_17  and  C_18
REMARK                            x       y       z     vdW  Elec       q    Type
REMARK                         _______ _______ _______ _____ _____    ______ ____
ROOT
ATOM      1  C   UNL     1      46.916   6.332  12.991  0.00  0.00    +0.000 A 
ATOM      2  C   UNL     1      46.561   6.939  11.779  0.00  0.00    +0.000 A 
ATOM      3  C   UNL     1      45.521   6.418  11.001  0.00  0.00    +0.000 A 
ATOM      4  C   UNL     1      44.820   5.276  11.416  0.00  0.00    +0.000 A 
ATOM      5  C   UNL     1      45.175   4.676  12.633  0.00  0.00    +0.000 A 
ATOM      6  C   UNL     1      46.212   5.199  13.416  0.00  0.00    +0.000 A 
ENDROOT
BRANCH   1   8
ATOM      7  O   UNL     1      48.338   8.106  13.723  0.00  0.00    +0.000 OA
ATOM      8  C   UNL     1      48.036   6.923  13.777  0.00  0.00    +0.000 C 
BRANCH   8   9
ATOM      9  O   UNL     1      48.659   5.979  14.521  0.00  0.00    +0.000 OA
BRANCH   9  10
ATOM     10  C   UNL     1      48.715   6.218  15.934  0.00  0.00    +0.000 C 
BRANCH  10  11
ATOM     11  C   UNL     1      48.416   4.936  16.657  0.00  0.00    +0.000 A 
ATOM     12  C   UNL     1      49.389   4.284  17.420  0.00  0.00    +0.000 A 
ATOM     13  C   UNL     1      49.065   3.110  18.094  0.00  0.00    +0.000 A 
ATOM     14  C   UNL     1      47.771   2.628  17.989  0.00  0.00    +0.000 A 
ATOM     15  N   UNL     1      46.804   3.231  17.265  0.00  0.00    +0.000 NA
ATOM     16  C   UNL     1      47.147   4.370  16.620  0.00  0.00    +0.000 A 
ENDBRANCH  10  11
ENDBRANCH   9  10
ENDBRANCH   8   9
ENDBRANCH   1   8
BRANCH   4  17
ATOM     17  C   UNL     1      43.683   4.722  10.584  0.00  0.00    +0.000 C 
BRANCH  17  18
ATOM     18  N   UNL     1      44.104   3.564   9.796  0.00  0.00    +0.000 NA
ATOM     19  H   UNL     1      43.296   2.961   9.641  0.00  0.00    +0.000 HD
BRANCH  18  20
ATOM     20  C   UNL     1      44.660   3.973   8.506  0.00  0.00    +0.000 C 
BRANCH  20  21
ATOM     21  C   UNL     1      45.680   2.994   8.012  0.00  0.00    +0.000 A 
ATOM     22  C   UNL     1      46.701   3.346   7.150  0.00  0.00    +0.000 A 
ATOM     23  N   UNL     1      47.639   2.489   6.701  0.00  0.00    +0.000 NA
ATOM     24  C   UNL     1      47.537   1.229   7.151  0.00  0.00    +0.000 A 
ATOM     25  N   UNL     1      46.603   0.766   7.995  0.00  0.00    +0.000 NA
ATOM     26  C   UNL     1      45.689   1.670   8.407  0.00  0.00    +0.000 A 
ENDBRANCH  20  21
ENDBRANCH  18  20
ENDBRANCH  17  18
ENDBRANCH   4  17
TORSDOF 8
ENDMDL
MODEL 4
REMARK VINA RESULT:    -6.991      1.633      2.309
REMARK INTER + INTRA:         -11.208
REMARK INTER:                 -10.120
REMARK INTRA:                  -1.087
REMARK UNBOUND:                -0.947
REMARK  Name = 
REMARK  8 active torsions:
REMARK  status: ('A' for Active; 'I' for Inactive)
REMARK    1  A    between atoms: C_2  and  O_3
REMARK    2  A    between atoms: C_2  and  C_11
REMARK    3  A    between atoms: O_3  and  C_4
REMARK    4  A    between atoms: C_4  and  C_5
REMARK    5  A    between atoms: C_14  and  C_15
REMARK    6  A    between atoms: C_15  and  N_16
REMARK    7  A    between atoms: N_16  and  C_17
REMARK    8  A    between atoms: C_17  and  C_18
REMARK                            x       y       z     vdW  Elec       q    Type
REMARK                         _______ _______ _______ _____ _____    ______ ____
ROOT
ATOM      1  C   UNL     1      45.354   4.546  12.315  0.00  0.00    +0.000 A 
ATOM      2  C   UNL     1      45.646   5.596  11.435  0.00  0.00    +0.000 A 
ATOM      3  C   UNL     1      46.629   6.540  11.756  0.00  0.00    +0.000 A 
ATOM      4  C   UNL     1      47.335   6.455  12.965  0.00  0.00    +0.000 A 
ATOM      5  C   UNL     1      47.045   5.397  13.839  0.00  0.00    +0.000 A 
ATOM      6  C   UNL     1      46.064   4.449  13.518  0.00  0.00    +0.000 A 
ENDROOT
BRANCH   1   8
ATOM      7  O   UNL     1      43.744   2.833  12.731  0.00  0.00    +0.000 OA
ATOM      8  C   UNL     1      44.293   3.573  11.929  0.00  0.00    +0.000 C 
BRANCH   8   9
ATOM      9  O   UNL     1      44.052   3.619  10.597  0.00  0.00    +0.000 OA
BRANCH   9  10
ATOM     10  C   UNL     1      44.254   2.398   9.873  0.00  0.00    +0.000 C 
BRANCH  10  11
ATOM     11  C   UNL     1      45.282   2.631   8.804  0.00  0.00    +0.000 A 
ATOM     12  C   UNL     1      46.091   1.594   8.330  0.00  0.00    +0.000 A 
ATOM     13  C   UNL     1      47.016   1.846   7.321  0.00  0.00    +0.000 A 
ATOM     14  C   UNL     1      47.097   3.130   6.811  0.00  0.00    +0.000 A 
ATOM     15  N   UNL     1      46.331   4.157   7.239  0.00  0.00    +0.000 NA
ATOM     16  C   UNL     1      45.441   3.883   8.220  0.00  0.00    +0.000 A 
ENDBRANCH  10  11
ENDBRANCH   9  10
ENDBRANCH   8   9
ENDBRANCH   1   8
BRANCH   4  17
ATOM     17  C   UNL     1      48.413   7.463  13.304  0.00  0.00    +0.000 C 
BRANCH  17  18
ATOM     18  N   UNL     1      49.610   6.815  13.839  0.00  0.00    +0.000 NA
ATOM     19  H   UNL     1      50.313   6.765  13.101  0.00  0.00    +0.000 HD
BRANCH  18  20
ATOM     20  C   UNL     1      50.151   7.555  14.977  0.00  0.00    +0.000 C 
BRANCH  20  21
ATOM     21  C   UNL     1      49.434   7.214  16.246  0.00  0.00    +0.000 A 
ATOM     22  C   UNL     1      49.345   5.924  16.733  0.00  0.00    +0.000 A 
ATOM     23  N   UNL     1      48.717   5.591  17.878  0.00  0.00    +0.000 NA
ATOM     24  C   UNL     1      48.164   6.610  18.555  0.00  0.00    +0.000 A 
ATOM     25  N   UNL     1      48.191   7.901  18.195  0.00  0.00    +0.000 NA
ATOM     26  C   UNL     1      48.831   8.172  17.038  0.00  0.00    +0.000 A 
ENDBRANCH  20  21
ENDBRANCH  18  20
ENDBRANCH  17  18
ENDBRANCH   4  17
TORSDOF 8
ENDMDL
MODEL 5
REMARK VINA RESULT:    -6.797      4.248      6.391
REMARK INTER + INTRA:         -10.922
REMARK INTER:                  -9.996
REMARK INTRA:                  -0.927
REMARK UNBOUND:                -0.947
REMARK  Name = 
REMARK  8 active torsions:
REMARK  status: ('A' for Active; 'I' for Inactive)
REMARK    1  A    between atoms: C_2  and  O_3
REMARK    2  A    between atoms: C_2  and  C_11
REMARK    3  A    between atoms: O_3  and  C_4
REMARK    4  A    between atoms: C_4  and  C_5
REMARK    5  A    between atoms: C_14  and  C_15
REMARK    6  A    between atoms: C_15  and  N_16
REMARK    7  A    between atoms: N_16  and  C_17
REMARK    8  A    between atoms: C_17  and  C_18
REMARK                            x       y       z     vdW  Elec       q    Type
REMARK                         _______ _______ _______ _____ _____    ______ ____
ROOT
ATOM      1  C   UNL     1      44.559   4.849  11.932  0.00  0.00    +0.000 A 
ATOM      2  C   UNL     1      43.817   5.944  11.469  0.00  0.00    +0.000 A 
ATOM      3  C   UNL     1      44.249   7.251  11.719  0.00  0.00    +0.000 A 
ATOM      4  C   UNL     1      45.427   7.490  12.442  0.00  0.00    +0.000 A 
ATOM      5  C   UNL     1      46.170   6.391  12.897  0.00  0.00    +0.000 A 
ATOM      6  C   UNL     1      45.742   5.081  12.644  0.00  0.00    +0.000 A 
ENDROOT
BRANCH   1   8
ATOM      7  O   UNL     1      43.949   2.611  12.501  0.00  0.00    +0.000 OA
ATOM      8  C   UNL     1      44.051   3.477  11.645  0.00  0.00    +0.000 C 
BRANCH   8   9
ATOM      9  O   UNL     1      43.748   3.335  10.333  0.00  0.00    +0.000 OA
BRANCH   9  10
ATOM     10  C   UNL     1      44.228   2.144   9.695  0.00  0.00    +0.000 C 
BRANCH  10  11
ATOM     11  C   UNL     1      45.316   2.513   8.729  0.00  0.00    +0.000 A 
ATOM     12  C   UNL     1      46.179   1.550   8.198  0.00  0.00    +0.000 A 
ATOM     13  C   UNL     1      47.159   1.930   7.286  0.00  0.00    +0.000 A 
ATOM     14  C   UNL     1      47.241   3.265   6.928  0.00  0.00    +0.000 A 
ATOM     15  N   UNL     1      46.423   4.223   7.415  0.00  0.00    +0.000 NA
ATOM     16  C   UNL     1      45.480   3.825   8.299  0.00  0.00    +0.000 A 
ENDBRANCH  10  11
ENDBRANCH   9  10
ENDBRANCH   8   9
ENDBRANCH   1   8
BRANCH   4  17
ATOM     17  C   UNL     1      45.905   8.904  12.696  0.00  0.00    +0.000 C 
BRANCH  17  18
ATOM     18  N   UNL     1      44.805   9.867  12.628  0.00  0.00    +0.000 NA
ATOM     19  H   UNL     1      44.706  10.315  13.538  0.00  0.00    +0.000 HD
BRANCH  18  20
ATOM     20  C   UNL     1      45.052  10.884  11.608  0.00  0.00    +0.000 C 
BRANCH  20  21
ATOM     21  C   UNL     1      43.803  11.225  10.857  0.00  0.00    +0.000 A 
ATOM     22  C   UNL     1      43.676  12.369  10.093  0.00  0.00    +0.000 A 
ATOM     23  N   UNL     1      42.568  12.692   9.396  0.00  0.00    +0.000 NA
ATOM     24  C   UNL     1      41.554  11.816   9.477  0.00  0.00    +0.000 A 
ATOM     25  N   UNL     1      41.558  10.670  10.173  0.00  0.00    +0.000 NA
ATOM     26  C   UNL     1      42.693  10.402  10.852  0.00  0.00    +0.000 A 
ENDBRANCH  20  21
ENDBRANCH  18  20
ENDBRANCH  17  18
ENDBRANCH   4  17
TORSDOF 8
ENDMDL
MODEL 6
REMARK VINA RESULT:    -6.743      2.736      8.652
REMARK INTER + INTRA:         -10.844
REMARK INTER:                 -10.045
REMARK INTRA:                  -0.798
REMARK UNBOUND:                -0.947
REMARK  Name = 
REMARK  8 active torsions:
REMARK  status: ('A' for Active; 'I' for Inactive)
REMARK    1  A    between atoms: C_2  and  O_3
REMARK    2  A    between atoms: C_2  and  C_11
REMARK    3  A    between atoms: O_3  and  C_4
REMARK    4  A    between atoms: C_4  and  C_5
REMARK    5  A    between atoms: C_14  and  C_15
REMARK    6  A    between atoms: C_15  and  N_16
REMARK    7  A    between atoms: N_16  and  C_17
REMARK    8  A    between atoms: C_17  and  C_18
REMARK                            x       y       z     vdW  Elec       q    Type
REMARK                         _______ _______ _______ _____ _____    ______ ____
ROOT
ATOM      1  C   UNL     1      46.864   4.374  13.939  0.00  0.00    +0.000 A 
ATOM      2  C   UNL     1      46.871   5.703  13.496  0.00  0.00    +0.000 A 
ATOM      3  C   UNL     1      46.166   6.071  12.344  0.00  0.00    +0.000 A 
ATOM      4  C   UNL     1      45.445   5.118  11.611  0.00  0.00    +0.000 A 
ATOM      5  C   UNL     1      45.435   3.790  12.063  0.00  0.00    +0.000 A 
ATOM      6  C   UNL     1      46.137   3.419  13.218  0.00  0.00    +0.000 A 
ENDROOT
BRANCH   1   8
ATOM      7  O   UNL     1      47.714   2.898  15.614  0.00  0.00    +0.000 OA
ATOM      8  C   UNL     1      47.638   4.033  15.167  0.00  0.00    +0.000 C 
BRANCH   8   9
ATOM      9  O   UNL     1      48.207   5.138  15.705  0.00  0.00    +0.000 OA
BRANCH   9  10
ATOM     10  C   UNL     1      48.456   5.100  17.117  0.00  0.00    +0.000 C 
BRANCH  10  11
ATOM     11  C   UNL     1      49.926   4.895  17.347  0.00  0.00    +0.000 A 
ATOM     12  C   UNL     1      50.440   3.650  17.720  0.00  0.00    +0.000 A 
ATOM     13  C   UNL     1      51.811   3.496  17.900  0.00  0.00    +0.000 A 
ATOM     14  C   UNL     1      52.628   4.594  17.694  0.00  0.00    +0.000 A 
ATOM     15  N   UNL     1      52.170   5.811  17.330  0.00  0.00    +0.000 NA
ATOM     16  C   UNL     1      50.833   5.932  17.163  0.00  0.00    +0.000 A 
ENDBRANCH  10  11
ENDBRANCH   9  10
ENDBRANCH   8   9
ENDBRANCH   1   8
BRANCH   4  17
ATOM     17  C   UNL     1      44.666   5.519  10.376  0.00  0.00    +0.000 C 
BRANCH  17  18
ATOM     18  N   UNL     1      45.395   5.194   9.149  0.00  0.00    +0.000 NA
ATOM     19  H   UNL     1      46.343   4.913   9.396  0.00  0.00    +0.000 HD
BRANCH  18  20
ATOM     20  C   UNL     1      44.742   4.111   8.414  0.00  0.00    +0.000 C 
BRANCH  20  21
ATOM     21  C   UNL     1      45.729   3.080   7.965  0.00  0.00    +0.000 A 
ATOM     22  C   UNL     1      45.721   1.780   8.434  0.00  0.00    +0.000 A 
ATOM     23  N   UNL     1      46.588   0.828   8.036  0.00  0.00    +0.000 NA
ATOM     24  C   UNL     1      47.494   1.213   7.123  0.00  0.00    +0.000 A 
ATOM     25  N   UNL     1      47.599   2.436   6.584  0.00  0.00    +0.000 NA
ATOM     26  C   UNL     1      46.705   3.347   7.024  0.00  0.00    +0.000 A 
ENDBRANCH  20  21
ENDBRANCH  18  20
ENDBRANCH  17  18
ENDBRANCH   4  17
TORSDOF 8
ENDMDL
MODEL 7
REMARK VINA RESULT:    -6.740      3.066      8.493
REMARK INTER + INTRA:         -10.838
REMARK INTER:                  -9.512
REMARK INTRA:                  -1.326
REMARK UNBOUND:                -0.947
REMARK  Name = 
REMARK  8 active torsions:
REMARK  status: ('A' for Active; 'I' for Inactive)
REMARK    1  A    between atoms: C_2  and  O_3
REMARK    2  A    between atoms: C_2  and  C_11
REMARK    3  A    between atoms: O_3  and  C_4
REMARK    4  A    between atoms: C_4  and  C_5
REMARK    5  A    between atoms: C_14  and  C_15
REMARK    6  A    between atoms: C_15  and  N_16
REMARK    7  A    between atoms: N_16  and  C_17
REMARK    8  A    between atoms: C_17  and  C_18
REMARK                            x       y       z     vdW  Elec       q    Type
REMARK                         _______ _______ _______ _____ _____    ______ ____
ROOT
ATOM      1  C   UNL     1      46.993   6.514  13.195  0.00  0.00    +0.000 A 
ATOM      2  C   UNL     1      45.890   7.129  12.589  0.00  0.00    +0.000 A 
ATOM      3  C   UNL     1      44.678   6.442  12.456  0.00  0.00    +0.000 A 
ATOM      4  C   UNL     1      44.546   5.125  12.921  0.00  0.00    +0.000 A 
ATOM      5  C   UNL     1      45.652   4.516  13.533  0.00  0.00    +0.000 A 
ATOM      6  C   UNL     1      46.865   5.203  13.672  0.00  0.00    +0.000 A 
ENDROOT
BRANCH   1   8
ATOM      7  O   UNL     1      48.406   8.405  12.833  0.00  0.00    +0.000 OA
ATOM      8  C   UNL     1      48.263   7.287  13.305  0.00  0.00    +0.000 C 
BRANCH   8   9
ATOM      9  O   UNL     1      49.208   6.578  13.966  0.00  0.00    +0.000 OA
BRANCH   9  10
ATOM     10  C   UNL     1      49.859   7.248  15.054  0.00  0.00    +0.000 C 
BRANCH  10  11
ATOM     11  C   UNL     1      49.123   6.940  16.326  0.00  0.00    +0.000 A 
ATOM     12  C   UNL     1      48.757   5.632  16.659  0.00  0.00    +0.000 A 
ATOM     13  C   UNL     1      48.097   5.385  17.858  0.00  0.00    +0.000 A 
ATOM     14  C   UNL     1      47.827   6.456  18.693  0.00  0.00    +0.000 A 
ATOM     15  N   UNL     1      48.167   7.732  18.408  0.00  0.00    +0.000 NA
ATOM     16  C   UNL     1      48.808   7.943  17.236  0.00  0.00    +0.000 A 
ENDBRANCH  10  11
ENDBRANCH   9  10
ENDBRANCH   8   9
ENDBRANCH   1   8
BRANCH   4  17
ATOM     17  C   UNL     1      43.230   4.388  12.795  0.00  0.00    +0.000 C 
BRANCH  17  18
ATOM     18  N   UNL     1      42.949   4.017  11.408  0.00  0.00    +0.000 NA
ATOM     19  H   UNL     1      43.221   4.791  10.801  0.00  0.00    +0.000 HD
BRANCH  18  20
ATOM     20  C   UNL     1      43.683   2.814  11.021  0.00  0.00    +0.000 C 
BRANCH  20  21
ATOM     21  C   UNL     1      44.547   3.058   9.823  0.00  0.00    +0.000 A 
ATOM     22  C   UNL     1      45.155   2.038   9.116  0.00  0.00    +0.000 A 
ATOM     23  N   UNL     1      45.926   2.229   8.027  0.00  0.00    +0.000 NA
ATOM     24  C   UNL     1      46.079   3.506   7.641  0.00  0.00    +0.000 A 
ATOM     25  N   UNL     1      45.534   4.579   8.232  0.00  0.00    +0.000 NA
ATOM     26  C   UNL     1      44.776   4.324   9.319  0.00  0.00    +0.000 A 
ENDBRANCH  20  21
ENDBRANCH  18  20
ENDBRANCH  17  18
ENDBRANCH   4  17
TORSDOF 8
ENDMDL
MODEL 8
REMARK VINA RESULT:    -6.236      4.007      8.314
REMARK INTER + INTRA:         -10.100
REMARK INTER:                  -9.177
REMARK INTRA:                  -0.922
REMARK UNBOUND:                -0.947
REMARK  Name = 
REMARK  8 active torsions:
REMARK  status: ('A' for Active; 'I' for Inactive)
REMARK    1  A    between atoms: C_2  and  O_3
REMARK    2  A    between atoms: C_2  and  C_11
REMARK    3  A    between atoms: O_3  and  C_4
REMARK    4  A    between atoms: C_4  and  C_5
REMARK    5  A    between atoms: C_14  and  C_15
REMARK    6  A    between atoms: C_15  and  N_16
REMARK    7  A    between atoms: N_16  and  C_17
REMARK    8  A    between atoms: C_17  and  C_18
REMARK                            x       y       z     vdW  Elec       q    Type
REMARK                         _______ _______ _______ _____ _____    ______ ____
ROOT
ATOM      1  C   UNL     1      46.744   6.058  13.050  0.00  0.00    +0.000 A 
ATOM      2  C   UNL     1      45.933   5.064  13.612  0.00  0.00    +0.000 A 
ATOM      3  C   UNL     1      44.924   4.458  12.855  0.00  0.00    +0.000 A 
ATOM      4  C   UNL     1      44.701   4.838  11.524  0.00  0.00    +0.000 A 
ATOM      5  C   UNL     1      45.520   5.829  10.963  0.00  0.00    +0.000 A 
ATOM      6  C   UNL     1      46.534   6.434  11.717  0.00  0.00    +0.000 A 
ENDROOT
BRANCH   1   8
ATOM      7  O   UNL     1      48.527   6.028  14.638  0.00  0.00    +0.000 OA
ATOM      8  C   UNL     1      47.799   6.677  13.901  0.00  0.00    +0.000 C 
BRANCH   8   9
ATOM      9  O   UNL     1      47.815   8.023  13.755  0.00  0.00    +0.000 OA
BRANCH   9  10
ATOM     10  C   UNL     1      49.105   8.630  13.597  0.00  0.00    +0.000 C 
BRANCH  10  11
ATOM     11  C   UNL     1      48.952   9.901  12.814  0.00  0.00    +0.000 A 
ATOM     12  C   UNL     1      48.907   9.896  11.416  0.00  0.00    +0.000 A 
ATOM     13  C   UNL     1      48.740  11.094  10.727  0.00  0.00    +0.000 A 
ATOM     14  C   UNL     1      48.615  12.262  11.460  0.00  0.00    +0.000 A 
ATOM     15  N   UNL     1      48.649  12.306  12.810  0.00  0.00    +0.000 NA
ATOM     16  C   UNL     1      48.813  11.128  13.453  0.00  0.00    +0.000 A 
ENDBRANCH  10  11
ENDBRANCH   9  10
ENDBRANCH   8   9
ENDBRANCH   1   8
BRANCH   4  17
ATOM     17  C   UNL     1      43.622   4.169  10.698  0.00  0.00    +0.000 C 
BRANCH  17  18
ATOM     18  N   UNL     1      44.053   3.957   9.316  0.00  0.00    +0.000 NA
ATOM     19  H   UNL     1      44.864   4.548   9.132  0.00  0.00    +0.000 HD
BRANCH  18  20
ATOM     20  C   UNL     1      44.407   2.558   9.080  0.00  0.00    +0.000 C 
BRANCH  20  21
ATOM     21  C   UNL     1      45.648   2.437   8.251  0.00  0.00    +0.000 A 
ATOM     22  C   UNL     1      46.320   1.243   8.077  0.00  0.00    +0.000 A 
ATOM     23  N   UNL     1      47.430   1.104   7.325  0.00  0.00    +0.000 NA
ATOM     24  C   UNL     1      47.870   2.222   6.726  0.00  0.00    +0.000 A 
ATOM     25  N   UNL     1      47.303   3.434   6.807  0.00  0.00    +0.000 NA
ATOM     26  C   UNL     1      46.196   3.511   7.576  0.00  0.00    +0.000 A 
ENDBRANCH  20  21
ENDBRANCH  18  20
ENDBRANCH  17  18
ENDBRANCH   4  17
TORSDOF 8
ENDMDL
MODEL 9
REMARK VINA RESULT:    -6.170      3.946      7.920
REMARK INTER + INTRA:         -10.002
REMARK INTER:                  -8.840
REMARK INTRA:                  -1.162
REMARK UNBOUND:                -0.947
REMARK  Name = 
REMARK  8 active torsions:
REMARK  status: ('A' for Active; 'I' for Inactive)
REMARK    1  A    between atoms: C_2  and  O_3
REMARK    2  A    between atoms: C_2  and  C_11
REMARK    3  A    between atoms: O_3  and  C_4
REMARK    4  A    between atoms: C_4  and  C_5
REMARK    5  A    between atoms: C_14  and  C_15
REMARK    6  A    between atoms: C_15  and  N_16
REMARK    7  A    between atoms: N_16  and  C_17
REMARK    8  A    between atoms: C_17  and  C_18
REMARK                            x       y       z     vdW  Elec       q    Type
REMARK                         _______ _______ _______ _____ _____    ______ ____
ROOT
ATOM      1  C   UNL     1      48.702   7.596  13.953  0.00  0.00    +0.000 A 
ATOM      2  C   UNL     1      48.105   8.863  13.976  0.00  0.00    +0.000 A 
ATOM      3  C   UNL     1      46.921   9.103  13.268  0.00  0.00    +0.000 A 
ATOM      4  C   UNL     1      46.315   8.084  12.520  0.00  0.00    +0.000 A 
ATOM      5  C   UNL     1      46.914   6.815  12.505  0.00  0.00    +0.000 A 
ATOM      6  C   UNL     1      48.096   6.571  13.216  0.00  0.00    +0.000 A 
ENDROOT
BRANCH   1   8
ATOM      7  O   UNL     1      50.914   8.165  14.652  0.00  0.00    +0.000 OA
ATOM      8  C   UNL     1      49.967   7.396  14.717  0.00  0.00    +0.000 C 
BRANCH   8   9
ATOM      9  O   UNL     1      49.915   6.260  15.453  0.00  0.00    +0.000 OA
BRANCH   9  10
ATOM     10  C   UNL     1      49.350   6.380  16.766  0.00  0.00    +0.000 C 
BRANCH  10  11
ATOM     11  C   UNL     1      48.647   5.099  17.111  0.00  0.00    +0.000 A 
ATOM     12  C   UNL     1      49.091   4.280  18.153  0.00  0.00    +0.000 A 
ATOM     13  C   UNL     1      48.397   3.113  18.457  0.00  0.00    +0.000 A 
ATOM     14  C   UNL     1      47.273   2.804  17.711  0.00  0.00    +0.000 A 
ATOM     15  N   UNL     1      46.810   3.571  16.700  0.00  0.00    +0.000 NA
ATOM     16  C   UNL     1      47.504   4.699  16.427  0.00  0.00    +0.000 A 
ENDBRANCH  10  11
ENDBRANCH   9  10
ENDBRANCH   8   9
ENDBRANCH   1   8
BRANCH   4  17
ATOM     17  C   UNL     1      45.025   8.337  11.770  0.00  0.00    +0.000 C 
BRANCH  17  18
ATOM     18  N   UNL     1      44.669   7.207  10.910  0.00  0.00    +0.000 NA
ATOM     19  H   UNL     1      45.376   6.481  11.015  0.00  0.00    +0.000 HD
BRANCH  18  20
ATOM     20  C   UNL     1      43.357   6.665  11.262  0.00  0.00    +0.000 C 
BRANCH  20  21
ATOM     21  C   UNL     1      43.440   5.212  11.612  0.00  0.00    +0.000 A 
ATOM     22  C   UNL     1      43.446   4.754  12.915  0.00  0.00    +0.000 A 
ATOM     23  N   UNL     1      43.505   3.451  13.258  0.00  0.00    +0.000 NA
ATOM     24  C   UNL     1      43.555   2.584  12.235  0.00  0.00    +0.000 A 
ATOM     25  N   UNL     1      43.543   2.900  10.932  0.00  0.00    +0.000 NA
ATOM     26  C   UNL     1      43.486   4.220  10.652  0.00  0.00    +0.000 A 
ENDBRANCH  20  21
ENDBRANCH  18  20
ENDBRANCH  17  18
ENDBRANCH   4  17
TORSDOF 8
ENDMDL
