MODEL 1
REMARK VINA RESULT:    -8.041      0.000      0.000
REMARK INTER + INTRA:         -12.699
REMARK INTER:                 -11.801
REMARK INTRA:                  -0.898
REMARK UNBOUND:                -0.898
REMARK  Name = 
REMARK  10 active torsions:
REMARK  status: ('A' for Active; 'I' for Inactive)
REMARK    1  A    between atoms: C_1  and  O_2
REMARK    2  A    between atoms: O_2  and  C_3
REMARK    3  A    between atoms: C_7  and  C_8
REMARK    4  A    between atoms: C_8  and  N_9
REMARK    5  A    between atoms: N_9  and  C_10
REMARK    6  A    between atoms: N_9  and  C_11
REMARK    7  A    between atoms: C_11  and  C_12
REMARK    8  A    between atoms: C_15  and  C_16
REMARK    9  A    between atoms: C_16  and  N_17
REMARK   10  A    between atoms: C_18  and  C_20
REMARK                            x       y       z     vdW  Elec       q    Type
REMARK                         _______ _______ _______ _____ _____    ______ ____
ROOT
ATOM      1  C   UNL     1      46.176   4.625  13.453  0.00  0.00    +0.000 A 
ATOM      2  C   UNL     1      46.668   5.833  12.964  0.00  0.00    +0.000 A 
ATOM      3  N   UNL     1      47.547   6.602  13.651  0.00  0.00    +0.000 NA
ATOM      4  C   UNL     1      47.930   6.119  14.861  0.00  0.00    +0.000 A 
ATOM      5  C   UNL     1      47.432   4.917  15.352  0.00  0.00    +0.000 A 
ATOM      6  N   UNL     1      46.546   4.154  14.670  0.00  0.00    +0.000 NA
ENDROOT
BRANCH   1   7
ATOM      7  C   UNL     1      45.337   3.727  12.572  0.00  0.00    +0.000 C 
BRANCH   7   8
ATOM      8  N   UNL     1      44.207   4.440  11.930  0.00  0.00    +0.000 NA
ATOM      9  C   UNL     1      43.211   4.787  12.950  0.00  0.00    +0.000 C 
BRANCH   8  10
ATOM     10  C   UNL     1      43.606   3.592  10.865  0.00  0.00    +0.000 C 
BRANCH  10  15
ATOM     11  C   UNL     1      45.872   1.917   8.324  0.00  0.00    +0.000 A 
ATOM     12  C   UNL     1      46.315   3.036   7.627  0.00  0.00    +0.000 A 
ATOM     13  C   UNL     1      45.817   4.271   7.995  0.00  0.00    +0.000 A 
ATOM     14  N   UNL     1      44.947   4.462   9.005  0.00  0.00    +0.000 NA
ATOM     15  C   UNL     1      44.519   3.362   9.673  0.00  0.00    +0.000 A 
ATOM     16  C   UNL     1      44.928   2.073   9.333  0.00  0.00    +0.000 A 
BRANCH  11  18
ATOM     17  C   UNL     1      47.210   0.507   6.999  0.00  0.00    +0.000 C 
ATOM     18  O   UNL     1      46.285   0.636   8.079  0.00  0.00    +0.000 OA
ENDBRANCH  11  18
ENDBRANCH  10  15
ENDBRANCH   8  10
ENDBRANCH   7   8
ENDBRANCH   1   7
BRANCH   4  19
ATOM     19  C   UNL     1      48.973   6.876  15.640  0.00  0.00    +0.000 C 
BRANCH  19  20
ATOM     20  N   UNL     1      49.997   5.993  16.155  0.00  0.00    +0.000 N 
ATOM     21  C   UNL     1      50.040   5.613  17.468  0.00  0.00    +0.000 C 
ATOM     22  O   UNL     1      49.175   5.975  18.263  0.00  0.00    +0.000 OA
ATOM     23  H   UNL     1      50.769   5.782  15.526  0.00  0.00    +0.000 HD
BRANCH  21  24
ATOM     24  C   UNL     1      51.149   4.747  17.897  0.00  0.00    +0.000 A 
ATOM     25  C   UNL     1      52.232   5.313  18.558  0.00  0.00    +0.000 A 
ATOM     26  S   UNL     1      53.438   4.193  18.995  0.00  0.00    +0.000 S 
ATOM     27  C   UNL     1      52.566   2.906  18.306  0.00  0.00    +0.000 A 
ATOM     28  N   UNL     1      53.070   1.643  18.318  0.00  0.00    +0.000 NA
ATOM     29  C   UNL     1      52.306   0.759  17.764  0.00  0.00    +0.000 A 
ATOM     30  N   UNL     1      51.086   1.021  17.208  0.00  0.00    +0.000 N 
ATOM     31  C   UNL     1      50.536   2.283  17.172  0.00  0.00    +0.000 A 
ATOM     32  O   UNL     1      49.442   2.482  16.659  0.00  0.00    +0.000 OA
ATOM     33  C   UNL     1      51.360   3.321  17.769  0.00  0.00    +0.000 A 
ATOM     34  H   UNL     1      50.531   0.288  16.793  0.00  0.00    +0.000 HD
ENDBRANCH  21  24
ENDBRANCH  19  20
ENDBRANCH   4  19
TORSDOF 8
ENDMDL
MODEL 2
REMARK VINA RESULT:    -7.594      3.311      8.818
REMARK INTER + INTRA:         -12.043
REMARK INTER:                 -10.578
REMARK INTRA:                  -1.465
REMARK UNBOUND:                -0.898
REMARK  Name = 
REMARK  10 active torsions:
REMARK  status: ('A' for Active; 'I' for Inactive)
REMARK    1  A    between atoms: C_1  and  O_2
REMARK    2  A    between atoms: O_2  and  C_3
REMARK    3  A    between atoms: C_7  and  C_8
REMARK    4  A    between atoms: C_8  and  N_9
REMARK    5  A    between atoms: N_9  and  C_10
REMARK    6  A    between atoms: N_9  and  C_11
REMARK    7  A    between atoms: C_11  and  C_12
REMARK    8  A    between atoms: C_15  and  C_16
REMARK    9  A    between atoms: C_16  and  N_17
REMARK   10  A    between atoms: C_18  and  C_20
REMARK                            x       y       z     vdW  Elec       q    Type
REMARK                         _______ _______ _______ _____ _____    ______ ____
ROOT
ATOM      1  C   UNL     1      49.225   7.714  16.227  0.00  0.00    +0.000 A 
ATOM      2  C   UNL     1      49.383   6.615  15.387  0.00  0.00    +0.000 A 
ATOM      3  N   UNL     1      48.878   6.571  14.130  0.00  0.00    +0.000 NA
ATOM      4  C   UNL     1      48.202   7.677  13.729  0.00  0.00    +0.000 A 
ATOM      5  C   UNL     1      48.039   8.772  14.572  0.00  0.00    +0.000 A 
ATOM      6  N   UNL     1      48.534   8.812  15.830  0.00  0.00    +0.000 NA
ENDROOT
BRANCH   1   7
ATOM      7  C   UNL     1      49.957   7.778  17.549  0.00  0.00    +0.000 C 
BRANCH   7   8
ATOM      8  N   UNL     1      49.169   7.216  18.672  0.00  0.00    +0.000 NA
ATOM      9  C   UNL     1      49.189   8.158  19.796  0.00  0.00    +0.000 C 
BRANCH   8  10
ATOM     10  C   UNL     1      49.722   5.895  19.074  0.00  0.00    +0.000 C 
BRANCH  10  15
ATOM     11  C   UNL     1      49.367   2.729  17.012  0.00  0.00    +0.000 A 
ATOM     12  C   UNL     1      47.991   2.730  16.811  0.00  0.00    +0.000 A 
ATOM     13  C   UNL     1      47.249   3.738  17.394  0.00  0.00    +0.000 A 
ATOM     14  N   UNL     1      47.779   4.737  18.128  0.00  0.00    +0.000 NA
ATOM     15  C   UNL     1      49.121   4.720  18.321  0.00  0.00    +0.000 A 
ATOM     16  C   UNL     1      49.939   3.711  17.813  0.00  0.00    +0.000 A 
BRANCH  11  18
ATOM     17  C   UNL     1      51.332   1.475  17.330  0.00  0.00    +0.000 C 
ATOM     18  O   UNL     1      50.227   1.803  16.488  0.00  0.00    +0.000 OA
ENDBRANCH  11  18
ENDBRANCH  10  15
ENDBRANCH   8  10
ENDBRANCH   7   8
ENDBRANCH   1   7
BRANCH   4  19
ATOM     19  C   UNL     1      47.692   7.735  12.313  0.00  0.00    +0.000 C 
BRANCH  19  20
ATOM     20  N   UNL     1      46.969   6.532  11.959  0.00  0.00    +0.000 N 
ATOM     21  C   UNL     1      45.609   6.440  12.069  0.00  0.00    +0.000 C 
ATOM     22  O   UNL     1      44.934   7.400  12.434  0.00  0.00    +0.000 OA
ATOM     23  H   UNL     1      47.533   5.708  11.763  0.00  0.00    +0.000 HD
BRANCH  21  24
ATOM     24  C   UNL     1      44.977   5.155  11.725  0.00  0.00    +0.000 A 
ATOM     25  C   UNL     1      44.242   4.483  12.694  0.00  0.00    +0.000 A 
ATOM     26  S   UNL     1      43.569   3.014  12.155  0.00  0.00    +0.000 S 
ATOM     27  C   UNL     1      44.245   3.212  10.607  0.00  0.00    +0.000 A 
ATOM     28  N   UNL     1      44.063   2.267   9.647  0.00  0.00    +0.000 NA
ATOM     29  C   UNL     1      44.627   2.541   8.516  0.00  0.00    +0.000 A 
ATOM     30  N   UNL     1      45.345   3.674   8.257  0.00  0.00    +0.000 N 
ATOM     31  C   UNL     1      45.555   4.657   9.198  0.00  0.00    +0.000 A 
ATOM     32  O   UNL     1      46.210   5.657   8.932  0.00  0.00    +0.000 OA
ATOM     33  C   UNL     1      44.955   4.394  10.496  0.00  0.00    +0.000 A 
ATOM     34  H   UNL     1      45.759   3.836   7.352  0.00  0.00    +0.000 HD
ENDBRANCH  21  24
ENDBRANCH  19  20
ENDBRANCH   4  19
TORSDOF 8
ENDMDL
MODEL 3
REMARK VINA RESULT:    -7.503      2.572      2.940
REMARK INTER + INTRA:         -11.909
REMARK INTER:                 -10.958
REMARK INTRA:                  -0.951
REMARK UNBOUND:                -0.898
REMARK  Name = 
REMARK  10 active torsions:
REMARK  status: ('A' for Active; 'I' for Inactive)
REMARK    1  A    between atoms: C_1  and  O_2
REMARK    2  A    between atoms: O_2  and  C_3
REMARK    3  A    between atoms: C_7  and  C_8
REMARK    4  A    between atoms: C_8  and  N_9
REMARK    5  A    between atoms: N_9  and  C_10
REMARK    6  A    between atoms: N_9  and  C_11
REMARK    7  A    between atoms: C_11  and  C_12
REMARK    8  A    between atoms: C_15  and  C_16
REMARK    9  A    between atoms: C_16  and  N_17
REMARK   10  A    between atoms: C_18  and  C_20
REMARK                            x       y       z     vdW  Elec       q    Type
REMARK                         _______ _______ _______ _____ _____    ______ ____
ROOT
ATOM      1  C   UNL     1      45.937   4.469  12.891  0.00  0.00    +0.000 A 
ATOM      2  C   UNL     1      46.300   5.592  12.153  0.00  0.00    +0.000 A 
ATOM      3  N   UNL     1      47.166   6.527  12.614  0.00  0.00    +0.000 NA
ATOM      4  C   UNL     1      47.669   6.303  13.854  0.00  0.00    +0.000 A 
ATOM      5  C   UNL     1      47.299   5.185  14.594  0.00  0.00    +0.000 A 
ATOM      6  N   UNL     1      46.427   4.256  14.139  0.00  0.00    +0.000 NA
ENDROOT
BRANCH   1   7
ATOM      7  C   UNL     1      45.107   3.374  12.261  0.00  0.00    +0.000 C 
BRANCH   7   8
ATOM      8  N   UNL     1      44.213   3.871  11.189  0.00  0.00    +0.000 NA
ATOM      9  C   UNL     1      42.916   4.235  11.770  0.00  0.00    +0.000 C 
BRANCH   8  10
ATOM     10  C   UNL     1      44.052   2.834  10.134  0.00  0.00    +0.000 C 
BRANCH  10  15
ATOM     11  C   UNL     1      46.671   1.963   7.530  0.00  0.00    +0.000 A 
ATOM     12  C   UNL     1      47.000   3.239   7.088  0.00  0.00    +0.000 A 
ATOM     13  C   UNL     1      46.320   4.311   7.630  0.00  0.00    +0.000 A 
ATOM     14  N   UNL     1      45.372   4.199   8.582  0.00  0.00    +0.000 NA
ATOM     15  C   UNL     1      45.057   2.948   9.000  0.00  0.00    +0.000 A 
ATOM     16  C   UNL     1      45.657   1.807   8.468  0.00  0.00    +0.000 A 
BRANCH  11  18
ATOM     17  C   UNL     1      47.429   0.728   5.676  0.00  0.00    +0.000 C 
ATOM     18  O   UNL     1      47.267   0.811   7.091  0.00  0.00    +0.000 OA
ENDBRANCH  11  18
ENDBRANCH  10  15
ENDBRANCH   8  10
ENDBRANCH   7   8
ENDBRANCH   1   7
BRANCH   4  19
ATOM     19  C   UNL     1      48.706   7.254  14.393  0.00  0.00    +0.000 C 
BRANCH  19  20
ATOM     20  N   UNL     1      48.604   7.392  15.830  0.00  0.00    +0.000 N 
ATOM     21  C   UNL     1      49.494   6.803  16.685  0.00  0.00    +0.000 C 
ATOM     22  O   UNL     1      50.454   6.162  16.261  0.00  0.00    +0.000 OA
ATOM     23  H   UNL     1      47.754   7.827  16.183  0.00  0.00    +0.000 HD
BRANCH  21  24
ATOM     24  C   UNL     1      49.273   6.971  18.130  0.00  0.00    +0.000 A 
ATOM     25  C   UNL     1      49.329   8.247  18.678  0.00  0.00    +0.000 A 
ATOM     26  S   UNL     1      49.053   8.289  20.358  0.00  0.00    +0.000 S 
ATOM     27  C   UNL     1      48.860   6.601  20.423  0.00  0.00    +0.000 A 
ATOM     28  N   UNL     1      48.620   5.976  21.606  0.00  0.00    +0.000 NA
ATOM     29  C   UNL     1      48.491   4.693  21.515  0.00  0.00    +0.000 A 
ATOM     30  N   UNL     1      48.572   3.982  20.351  0.00  0.00    +0.000 N 
ATOM     31  C   UNL     1      48.813   4.571  19.130  0.00  0.00    +0.000 A 
ATOM     32  O   UNL     1      48.885   3.900  18.108  0.00  0.00    +0.000 OA
ATOM     33  C   UNL     1      48.982   6.014  19.175  0.00  0.00    +0.000 A 
ATOM     34  H   UNL     1      48.458   2.979  20.341  0.00  0.00    +0.000 HD
ENDBRANCH  21  24
ENDBRANCH  19  20
ENDBRANCH   4  19
TORSDOF 8
ENDMDL
MODEL 4
REMARK VINA RESULT:    -7.256      3.962      8.340
REMARK INTER + INTRA:         -11.548
REMARK INTER:                  -9.930
REMARK INTRA:                  -1.618
REMARK UNBOUND:                -0.898
REMARK  Name = 
REMARK  10 active torsions:
REMARK  status: ('A' for Active; 'I' for Inactive)
REMARK    1  A    between atoms: C_1  and  O_2
REMARK    2  A    between atoms: O_2  and  C_3
REMARK    3  A    between atoms: C_7  and  C_8
REMARK    4  A    between atoms: C_8  and  N_9
REMARK    5  A    between atoms: N_9  and  C_10
REMARK    6  A    between atoms: N_9  and  C_11
REMARK    7  A    between atoms: C_11  and  C_12
REMARK    8  A    between atoms: C_15  and  C_16
REMARK    9  A    between atoms: C_16  and  N_17
REMARK   10  A    between atoms: C_18  and  C_20
REMARK                            x       y       z     vdW  Elec       q    Type
REMARK                         _______ _______ _______ _____ _____    ______ ____
ROOT
ATOM      1  C   UNL     1      49.129   7.634  17.914  0.00  0.00    +0.000 A 
ATOM      2  C   UNL     1      48.423   8.811  17.682  0.00  0.00    +0.000 A 
ATOM      3  N   UNL     1      48.096   9.240  16.438  0.00  0.00    +0.000 NA
ATOM      4  C   UNL     1      48.497   8.442  15.416  0.00  0.00    +0.000 A 
ATOM      5  C   UNL     1      49.209   7.270  15.649  0.00  0.00    +0.000 A 
ATOM      6  N   UNL     1      49.545   6.846  16.889  0.00  0.00    +0.000 NA
ENDROOT
BRANCH   1   7
ATOM      7  C   UNL     1      49.313   7.117  19.323  0.00  0.00    +0.000 C 
BRANCH   7   8
ATOM      8  N   UNL     1      48.194   6.256  19.773  0.00  0.00    +0.000 NA
ATOM      9  C   UNL     1      47.696   6.744  21.064  0.00  0.00    +0.000 C 
BRANCH   8  10
ATOM     10  C   UNL     1      48.645   4.842  19.876  0.00  0.00    +0.000 C 
BRANCH  10  15
ATOM     11  C   UNL     1      49.260   2.588  16.886  0.00  0.00    +0.000 A 
ATOM     12  C   UNL     1      48.054   2.751  16.214  0.00  0.00    +0.000 A 
ATOM     13  C   UNL     1      47.089   3.551  16.794  0.00  0.00    +0.000 A 
ATOM     14  N   UNL     1      47.253   4.206  17.960  0.00  0.00    +0.000 NA
ATOM     15  C   UNL     1      48.433   4.034  18.607  0.00  0.00    +0.000 A 
ATOM     16  C   UNL     1      49.440   3.202  18.120  0.00  0.00    +0.000 A 
BRANCH  11  18
ATOM     17  C   UNL     1      51.238   1.438  17.436  0.00  0.00    +0.000 C 
ATOM     18  O   UNL     1      50.308   1.836  16.428  0.00  0.00    +0.000 OA
ENDBRANCH  11  18
ENDBRANCH  10  15
ENDBRANCH   8  10
ENDBRANCH   7   8
ENDBRANCH   1   7
BRANCH   4  19
ATOM     19  C   UNL     1      48.090   8.810  14.013  0.00  0.00    +0.000 C 
BRANCH  19  20
ATOM     20  N   UNL     1      46.899   8.098  13.602  0.00  0.00    +0.000 N 
ATOM     21  C   UNL     1      46.912   7.179  12.589  0.00  0.00    +0.000 C 
ATOM     22  O   UNL     1      47.956   6.885  12.010  0.00  0.00    +0.000 OA
ATOM     23  H   UNL     1      46.020   8.418  14.004  0.00  0.00    +0.000 HD
BRANCH  21  24
ATOM     24  C   UNL     1      45.636   6.545  12.221  0.00  0.00    +0.000 A 
ATOM     25  C   UNL     1      44.627   7.326  11.669  0.00  0.00    +0.000 A 
ATOM     26  S   UNL     1      43.211   6.459  11.292  0.00  0.00    +0.000 S 
ATOM     27  C   UNL     1      43.884   5.006  11.864  0.00  0.00    +0.000 A 
ATOM     28  N   UNL     1      43.162   3.854  11.848  0.00  0.00    +0.000 NA
ATOM     29  C   UNL     1      43.792   2.823  12.308  0.00  0.00    +0.000 A 
ATOM     30  N   UNL     1      45.077   2.838  12.773  0.00  0.00    +0.000 N 
ATOM     31  C   UNL     1      45.846   3.979  12.808  0.00  0.00    +0.000 A 
ATOM     32  O   UNL     1      46.992   3.956  13.238  0.00  0.00    +0.000 OA
ATOM     33  C   UNL     1      45.181   5.175  12.316  0.00  0.00    +0.000 A 
ATOM     34  H   UNL     1      45.519   1.999  13.117  0.00  0.00    +0.000 HD
ENDBRANCH  21  24
ENDBRANCH  19  20
ENDBRANCH   4  19
TORSDOF 8
ENDMDL
MODEL 5
REMARK VINA RESULT:    -6.691      4.744      6.462
REMARK INTER + INTRA:         -10.717
REMARK INTER:                  -9.498
REMARK INTRA:                  -1.219
REMARK UNBOUND:                -0.898
REMARK  Name = 
REMARK  10 active torsions:
REMARK  status: ('A' for Active; 'I' for Inactive)
REMARK    1  A    between atoms: C_1  and  O_2
REMARK    2  A    between atoms: O_2  and  C_3
REMARK    3  A    between atoms: C_7  and  C_8
REMARK    4  A    between atoms: C_8  and  N_9
REMARK    5  A    between atoms: N_9  and  C_10
REMARK    6  A    between atoms: N_9  and  C_11
REMARK    7  A    between atoms: C_11  and  C_12
REMARK    8  A    between atoms: C_15  and  C_16
REMARK    9  A    between atoms: C_16  and  N_17
REMARK   10  A    between atoms: C_18  and  C_20
REMARK                            x       y       z     vdW  Elec       q    Type
REMARK                         _______ _______ _______ _____ _____    ______ ____
ROOT
ATOM      1  C   UNL     1      46.361   4.887  12.915  0.00  0.00    +0.000 A 
ATOM      2  C   UNL     1      47.161   4.819  14.052  0.00  0.00    +0.000 A 
ATOM      3  N   UNL     1      48.020   5.806  14.407  0.00  0.00    +0.000 NA
ATOM      4  C   UNL     1      48.055   6.882  13.580  0.00  0.00    +0.000 A 
ATOM      5  C   UNL     1      47.261   6.944  12.440  0.00  0.00    +0.000 A 
ATOM      6  N   UNL     1      46.410   5.956  12.079  0.00  0.00    +0.000 NA
ENDROOT
BRANCH   1   7
ATOM      7  C   UNL     1      45.298   3.841  12.663  0.00  0.00    +0.000 C 
BRANCH   7   8
ATOM      8  N   UNL     1      44.075   4.400  12.042  0.00  0.00    +0.000 NA
ATOM      9  C   UNL     1      43.076   4.659  13.085  0.00  0.00    +0.000 C 
BRANCH   8  10
ATOM     10  C   UNL     1      43.544   3.458  11.019  0.00  0.00    +0.000 C 
BRANCH  10  15
ATOM     11  C   UNL     1      45.848   1.936   8.417  0.00  0.00    +0.000 A 
ATOM     12  C   UNL     1      46.222   3.085   7.730  0.00  0.00    +0.000 A 
ATOM     13  C   UNL     1      45.669   4.288   8.123  0.00  0.00    +0.000 A 
ATOM     14  N   UNL     1      44.807   4.421   9.151  0.00  0.00    +0.000 NA
ATOM     15  C   UNL     1      44.447   3.291   9.809  0.00  0.00    +0.000 A 
ATOM     16  C   UNL     1      44.915   2.030   9.443  0.00  0.00    +0.000 A 
BRANCH  11  18
ATOM     17  C   UNL     1      47.242   0.616   7.056  0.00  0.00    +0.000 C 
ATOM     18  O   UNL     1      46.321   0.681   8.145  0.00  0.00    +0.000 OA
ENDBRANCH  11  18
ENDBRANCH  10  15
ENDBRANCH   8  10
ENDBRANCH   7   8
ENDBRANCH   1   7
BRANCH   4  19
ATOM     19  C   UNL     1      48.920   8.055  13.961  0.00  0.00    +0.000 C 
BRANCH  19  20
ATOM     20  N   UNL     1      49.462   8.716  12.794  0.00  0.00    +0.000 N 
ATOM     21  C   UNL     1      50.029   9.959  12.858  0.00  0.00    +0.000 C 
ATOM     22  O   UNL     1      50.142  10.552  13.928  0.00  0.00    +0.000 OA
ATOM     23  H   UNL     1      49.272   8.276  11.897  0.00  0.00    +0.000 HD
BRANCH  21  24
ATOM     24  C   UNL     1      50.511  10.559  11.603  0.00  0.00    +0.000 A 
ATOM     25  C   UNL     1      50.050  11.819  11.237  0.00  0.00    +0.000 A 
ATOM     26  S   UNL     1      50.693  12.387   9.765  0.00  0.00    +0.000 S 
ATOM     27  C   UNL     1      51.603  10.966   9.553  0.00  0.00    +0.000 A 
ATOM     28  N   UNL     1      52.377  10.799   8.447  0.00  0.00    +0.000 NA
ATOM     29  C   UNL     1      53.018   9.677   8.411  0.00  0.00    +0.000 A 
ATOM     30  N   UNL     1      52.962   8.715   9.379  0.00  0.00    +0.000 N 
ATOM     31  C   UNL     1      52.193   8.841  10.514  0.00  0.00    +0.000 A 
ATOM     32  O   UNL     1      52.163   7.954  11.359  0.00  0.00    +0.000 OA
ATOM     33  C   UNL     1      51.437  10.079  10.602  0.00  0.00    +0.000 A 
ATOM     34  H   UNL     1      53.490   7.859   9.298  0.00  0.00    +0.000 HD
ENDBRANCH  21  24
ENDBRANCH  19  20
ENDBRANCH   4  19
TORSDOF 8
ENDMDL
MODEL 6
REMARK VINA RESULT:    -6.517      3.436      9.375
REMARK INTER + INTRA:         -10.463
REMARK INTER:                  -9.195
REMARK INTRA:                  -1.268
REMARK UNBOUND:                -0.898
REMARK  Name = 
REMARK  10 active torsions:
REMARK  status: ('A' for Active; 'I' for Inactive)
REMARK    1  A    between atoms: C_1  and  O_2
REMARK    2  A    between atoms: O_2  and  C_3
REMARK    3  A    between atoms: C_7  and  C_8
REMARK    4  A    between atoms: C_8  and  N_9
REMARK    5  A    between atoms: N_9  and  C_10
REMARK    6  A    between atoms: N_9  and  C_11
REMARK    7  A    between atoms: C_11  and  C_12
REMARK    8  A    between atoms: C_15  and  C_16
REMARK    9  A    between atoms: C_16  and  N_17
REMARK   10  A    between atoms: C_18  and  C_20
REMARK                            x       y       z     vdW  Elec       q    Type
REMARK                         _______ _______ _______ _____ _____    ______ ____
ROOT
ATOM      1  C   UNL     1      50.916   7.661  14.549  0.00  0.00    +0.000 A 
ATOM      2  C   UNL     1      51.062   8.481  13.433  0.00  0.00    +0.000 A 
ATOM      3  N   UNL     1      50.095   8.624  12.494  0.00  0.00    +0.000 NA
ATOM      4  C   UNL     1      48.957   7.916  12.709  0.00  0.00    +0.000 A 
ATOM      5  C   UNL     1      48.816   7.092  13.820  0.00  0.00    +0.000 A 
ATOM      6  N   UNL     1      49.785   6.940  14.752  0.00  0.00    +0.000 NA
ENDROOT
BRANCH   1   7
ATOM      7  C   UNL     1      51.954   7.675  15.649  0.00  0.00    +0.000 C 
BRANCH   7   8
ATOM      8  N   UNL     1      51.357   7.733  17.004  0.00  0.00    +0.000 NA
ATOM      9  C   UNL     1      51.985   8.819  17.764  0.00  0.00    +0.000 C 
BRANCH   8  10
ATOM     10  C   UNL     1      51.532   6.427  17.696  0.00  0.00    +0.000 C 
BRANCH  10  15
ATOM     11  C   UNL     1      48.046   5.337  18.724  0.00  0.00    +0.000 A 
ATOM     12  C   UNL     1      48.035   4.050  18.198  0.00  0.00    +0.000 A 
ATOM     13  C   UNL     1      49.147   3.623  17.499  0.00  0.00    +0.000 A 
ATOM     14  N   UNL     1      50.255   4.369  17.316  0.00  0.00    +0.000 NA
ATOM     15  C   UNL     1      50.250   5.624  17.830  0.00  0.00    +0.000 A 
ATOM     16  C   UNL     1      49.149   6.154  18.502  0.00  0.00    +0.000 A 
BRANCH  11  18
ATOM     17  C   UNL     1      47.286   6.023  20.842  0.00  0.00    +0.000 C 
ATOM     18  O   UNL     1      47.023   5.889  19.446  0.00  0.00    +0.000 OA
ENDBRANCH  11  18
ENDBRANCH  10  15
ENDBRANCH   8  10
ENDBRANCH   7   8
ENDBRANCH   1   7
BRANCH   4  19
ATOM     19  C   UNL     1      47.805   8.097  11.754  0.00  0.00    +0.000 C 
BRANCH  19  20
ATOM     20  N   UNL     1      47.047   6.874  11.599  0.00  0.00    +0.000 N 
ATOM     21  C   UNL     1      45.707   6.809  11.865  0.00  0.00    +0.000 C 
ATOM     22  O   UNL     1      45.077   7.807  12.207  0.00  0.00    +0.000 OA
ATOM     23  H   UNL     1      47.585   6.029  11.423  0.00  0.00    +0.000 HD
BRANCH  21  24
ATOM     24  C   UNL     1      45.040   5.505  11.717  0.00  0.00    +0.000 A 
ATOM     25  C   UNL     1      44.335   4.981  12.793  0.00  0.00    +0.000 A 
ATOM     26  S   UNL     1      43.615   3.470  12.477  0.00  0.00    +0.000 S 
ATOM     27  C   UNL     1      44.229   3.449  10.892  0.00  0.00    +0.000 A 
ATOM     28  N   UNL     1      43.992   2.392  10.071  0.00  0.00    +0.000 NA
ATOM     29  C   UNL     1      44.513   2.504   8.893  0.00  0.00    +0.000 A 
ATOM     30  N   UNL     1      45.239   3.578   8.460  0.00  0.00    +0.000 N 
ATOM     31  C   UNL     1      45.504   4.670   9.255  0.00  0.00    +0.000 A 
ATOM     32  O   UNL     1      46.165   5.612   8.836  0.00  0.00    +0.000 OA
ATOM     33  C   UNL     1      44.955   4.591  10.599  0.00  0.00    +0.000 A 
ATOM     34  H   UNL     1      45.618   3.612   7.526  0.00  0.00    +0.000 HD
ENDBRANCH  21  24
ENDBRANCH  19  20
ENDBRANCH   4  19
TORSDOF 8
ENDMDL
MODEL 7
REMARK VINA RESULT:    -6.024      3.981      8.941
REMARK INTER + INTRA:          -9.740
REMARK INTER:                  -8.390
REMARK INTRA:                  -1.349
REMARK UNBOUND:                -0.898
REMARK  Name = 
REMARK  10 active torsions:
REMARK  status: ('A' for Active; 'I' for Inactive)
REMARK    1  A    between atoms: C_1  and  O_2
REMARK    2  A    between atoms: O_2  and  C_3
REMARK    3  A    between atoms: C_7  and  C_8
REMARK    4  A    between atoms: C_8  and  N_9
REMARK    5  A    between atoms: N_9  and  C_10
REMARK    6  A    between atoms: N_9  and  C_11
REMARK    7  A    between atoms: C_11  and  C_12
REMARK    8  A    between atoms: C_15  and  C_16
REMARK    9  A    between atoms: C_16  and  N_17
REMARK   10  A    between atoms: C_18  and  C_20
REMARK                            x       y       z     vdW  Elec       q    Type
REMARK                         _______ _______ _______ _____ _____    ______ ____
ROOT
ATOM      1  C   UNL     1      51.194   7.039  16.375  0.00  0.00    +0.000 A 
ATOM      2  C   UNL     1      51.188   8.431  16.327  0.00  0.00    +0.000 A 
ATOM      3  N   UNL     1      50.203   9.142  15.725  0.00  0.00    +0.000 NA
ATOM      4  C   UNL     1      49.206   8.409  15.167  0.00  0.00    +0.000 A 
ATOM      5  C   UNL     1      49.217   7.019  15.209  0.00  0.00    +0.000 A 
ATOM      6  N   UNL     1      50.205   6.308  15.801  0.00  0.00    +0.000 NA
ENDROOT
BRANCH   1   7
ATOM      7  C   UNL     1      52.221   6.307  17.208  0.00  0.00    +0.000 C 
BRANCH   7   8
ATOM      8  N   UNL     1      52.038   6.514  18.664  0.00  0.00    +0.000 NA
ATOM      9  C   UNL     1      53.352   6.662  19.301  0.00  0.00    +0.000 C 
BRANCH   8  10
ATOM     10  C   UNL     1      51.286   5.373  19.253  0.00  0.00    +0.000 C 
BRANCH  10  15
ATOM     11  C   UNL     1      47.585   5.076  18.469  0.00  0.00    +0.000 A 
ATOM     12  C   UNL     1      47.095   6.124  19.239  0.00  0.00    +0.000 A 
ATOM     13  C   UNL     1      47.990   6.843  20.007  0.00  0.00    +0.000 A 
ATOM     14  N   UNL     1      49.317   6.608  20.035  0.00  0.00    +0.000 NA
ATOM     15  C   UNL     1      49.781   5.579  19.284  0.00  0.00    +0.000 A 
ATOM     16  C   UNL     1      48.940   4.768  18.522  0.00  0.00    +0.000 A 
BRANCH  11  18
ATOM     17  C   UNL     1      47.447   3.072  17.244  0.00  0.00    +0.000 C 
ATOM     18  O   UNL     1      46.819   4.287  17.654  0.00  0.00    +0.000 OA
ENDBRANCH  11  18
ENDBRANCH  10  15
ENDBRANCH   8  10
ENDBRANCH   7   8
ENDBRANCH   1   7
BRANCH   4  19
ATOM     19  C   UNL     1      48.033   9.135  14.560  0.00  0.00    +0.000 C 
BRANCH  19  20
ATOM     20  N   UNL     1      47.044   8.212  14.047  0.00  0.00    +0.000 N 
ATOM     21  C   UNL     1      46.870   8.000  12.708  0.00  0.00    +0.000 C 
ATOM     22  O   UNL     1      47.584   8.557  11.877  0.00  0.00    +0.000 OA
ATOM     23  H   UNL     1      46.384   7.835  14.725  0.00  0.00    +0.000 HD
BRANCH  21  24
ATOM     24  C   UNL     1      45.805   7.071  12.292  0.00  0.00    +0.000 A 
ATOM     25  C   UNL     1      44.704   7.571  11.606  0.00  0.00    +0.000 A 
ATOM     26  S   UNL     1      43.556   6.384  11.188  0.00  0.00    +0.000 S 
ATOM     27  C   UNL     1      44.479   5.157  11.919  0.00  0.00    +0.000 A 
ATOM     28  N   UNL     1      44.034   3.872  11.935  0.00  0.00    +0.000 NA
ATOM     29  C   UNL     1      44.832   3.040  12.520  0.00  0.00    +0.000 A 
ATOM     30  N   UNL     1      46.033   3.372  13.079  0.00  0.00    +0.000 N 
ATOM     31  C   UNL     1      46.523   4.659  13.087  0.00  0.00    +0.000 A 
ATOM     32  O   UNL     1      47.602   4.921  13.604  0.00  0.00    +0.000 OA
ATOM     33  C   UNL     1      45.659   5.642  12.455  0.00  0.00    +0.000 A 
ATOM     34  H   UNL     1      46.616   2.676  13.519  0.00  0.00    +0.000 HD
ENDBRANCH  21  24
ENDBRANCH  19  20
ENDBRANCH   4  19
TORSDOF 8
ENDMDL
MODEL 8
REMARK VINA RESULT:    -5.954      5.782      7.151
REMARK INTER + INTRA:          -9.637
REMARK INTER:                  -9.313
REMARK INTRA:                  -0.324
REMARK UNBOUND:                -0.898
REMARK  Name = 
REMARK  10 active torsions:
REMARK  status: ('A' for Active; 'I' for Inactive)
REMARK    1  A    between atoms: C_1  and  O_2
REMARK    2  A    between atoms: O_2  and  C_3
REMARK    3  A    between atoms: C_7  and  C_8
REMARK    4  A    between atoms: C_8  and  N_9
REMARK    5  A    between atoms: N_9  and  C_10
REMARK    6  A    between atoms: N_9  and  C_11
REMARK    7  A    between atoms: C_11  and  C_12
REMARK    8  A    between atoms: C_15  and  C_16
REMARK    9  A    between atoms: C_16  and  N_17
REMARK   10  A    between atoms: C_18  and  C_20
REMARK                            x       y       z     vdW  Elec       q    Type
REMARK                         _______ _______ _______ _____ _____    ______ ____
ROOT
ATOM      1  C   UNL     1      47.217   7.559  12.799  0.00  0.00    +0.000 A 
ATOM      2  C   UNL     1      48.082   7.761  13.872  0.00  0.00    +0.000 A 
ATOM      3  N   UNL     1      49.414   7.958  13.716  0.00  0.00    +0.000 NA
ATOM      4  C   UNL     1      49.864   7.951  12.436  0.00  0.00    +0.000 A 
ATOM      5  C   UNL     1      49.000   7.741  11.366  0.00  0.00    +0.000 A 
ATOM      6  N   UNL     1      47.672   7.534  11.521  0.00  0.00    +0.000 NA
ENDROOT
BRANCH   1   7
ATOM      7  C   UNL     1      45.722   7.520  13.019  0.00  0.00    +0.000 C 
BRANCH   7   8
ATOM      8  N   UNL     1      45.136   6.183  12.767  0.00  0.00    +0.000 NA
ATOM      9  C   UNL     1      46.210   5.184  12.719  0.00  0.00    +0.000 C 
BRANCH   8  10
ATOM     10  C   UNL     1      44.363   6.194  11.496  0.00  0.00    +0.000 C 
BRANCH  10  15
ATOM     11  C   UNL     1      45.600   4.090   8.590  0.00  0.00    +0.000 A 
ATOM     12  C   UNL     1      44.980   2.883   8.890  0.00  0.00    +0.000 A 
ATOM     13  C   UNL     1      44.227   2.807  10.046  0.00  0.00    +0.000 A 
ATOM     14  N   UNL     1      44.036   3.840  10.890  0.00  0.00    +0.000 NA
ATOM     15  C   UNL     1      44.652   5.010  10.588  0.00  0.00    +0.000 A 
ATOM     16  C   UNL     1      45.472   5.159   9.471  0.00  0.00    +0.000 A 
BRANCH  11  18
ATOM     17  C   UNL     1      47.051   3.163   6.986  0.00  0.00    +0.000 C 
ATOM     18  O   UNL     1      46.365   4.315   7.477  0.00  0.00    +0.000 OA
ENDBRANCH  11  18
ENDBRANCH  10  15
ENDBRANCH   8  10
ENDBRANCH   7   8
ENDBRANCH   1   7
BRANCH   4  19
ATOM     19  C   UNL     1      51.318   8.253  12.182  0.00  0.00    +0.000 C 
BRANCH  19  20
ATOM     20  N   UNL     1      51.707   7.896  10.835  0.00  0.00    +0.000 N 
ATOM     21  C   UNL     1      52.640   8.608  10.133  0.00  0.00    +0.000 C 
ATOM     22  O   UNL     1      53.224   9.564  10.639  0.00  0.00    +0.000 OA
ATOM     23  H   UNL     1      51.149   7.177  10.379  0.00  0.00    +0.000 HD
BRANCH  21  24
ATOM     24  C   UNL     1      52.931   8.186   8.753  0.00  0.00    +0.000 A 
ATOM     25  C   UNL     1      52.832   9.118   7.726  0.00  0.00    +0.000 A 
ATOM     26  S   UNL     1      53.198   8.490   6.186  0.00  0.00    +0.000 S 
ATOM     27  C   UNL     1      53.492   6.943   6.829  0.00  0.00    +0.000 A 
ATOM     28  N   UNL     1      53.833   5.908   6.015  0.00  0.00    +0.000 NA
ATOM     29  C   UNL     1      54.030   4.789   6.630  0.00  0.00    +0.000 A 
ATOM     30  N   UNL     1      53.926   4.613   7.981  0.00  0.00    +0.000 N 
ATOM     31  C   UNL     1      53.584   5.630   8.843  0.00  0.00    +0.000 A 
ATOM     32  O   UNL     1      53.494   5.433  10.049  0.00  0.00    +0.000 OA
ATOM     33  C   UNL     1      53.335   6.911   8.203  0.00  0.00    +0.000 A 
ATOM     34  H   UNL     1      54.097   3.714   8.406  0.00  0.00    +0.000 HD
ENDBRANCH  21  24
ENDBRANCH  19  20
ENDBRANCH   4  19
TORSDOF 8
ENDMDL
