MODEL 1
REMARK VINA RESULT:    -7.768      0.000      0.000
REMARK INTER + INTRA:         -10.314
REMARK INTER:                 -10.038
REMARK INTRA:                  -0.275
REMARK UNBOUND:                -0.275
REMARK  Name = 
REMARK  5 active torsions:
REMARK  status: ('A' for Active; 'I' for Inactive)
REMARK    1  A    between atoms: C_2  and  C_4
REMARK    2  A    between atoms: C_8  and  O_9
REMARK    3  A    between atoms: O_9  and  C_10
REMARK    4  A    between atoms: C_10  and  C_11
REMARK    5  A    between atoms: C_15  and  C_16
REMARK                            x       y       z     vdW  Elec       q    Type
REMARK                         _______ _______ _______ _____ _____    ______ ____
ROOT
ATOM      1  C   UNL     1      44.279   3.521  11.665  0.00  0.00    +0.000 C 
ENDROOT
BRANCH   1   2
ATOM      2  C   UNL     1      44.500   5.003  11.674  0.00  0.00    +0.000 A 
ATOM      3  C   UNL     1      43.441   5.874  11.466  0.00  0.00    +0.000 A 
ATOM      4  N   UNL     1      43.566   7.215  11.433  0.00  0.00    +0.000 NA
ATOM      5  C   UNL     1      44.811   7.717  11.617  0.00  0.00    +0.000 A 
ATOM      6  C   UNL     1      45.953   6.947  11.839  0.00  0.00    +0.000 A 
ATOM      7  C   UNL     1      45.766   5.559  11.891  0.00  0.00    +0.000 A 
BRANCH   6   8
ATOM      8  C   UNL     1      47.344   7.537  12.005  0.00  0.00    +0.000 C 
ATOM      9  C   UNL     1      48.319   6.583  12.715  0.00  0.00    +0.000 C 
ATOM     10  C   UNL     1      48.122   6.576  14.229  0.00  0.00    +0.000 C 
ATOM     11  C   UNL     1      48.086   7.987  14.817  0.00  0.00    +0.000 C 
ATOM     12  N   UNL     1      47.143   8.866  14.134  0.00  0.00    +0.000 NA
ATOM     13  C   UNL     1      47.381   8.924  12.690  0.00  0.00    +0.000 C 
ATOM     14  H   UNL     1      47.194   9.805  14.530  0.00  0.00    +0.000 HD
ENDBRANCH   6   8
ENDBRANCH   1   2
BRANCH   1  15
ATOM     15  O   UNL     1      43.773   3.141  10.389  0.00  0.00    +0.000 OA
BRANCH  15  20
ATOM     16  C   UNL     1      46.254   2.004   7.883  0.00  0.00    +0.000 A 
ATOM     17  C   UNL     1      46.459   3.239   7.284  0.00  0.00    +0.000 A 
ATOM     18  N   UNL     1      45.809   4.368   7.658  0.00  0.00    +0.000 NA
ATOM     19  C   UNL     1      44.938   4.249   8.689  0.00  0.00    +0.000 A 
ATOM     20  C   UNL     1      44.679   3.062   9.369  0.00  0.00    +0.000 A 
ATOM     21  C   UNL     1      45.359   1.919   8.954  0.00  0.00    +0.000 A 
BRANCH  16  23
ATOM     22  N   UNL     1      47.920   1.066   6.382  0.00  0.00    +0.000 N 
ATOM     23  C   UNL     1      47.009   0.839   7.380  0.00  0.00    +0.000 C 
ATOM     24  O   UNL     1      46.854  -0.277   7.851  0.00  0.00    +0.000 OA
ATOM     25  H   UNL     1      48.505   0.276   6.133  0.00  0.00    +0.000 HD
ATOM     26  H   UNL     1      48.276   1.987   6.168  0.00  0.00    +0.000 HD
ENDBRANCH  16  23
ENDBRANCH  15  20
ENDBRANCH   1  15
TORSDOF 5
ENDMDL
MODEL 2
REMARK VINA RESULT:    -7.298      3.354      5.418
REMARK INTER + INTRA:          -9.707
REMARK INTER:                  -9.059
REMARK INTRA:                  -0.648
REMARK UNBOUND:                -0.275
REMARK  Name = 
REMARK  5 active torsions:
REMARK  status: ('A' for Active; 'I' for Inactive)
REMARK    1  A    between atoms: C_2  and  C_4
REMARK    2  A    between atoms: C_8  and  O_9
REMARK    3  A    between atoms: O_9  and  C_10
REMARK    4  A    between atoms: C_10  and  C_11
REMARK    5  A    between atoms: C_15  and  C_16
REMARK                            x       y       z     vdW  Elec       q    Type
REMARK                         _______ _______ _______ _____ _____    ______ ____
ROOT
ATOM      1  C   UNL     1      47.190   6.143  12.840  0.00  0.00    +0.000 C 
ENDROOT
BRANCH   1   2
ATOM      2  C   UNL     1      47.865   6.180  14.178  0.00  0.00    +0.000 A 
ATOM      3  C   UNL     1      48.684   7.246  14.524  0.00  0.00    +0.000 A 
ATOM      4  N   UNL     1      49.345   7.336  15.694  0.00  0.00    +0.000 NA
ATOM      5  C   UNL     1      49.185   6.313  16.567  0.00  0.00    +0.000 A 
ATOM      6  C   UNL     1      48.388   5.192  16.338  0.00  0.00    +0.000 A 
ATOM      7  C   UNL     1      47.699   5.157  15.118  0.00  0.00    +0.000 A 
BRANCH   6   8
ATOM      8  C   UNL     1      48.257   4.040  17.322  0.00  0.00    +0.000 C 
ATOM      9  C   UNL     1      49.420   3.974  18.326  0.00  0.00    +0.000 C 
ATOM     10  C   UNL     1      50.670   3.337  17.721  0.00  0.00    +0.000 C 
ATOM     11  C   UNL     1      50.368   2.011  17.024  0.00  0.00    +0.000 C 
ATOM     12  N   UNL     1      49.269   2.106  16.068  0.00  0.00    +0.000 NA
ATOM     13  C   UNL     1      48.051   2.652  16.671  0.00  0.00    +0.000 C 
ATOM     14  H   UNL     1      49.075   1.188  15.669  0.00  0.00    +0.000 HD
ENDBRANCH   6   8
ENDBRANCH   1   2
BRANCH   1  15
ATOM     15  O   UNL     1      45.780   6.113  13.039  0.00  0.00    +0.000 OA
BRANCH  15  20
ATOM     16  C   UNL     1      44.415   3.625  10.658  0.00  0.00    +0.000 A 
ATOM     17  C   UNL     1      43.578   2.981  11.558  0.00  0.00    +0.000 A 
ATOM     18  N   UNL     1      43.483   3.321  12.866  0.00  0.00    +0.000 NA
ATOM     19  C   UNL     1      44.245   4.363  13.275  0.00  0.00    +0.000 A 
ATOM     20  C   UNL     1      45.099   5.088  12.448  0.00  0.00    +0.000 A 
ATOM     21  C   UNL     1      45.178   4.707  11.109  0.00  0.00    +0.000 A 
BRANCH  16  23
ATOM     22  N   UNL     1      44.224   4.088   8.280  0.00  0.00    +0.000 N 
ATOM     23  C   UNL     1      44.446   3.156   9.259  0.00  0.00    +0.000 C 
ATOM     24  O   UNL     1      44.689   1.992   8.978  0.00  0.00    +0.000 OA
ATOM     25  H   UNL     1      44.363   3.767   7.328  0.00  0.00    +0.000 HD
ATOM     26  H   UNL     1      44.301   5.082   8.446  0.00  0.00    +0.000 HD
ENDBRANCH  16  23
ENDBRANCH  15  20
ENDBRANCH   1  15
TORSDOF 5
ENDMDL
MODEL 3
REMARK VINA RESULT:    -7.200      3.069      7.407
REMARK INTER + INTRA:          -9.579
REMARK INTER:                  -8.867
REMARK INTRA:                  -0.712
REMARK UNBOUND:                -0.275
REMARK  Name = 
REMARK  5 active torsions:
REMARK  status: ('A' for Active; 'I' for Inactive)
REMARK    1  A    between atoms: C_2  and  C_4
REMARK    2  A    between atoms: C_8  and  O_9
REMARK    3  A    between atoms: O_9  and  C_10
REMARK    4  A    between atoms: C_10  and  C_11
REMARK    5  A    between atoms: C_15  and  C_16
REMARK                            x       y       z     vdW  Elec       q    Type
REMARK                         _______ _______ _______ _____ _____    ______ ____
ROOT
ATOM      1  C   UNL     1      45.766   7.234  12.959  0.00  0.00    +0.000 C 
ENDROOT
BRANCH   1   2
ATOM      2  C   UNL     1      45.608   5.778  12.638  0.00  0.00    +0.000 A 
ATOM      3  C   UNL     1      46.160   4.811  13.465  0.00  0.00    +0.000 A 
ATOM      4  N   UNL     1      46.084   3.487  13.228  0.00  0.00    +0.000 NA
ATOM      5  C   UNL     1      45.424   3.104  12.108  0.00  0.00    +0.000 A 
ATOM      6  C   UNL     1      44.825   3.978  11.202  0.00  0.00    +0.000 A 
ATOM      7  C   UNL     1      44.908   5.344  11.507  0.00  0.00    +0.000 A 
BRANCH   6   8
ATOM      8  C   UNL     1      44.123   3.521   9.933  0.00  0.00    +0.000 C 
ATOM      9  C   UNL     1      44.586   2.132   9.460  0.00  0.00    +0.000 C 
ATOM     10  C   UNL     1      45.921   2.188   8.722  0.00  0.00    +0.000 C 
ATOM     11  C   UNL     1      45.939   3.260   7.631  0.00  0.00    +0.000 C 
ATOM     12  N   UNL     1      45.508   4.569   8.111  0.00  0.00    +0.000 NA
ATOM     13  C   UNL     1      44.194   4.522   8.757  0.00  0.00    +0.000 C 
ATOM     14  H   UNL     1      45.489   5.233   7.337  0.00  0.00    +0.000 HD
ENDBRANCH   6   8
ENDBRANCH   1   2
BRANCH   1  15
ATOM     15  O   UNL     1      45.890   7.962  11.741  0.00  0.00    +0.000 OA
BRANCH  15  20
ATOM     16  C   UNL     1      43.064  10.248  11.028  0.00  0.00    +0.000 A 
ATOM     17  C   UNL     1      43.709  11.422  11.391  0.00  0.00    +0.000 A 
ATOM     18  N   UNL     1      44.979  11.463  11.863  0.00  0.00    +0.000 NA
ATOM     19  C   UNL     1      45.627  10.277  11.950  0.00  0.00    +0.000 A 
ATOM     20  C   UNL     1      45.078   9.049  11.591  0.00  0.00    +0.000 A 
ATOM     21  C   UNL     1      43.767   9.042  11.117  0.00  0.00    +0.000 A 
BRANCH  16  23
ATOM     22  N   UNL     1      40.732   9.588  11.211  0.00  0.00    +0.000 N 
ATOM     23  C   UNL     1      41.673  10.326  10.542  0.00  0.00    +0.000 C 
ATOM     24  O   UNL     1      41.361  11.040   9.601  0.00  0.00    +0.000 OA
ATOM     25  H   UNL     1      39.770   9.745  10.932  0.00  0.00    +0.000 HD
ATOM     26  H   UNL     1      40.888   9.221  12.139  0.00  0.00    +0.000 HD
ENDBRANCH  16  23
ENDBRANCH  15  20
ENDBRANCH   1  15
TORSDOF 5
ENDMDL
MODEL 4
REMARK VINA RESULT:    -7.142      2.207      3.229
REMARK INTER + INTRA:          -9.505
REMARK INTER:                  -8.715
REMARK INTRA:                  -0.790
REMARK UNBOUND:                -0.275
REMARK  Name = 
REMARK  5 active torsions:
REMARK  status: ('A' for Active; 'I' for Inactive)
REMARK    1  A    between atoms: C_2  and  C_4
REMARK    2  A    between atoms: C_8  and  O_9
REMARK    3  A    between atoms: O_9  and  C_10
REMARK    4  A    between atoms: C_10  and  C_11
REMARK    5  A    between atoms: C_15  and  C_16
REMARK                            x       y       z     vdW  Elec       q    Type
REMARK                         _______ _______ _______ _____ _____    ______ ____
ROOT
ATOM      1  C   UNL     1      44.709   6.255  12.665  0.00  0.00    +0.000 C 
ENDROOT
BRANCH   1   2
ATOM      2  C   UNL     1      46.184   6.521  12.683  0.00  0.00    +0.000 A 
ATOM      3  C   UNL     1      47.053   5.624  13.287  0.00  0.00    +0.000 A 
ATOM      4  N   UNL     1      48.385   5.807  13.367  0.00  0.00    +0.000 NA
ATOM      5  C   UNL     1      48.880   6.942  12.818  0.00  0.00    +0.000 A 
ATOM      6  C   UNL     1      48.111   7.917  12.182  0.00  0.00    +0.000 A 
ATOM      7  C   UNL     1      46.735   7.668  12.100  0.00  0.00    +0.000 A 
BRANCH   6   8
ATOM      8  C   UNL     1      48.690   9.200  11.607  0.00  0.00    +0.000 C 
ATOM      9  C   UNL     1      50.073   9.546  12.187  0.00  0.00    +0.000 C 
ATOM     10  C   UNL     1      49.975  10.188  13.569  0.00  0.00    +0.000 C 
ATOM     11  C   UNL     1      48.974  11.343  13.606  0.00  0.00    +0.000 C 
ATOM     12  N   UNL     1      47.668  10.982  13.062  0.00  0.00    +0.000 NA
ATOM     13  C   UNL     1      47.760  10.432  11.708  0.00  0.00    +0.000 C 
ATOM     14  H   UNL     1      47.055  11.797  13.063  0.00  0.00    +0.000 HD
ENDBRANCH   6   8
ENDBRANCH   1   2
BRANCH   1  15
ATOM     15  O   UNL     1      44.265   6.222  11.313  0.00  0.00    +0.000 OA
BRANCH  15  20
ATOM     16  C   UNL     1      45.244   3.527   8.967  0.00  0.00    +0.000 A 
ATOM     17  C   UNL     1      44.466   2.527   9.532  0.00  0.00    +0.000 A 
ATOM     18  N   UNL     1      43.688   2.715  10.626  0.00  0.00    +0.000 NA
ATOM     19  C   UNL     1      43.681   3.962  11.155  0.00  0.00    +0.000 A 
ATOM     20  C   UNL     1      44.408   5.036  10.649  0.00  0.00    +0.000 A 
ATOM     21  C   UNL     1      45.203   4.808   9.528  0.00  0.00    +0.000 A 
BRANCH  16  23
ATOM     22  N   UNL     1      46.572   1.932   7.701  0.00  0.00    +0.000 N 
ATOM     23  C   UNL     1      46.064   3.202   7.783  0.00  0.00    +0.000 C 
ATOM     24  O   UNL     1      46.261   4.017   6.895  0.00  0.00    +0.000 OA
ATOM     25  H   UNL     1      47.034   1.698   6.829  0.00  0.00    +0.000 HD
ATOM     26  H   UNL     1      46.210   1.164   8.250  0.00  0.00    +0.000 HD
ENDBRANCH  16  23
ENDBRANCH  15  20
ENDBRANCH   1  15
TORSDOF 5
ENDMDL
MODEL 5
REMARK VINA RESULT:    -7.058      2.302      7.124
REMARK INTER + INTRA:          -9.396
REMARK INTER:                  -9.021
REMARK INTRA:                  -0.375
REMARK UNBOUND:                -0.275
REMARK  Name = 
REMARK  5 active torsions:
REMARK  status: ('A' for Active; 'I' for Inactive)
REMARK    1  A    between atoms: C_2  and  C_4
REMARK    2  A    between atoms: C_8  and  O_9
REMARK    3  A    between atoms: O_9  and  C_10
REMARK    4  A    between atoms: C_10  and  C_11
REMARK    5  A    between atoms: C_15  and  C_16
REMARK                            x       y       z     vdW  Elec       q    Type
REMARK                         _______ _______ _______ _____ _____    ______ ____
ROOT
ATOM      1  C   UNL     1      44.185   5.134  10.494  0.00  0.00    +0.000 C 
ENDROOT
BRANCH   1   2
ATOM      2  C   UNL     1      44.693   3.995   9.663  0.00  0.00    +0.000 A 
ATOM      3  C   UNL     1      44.227   2.706   9.875  0.00  0.00    +0.000 A 
ATOM      4  N   UNL     1      44.655   1.630   9.188  0.00  0.00    +0.000 NA
ATOM      5  C   UNL     1      45.598   1.846   8.240  0.00  0.00    +0.000 A 
ATOM      6  C   UNL     1      46.142   3.092   7.931  0.00  0.00    +0.000 A 
ATOM      7  C   UNL     1      45.644   4.184   8.654  0.00  0.00    +0.000 A 
BRANCH   6   8
ATOM      8  C   UNL     1      47.227   3.298   6.886  0.00  0.00    +0.000 C 
ATOM      9  C   UNL     1      46.664   3.495   5.468  0.00  0.00    +0.000 C 
ATOM     10  C   UNL     1      46.264   2.173   4.817  0.00  0.00    +0.000 C 
ATOM     11  C   UNL     1      47.369   1.120   4.912  0.00  0.00    +0.000 C 
ATOM     12  N   UNL     1      47.874   0.945   6.270  0.00  0.00    +0.000 NA
ATOM     13  C   UNL     1      48.322   2.206   6.865  0.00  0.00    +0.000 C 
ATOM     14  H   UNL     1      48.640   0.271   6.271  0.00  0.00    +0.000 HD
ENDBRANCH   6   8
ENDBRANCH   1   2
BRANCH   1  15
ATOM     15  O   UNL     1      45.190   6.140  10.557  0.00  0.00    +0.000 OA
BRANCH  15  20
ATOM     16  C   UNL     1      46.937   5.344  13.725  0.00  0.00    +0.000 A 
ATOM     17  C   UNL     1      47.537   6.583  13.897  0.00  0.00    +0.000 A 
ATOM     18  N   UNL     1      47.399   7.608  13.021  0.00  0.00    +0.000 NA
ATOM     19  C   UNL     1      46.610   7.379  11.944  0.00  0.00    +0.000 A 
ATOM     20  C   UNL     1      45.949   6.180  11.692  0.00  0.00    +0.000 A 
ATOM     21  C   UNL     1      46.118   5.144  12.609  0.00  0.00    +0.000 A 
BRANCH  16  23
ATOM     22  N   UNL     1      47.143   4.680  16.054  0.00  0.00    +0.000 N 
ATOM     23  C   UNL     1      47.172   4.297  14.739  0.00  0.00    +0.000 C 
ATOM     24  O   UNL     1      47.355   3.130  14.426  0.00  0.00    +0.000 OA
ATOM     25  H   UNL     1      47.193   3.927  16.733  0.00  0.00    +0.000 HD
ATOM     26  H   UNL     1      46.725   5.547  16.360  0.00  0.00    +0.000 HD
ENDBRANCH  16  23
ENDBRANCH  15  20
ENDBRANCH   1  15
TORSDOF 5
ENDMDL
MODEL 6
REMARK VINA RESULT:    -6.932      3.740      7.560
REMARK INTER + INTRA:          -9.233
REMARK INTER:                  -8.423
REMARK INTRA:                  -0.810
REMARK UNBOUND:                -0.275
REMARK  Name = 
REMARK  5 active torsions:
REMARK  status: ('A' for Active; 'I' for Inactive)
REMARK    1  A    between atoms: C_2  and  C_4
REMARK    2  A    between atoms: C_8  and  O_9
REMARK    3  A    between atoms: O_9  and  C_10
REMARK    4  A    between atoms: C_10  and  C_11
REMARK    5  A    between atoms: C_15  and  C_16
REMARK                            x       y       z     vdW  Elec       q    Type
REMARK                         _______ _______ _______ _____ _____    ______ ____
ROOT
ATOM      1  C   UNL     1      48.827   7.043  13.646  0.00  0.00    +0.000 C 
ENDROOT
BRANCH   1   2
ATOM      2  C   UNL     1      47.460   7.298  13.087  0.00  0.00    +0.000 A 
ATOM      3  C   UNL     1      47.145   8.530  12.532  0.00  0.00    +0.000 A 
ATOM      4  N   UNL     1      45.932   8.842  12.036  0.00  0.00    +0.000 NA
ATOM      5  C   UNL     1      44.982   7.879  12.094  0.00  0.00    +0.000 A 
ATOM      6  C   UNL     1      45.175   6.603  12.622  0.00  0.00    +0.000 A 
ATOM      7  C   UNL     1      46.461   6.318  13.102  0.00  0.00    +0.000 A 
BRANCH   6   8
ATOM      8  C   UNL     1      44.078   5.555  12.708  0.00  0.00    +0.000 C 
ATOM      9  C   UNL     1      44.621   4.116  12.683  0.00  0.00    +0.000 C 
ATOM     10  C   UNL     1      44.974   3.656  11.271  0.00  0.00    +0.000 C 
ATOM     11  C   UNL     1      43.844   3.916  10.274  0.00  0.00    +0.000 C 
ATOM     12  N   UNL     1      43.359   5.292  10.310  0.00  0.00    +0.000 NA
ATOM     13  C   UNL     1      42.955   5.706  11.656  0.00  0.00    +0.000 C 
ATOM     14  H   UNL     1      42.575   5.400   9.666  0.00  0.00    +0.000 HD
ENDBRANCH   6   8
ENDBRANCH   1   2
BRANCH   1  15
ATOM     15  O   UNL     1      48.837   7.419  15.020  0.00  0.00    +0.000 OA
BRANCH  15  20
ATOM     16  C   UNL     1      48.659   4.518  17.318  0.00  0.00    +0.000 A 
ATOM     17  C   UNL     1      49.971   4.583  17.765  0.00  0.00    +0.000 A 
ATOM     18  N   UNL     1      50.865   5.502  17.325  0.00  0.00    +0.000 NA
ATOM     19  C   UNL     1      50.412   6.399  16.418  0.00  0.00    +0.000 A 
ATOM     20  C   UNL     1      49.111   6.432  15.924  0.00  0.00    +0.000 A 
ATOM     21  C   UNL     1      48.218   5.469  16.391  0.00  0.00    +0.000 A 
BRANCH  16  23
ATOM     22  N   UNL     1      48.150   2.880  19.041  0.00  0.00    +0.000 N 
ATOM     23  C   UNL     1      47.778   3.463  17.857  0.00  0.00    +0.000 C 
ATOM     24  O   UNL     1      46.744   3.140  17.293  0.00  0.00    +0.000 OA
ATOM     25  H   UNL     1      47.475   2.242  19.448  0.00  0.00    +0.000 HD
ATOM     26  H   UNL     1      48.821   3.301  19.667  0.00  0.00    +0.000 HD
ENDBRANCH  16  23
ENDBRANCH  15  20
ENDBRANCH   1  15
TORSDOF 5
ENDMDL
MODEL 7
REMARK VINA RESULT:    -6.792      2.428      7.115
REMARK INTER + INTRA:          -9.052
REMARK INTER:                  -8.550
REMARK INTRA:                  -0.503
REMARK UNBOUND:                -0.275
REMARK  Name = 
REMARK  5 active torsions:
REMARK  status: ('A' for Active; 'I' for Inactive)
REMARK    1  A    between atoms: C_2  and  C_4
REMARK    2  A    between atoms: C_8  and  O_9
REMARK    3  A    between atoms: O_9  and  C_10
REMARK    4  A    between atoms: C_10  and  C_11
REMARK    5  A    between atoms: C_15  and  C_16
REMARK                            x       y       z     vdW  Elec       q    Type
REMARK                         _______ _______ _______ _____ _____    ______ ____
ROOT
ATOM      1  C   UNL     1      43.915   5.042  10.009  0.00  0.00    +0.000 C 
ENDROOT
BRANCH   1   2
ATOM      2  C   UNL     1      44.564   3.857   9.359  0.00  0.00    +0.000 A 
ATOM      3  C   UNL     1      44.170   2.570   9.691  0.00  0.00    +0.000 A 
ATOM      4  N   UNL     1      44.724   1.457   9.172  0.00  0.00    +0.000 NA
ATOM      5  C   UNL     1      45.724   1.634   8.275  0.00  0.00    +0.000 A 
ATOM      6  C   UNL     1      46.206   2.874   7.858  0.00  0.00    +0.000 A 
ATOM      7  C   UNL     1      45.579   4.001   8.407  0.00  0.00    +0.000 A 
BRANCH   6   8
ATOM      8  C   UNL     1      47.355   3.042   6.877  0.00  0.00    +0.000 C 
ATOM      9  C   UNL     1      46.883   3.371   5.451  0.00  0.00    +0.000 C 
ATOM     10  C   UNL     1      46.400   2.131   4.701  0.00  0.00    +0.000 C 
ATOM     11  C   UNL     1      47.401   0.978   4.779  0.00  0.00    +0.000 C 
ATOM     12  N   UNL     1      47.821   0.679   6.144  0.00  0.00    +0.000 NA
ATOM     13  C   UNL     1      48.349   1.857   6.836  0.00  0.00    +0.000 C 
ATOM     14  H   UNL     1      48.524  -0.061   6.137  0.00  0.00    +0.000 HD
ENDBRANCH   6   8
ENDBRANCH   1   2
BRANCH   1  15
ATOM     15  O   UNL     1      43.762   4.777  11.399  0.00  0.00    +0.000 OA
BRANCH  15  20
ATOM     16  C   UNL     1      47.010   5.820  12.844  0.00  0.00    +0.000 A 
ATOM     17  C   UNL     1      46.988   4.960  13.932  0.00  0.00    +0.000 A 
ATOM     18  N   UNL     1      45.966   4.109  14.192  0.00  0.00    +0.000 NA
ATOM     19  C   UNL     1      44.939   4.113  13.309  0.00  0.00    +0.000 A 
ATOM     20  C   UNL     1      44.876   4.921  12.177  0.00  0.00    +0.000 A 
ATOM     21  C   UNL     1      45.940   5.789  11.943  0.00  0.00    +0.000 A 
BRANCH  16  23
ATOM     22  N   UNL     1      48.065   7.707  11.732  0.00  0.00    +0.000 N 
ATOM     23  C   UNL     1      48.171   6.715  12.671  0.00  0.00    +0.000 C 
ATOM     24  O   UNL     1      49.177   6.600  13.355  0.00  0.00    +0.000 OA
ATOM     25  H   UNL     1      48.827   8.376  11.711  0.00  0.00    +0.000 HD
ATOM     26  H   UNL     1      47.177   8.009  11.358  0.00  0.00    +0.000 HD
ENDBRANCH  16  23
ENDBRANCH  15  20
ENDBRANCH   1  15
TORSDOF 5
ENDMDL
MODEL 8
REMARK VINA RESULT:    -6.550      4.115      6.587
REMARK INTER + INTRA:          -8.740
REMARK INTER:                  -8.121
REMARK INTRA:                  -0.618
REMARK UNBOUND:                -0.275
REMARK  Name = 
REMARK  5 active torsions:
REMARK  status: ('A' for Active; 'I' for Inactive)
REMARK    1  A    between atoms: C_2  and  C_4
REMARK    2  A    between atoms: C_8  and  O_9
REMARK    3  A    between atoms: O_9  and  C_10
REMARK    4  A    between atoms: C_10  and  C_11
REMARK    5  A    between atoms: C_15  and  C_16
REMARK                            x       y       z     vdW  Elec       q    Type
REMARK                         _______ _______ _______ _____ _____    ______ ____
ROOT
ATOM      1  C   UNL     1      48.101   7.581  13.716  0.00  0.00    +0.000 C 
ENDROOT
BRANCH   1   2
ATOM      2  C   UNL     1      49.038   7.173  14.812  0.00  0.00    +0.000 A 
ATOM      3  C   UNL     1      50.393   7.457  14.722  0.00  0.00    +0.000 A 
ATOM      4  N   UNL     1      51.299   7.098  15.652  0.00  0.00    +0.000 NA
ATOM      5  C   UNL     1      50.834   6.422  16.729  0.00  0.00    +0.000 A 
ATOM      6  C   UNL     1      49.498   6.080  16.936  0.00  0.00    +0.000 A 
ATOM      7  C   UNL     1      48.590   6.499  15.954  0.00  0.00    +0.000 A 
BRANCH   6   8
ATOM      8  C   UNL     1      49.011   5.287  18.138  0.00  0.00    +0.000 C 
ATOM      9  C   UNL     1      49.689   3.911  18.263  0.00  0.00    +0.000 C 
ATOM     10  C   UNL     1      49.082   2.880  17.314  0.00  0.00    +0.000 C 
ATOM     11  C   UNL     1      47.557   2.837  17.400  0.00  0.00    +0.000 C 
ATOM     12  N   UNL     1      46.940   4.153  17.264  0.00  0.00    +0.000 NA
ATOM     13  C   UNL     1      47.476   5.120  18.225  0.00  0.00    +0.000 C 
ATOM     14  H   UNL     1      45.930   4.076  17.379  0.00  0.00    +0.000 HD
ENDBRANCH   6   8
ENDBRANCH   1   2
BRANCH   1  15
ATOM     15  O   UNL     1      47.938   6.485  12.821  0.00  0.00    +0.000 OA
BRANCH  15  20
ATOM     16  C   UNL     1      44.369   5.650  12.283  0.00  0.00    +0.000 A 
ATOM     17  C   UNL     1      44.383   4.435  12.953  0.00  0.00    +0.000 A 
ATOM     18  N   UNL     1      45.494   3.909  13.524  0.00  0.00    +0.000 NA
ATOM     19  C   UNL     1      46.626   4.647  13.433  0.00  0.00    +0.000 A 
ATOM     20  C   UNL     1      46.711   5.886  12.802  0.00  0.00    +0.000 A 
ATOM     21  C   UNL     1      45.552   6.394  12.219  0.00  0.00    +0.000 A 
BRANCH  16  23
ATOM     22  N   UNL     1      43.116   7.329  11.051  0.00  0.00    +0.000 N 
ATOM     23  C   UNL     1      43.102   6.115  11.686  0.00  0.00    +0.000 C 
ATOM     24  O   UNL     1      42.086   5.437  11.727  0.00  0.00    +0.000 OA
ATOM     25  H   UNL     1      42.267   7.574  10.552  0.00  0.00    +0.000 HD
ATOM     26  H   UNL     1      43.970   7.777  10.752  0.00  0.00    +0.000 HD
ENDBRANCH  16  23
ENDBRANCH  15  20
ENDBRANCH   1  15
TORSDOF 5
ENDMDL
MODEL 9
REMARK VINA RESULT:    -6.437      4.510      6.724
REMARK INTER + INTRA:          -8.594
REMARK INTER:                  -7.841
REMARK INTRA:                  -0.753
REMARK UNBOUND:                -0.275
REMARK  Name = 
REMARK  5 active torsions:
REMARK  status: ('A' for Active; 'I' for Inactive)
REMARK    1  A    between atoms: C_2  and  C_4
REMARK    2  A    between atoms: C_8  and  O_9
REMARK    3  A    between atoms: O_9  and  C_10
REMARK    4  A    between atoms: C_10  and  C_11
REMARK    5  A    between atoms: C_15  and  C_16
REMARK                            x       y       z     vdW  Elec       q    Type
REMARK                         _______ _______ _______ _____ _____    ______ ____
ROOT
ATOM      1  C   UNL     1      46.973   3.818  14.087  0.00  0.00    +0.000 C 
ENDROOT
BRANCH   1   2
ATOM      2  C   UNL     1      46.597   5.129  13.464  0.00  0.00    +0.000 A 
ATOM      3  C   UNL     1      45.264   5.458  13.266  0.00  0.00    +0.000 A 
ATOM      4  N   UNL     1      44.851   6.603  12.689  0.00  0.00    +0.000 NA
ATOM      5  C   UNL     1      45.813   7.467  12.288  0.00  0.00    +0.000 A 
ATOM      6  C   UNL     1      47.183   7.253  12.434  0.00  0.00    +0.000 A 
ATOM      7  C   UNL     1      47.563   6.060  13.065  0.00  0.00    +0.000 A 
BRANCH   6   8
ATOM      8  C   UNL     1      48.242   8.225  11.940  0.00  0.00    +0.000 C 
ATOM      9  C   UNL     1      49.592   8.059  12.660  0.00  0.00    +0.000 C 
ATOM     10  C   UNL     1      49.599   8.723  14.035  0.00  0.00    +0.000 C 
ATOM     11  C   UNL     1      49.088  10.163  13.989  0.00  0.00    +0.000 C 
ATOM     12  N   UNL     1      47.800  10.289  13.313  0.00  0.00    +0.000 NA
ATOM     13  C   UNL     1      47.819   9.713  11.966  0.00  0.00    +0.000 C 
ATOM     14  H   UNL     1      47.529  11.271  13.264  0.00  0.00    +0.000 HD
ENDBRANCH   6   8
ENDBRANCH   1   2
BRANCH   1  15
ATOM     15  O   UNL     1      46.582   3.832  15.456  0.00  0.00    +0.000 OA
BRANCH  15  20
ATOM     16  C   UNL     1      49.639   3.032  17.390  0.00  0.00    +0.000 A 
ATOM     17  C   UNL     1      49.432   3.951  18.409  0.00  0.00    +0.000 A 
ATOM     18  N   UNL     1      48.373   4.796  18.450  0.00  0.00    +0.000 NA
ATOM     19  C   UNL     1      47.481   4.694  17.436  0.00  0.00    +0.000 A 
ATOM     20  C   UNL     1      47.586   3.793  16.381  0.00  0.00    +0.000 A 
ATOM     21  C   UNL     1      48.691   2.943  16.365  0.00  0.00    +0.000 A 
BRANCH  16  23
ATOM     22  N   UNL     1      51.831   2.535  18.317  0.00  0.00    +0.000 N 
ATOM     23  C   UNL     1      50.839   2.173  17.443  0.00  0.00    +0.000 C 
ATOM     24  O   UNL     1      50.936   1.164  16.762  0.00  0.00    +0.000 OA
ATOM     25  H   UNL     1      52.590   1.871  18.418  0.00  0.00    +0.000 HD
ATOM     26  H   UNL     1      51.676   3.178  19.081  0.00  0.00    +0.000 HD
ENDBRANCH  16  23
ENDBRANCH  15  20
ENDBRANCH   1  15
TORSDOF 5
ENDMDL
