MODEL 1
REMARK VINA RESULT:    -7.951      0.000      0.000
REMARK INTER + INTRA:         -11.577
REMARK INTER:                 -10.740
REMARK INTRA:                  -0.836
REMARK UNBOUND:                -0.836
REMARK  Name = 
REMARK  7 active torsions:
REMARK  status: ('A' for Active; 'I' for Inactive)
REMARK    1  A    between atoms: C_1  and  N_2
REMARK    2  A    between atoms: N_5  and  C_6
REMARK    3  A    between atoms: C_10  and  C_11
REMARK    4  A    between atoms: C_11  and  C_12
REMARK    5  A    between atoms: C_12  and  N_13
REMARK    6  A    between atoms: N_13  and  C_14
REMARK    7  A    between atoms: C_17  and  C_18
REMARK                            x       y       z     vdW  Elec       q    Type
REMARK                         _______ _______ _______ _____ _____    ______ ____
ROOT
ATOM      1  C   UNL     1      43.782   4.236  12.888  0.00  0.00    +0.000 C 
ENDROOT
BRANCH   1   6
ATOM      2  C   UNL     1      46.547   6.866  12.838  0.00  0.00    +0.000 A 
ATOM      3  C   UNL     1      47.585   6.072  13.325  0.00  0.00    +0.000 A 
ATOM      4  N   UNL     1      47.485   4.765  13.665  0.00  0.00    +0.000 NA
ATOM      5  C   UNL     1      46.271   4.198  13.518  0.00  0.00    +0.000 A 
ATOM      6  C   UNL     1      45.147   4.864  13.044  0.00  0.00    +0.000 A 
ATOM      7  C   UNL     1      45.313   6.214  12.708  0.00  0.00    +0.000 A 
BRANCH   2  12
ATOM      8  C   UNL     1      47.055  12.085  10.892  0.00  0.00    +0.000 C 
ATOM      9  N   UNL     1      46.941  11.027  11.893  0.00  0.00    +0.000 NA
ATOM     10  C   UNL     1      45.654  10.308  11.744  0.00  0.00    +0.000 C 
ATOM     11  C   UNL     1      45.507   9.126  12.736  0.00  0.00    +0.000 C 
ATOM     12  N   UNL     1      46.653   8.218  12.568  0.00  0.00    +0.000 N 
ATOM     13  C   UNL     1      47.952   8.891  12.757  0.00  0.00    +0.000 C 
ATOM     14  C   UNL     1      48.061  10.066  11.760  0.00  0.00    +0.000 C 
ENDBRANCH   2  12
ENDBRANCH   1   6
BRANCH   1  15
ATOM     15  C   UNL     1      43.651   3.274  11.705  0.00  0.00    +0.000 C 
BRANCH  15  16
ATOM     16  N   UNL     1      43.791   3.963  10.430  0.00  0.00    +0.000 N 
ATOM     17  H   UNL     1      42.930   4.336  10.038  0.00  0.00    +0.000 HD
BRANCH  16  18
ATOM     18  C   UNL     1      44.634   3.411   9.458  0.00  0.00    +0.000 A 
ATOM     19  C   UNL     1      44.894   2.037   9.348  0.00  0.00    +0.000 A 
ATOM     20  C   UNL     1      45.822   1.542   8.427  0.00  0.00    +0.000 A 
ATOM     21  C   UNL     1      46.530   2.419   7.604  0.00  0.00    +0.000 A 
ATOM     22  C   UNL     1      46.306   3.795   7.717  0.00  0.00    +0.000 A 
ATOM     23  C   UNL     1      45.369   4.278   8.641  0.00  0.00    +0.000 A 
BRANCH  21  24
ATOM     24  C   UNL     1      47.534   1.850   6.668  0.00  0.00    +0.000 C 
ATOM     25  N   UNL     1      48.597   2.637   6.328  0.00  0.00    +0.000 N 
ATOM     26  O   UNL     1      47.407   0.730   6.189  0.00  0.00    +0.000 OA
ATOM     27  H   UNL     1      48.614   3.632   6.499  0.00  0.00    +0.000 HD
ATOM     28  H   UNL     1      49.214   2.270   5.615  0.00  0.00    +0.000 HD
ENDBRANCH  21  24
ENDBRANCH  16  18
ENDBRANCH  15  16
ENDBRANCH   1  15
TORSDOF 6
ENDMDL
MODEL 2
REMARK VINA RESULT:    -7.657      2.629      4.562
REMARK INTER + INTRA:         -11.179
REMARK INTER:                 -10.439
REMARK INTRA:                  -0.740
REMARK UNBOUND:                -0.836
REMARK  Name = 
REMARK  7 active torsions:
REMARK  status: ('A' for Active; 'I' for Inactive)
REMARK    1  A    between atoms: C_1  and  N_2
REMARK    2  A    between atoms: N_5  and  C_6
REMARK    3  A    between atoms: C_10  and  C_11
REMARK    4  A    between atoms: C_11  and  C_12
REMARK    5  A    between atoms: C_12  and  N_13
REMARK    6  A    between atoms: N_13  and  C_14
REMARK    7  A    between atoms: C_17  and  C_18
REMARK                            x       y       z     vdW  Elec       q    Type
REMARK                         _______ _______ _______ _____ _____    ______ ____
ROOT
ATOM      1  C   UNL     1      44.911   4.197  12.336  0.00  0.00    +0.000 C 
ENDROOT
BRANCH   1   6
ATOM      2  C   UNL     1      47.533   5.448  14.811  0.00  0.00    +0.000 A 
ATOM      3  C   UNL     1      48.077   6.465  14.027  0.00  0.00    +0.000 A 
ATOM      4  N   UNL     1      47.679   6.793  12.775  0.00  0.00    +0.000 NA
ATOM      5  C   UNL     1      46.672   6.064  12.255  0.00  0.00    +0.000 A 
ATOM      6  C   UNL     1      46.033   5.024  12.919  0.00  0.00    +0.000 A 
ATOM      7  C   UNL     1      46.489   4.731  14.211  0.00  0.00    +0.000 A 
BRANCH   2  12
ATOM      8  C   UNL     1      48.754   4.431  20.173  0.00  0.00    +0.000 C 
ATOM      9  N   UNL     1      48.938   4.413  18.725  0.00  0.00    +0.000 NA
ATOM     10  C   UNL     1      47.832   3.677  18.069  0.00  0.00    +0.000 C 
ATOM     11  C   UNL     1      47.936   3.685  16.523  0.00  0.00    +0.000 C 
ATOM     12  N   UNL     1      48.005   5.080  16.058  0.00  0.00    +0.000 N 
ATOM     13  C   UNL     1      49.126   5.830  16.654  0.00  0.00    +0.000 C 
ATOM     14  C   UNL     1      48.995   5.795  18.193  0.00  0.00    +0.000 C 
ENDBRANCH   2  12
ENDBRANCH   1   6
BRANCH   1  15
ATOM     15  C   UNL     1      44.124   4.883  11.218  0.00  0.00    +0.000 C 
BRANCH  15  16
ATOM     16  N   UNL     1      43.616   3.923  10.247  0.00  0.00    +0.000 N 
ATOM     17  H   UNL     1      42.957   3.240  10.612  0.00  0.00    +0.000 HD
BRANCH  16  18
ATOM     18  C   UNL     1      44.507   3.373   9.318  0.00  0.00    +0.000 A 
ATOM     19  C   UNL     1      44.837   2.010   9.273  0.00  0.00    +0.000 A 
ATOM     20  C   UNL     1      45.809   1.524   8.393  0.00  0.00    +0.000 A 
ATOM     21  C   UNL     1      46.493   2.400   7.550  0.00  0.00    +0.000 A 
ATOM     22  C   UNL     1      46.200   3.766   7.599  0.00  0.00    +0.000 A 
ATOM     23  C   UNL     1      45.218   4.241   8.480  0.00  0.00    +0.000 A 
BRANCH  21  24
ATOM     24  C   UNL     1      47.545   1.843   6.661  0.00  0.00    +0.000 C 
ATOM     25  N   UNL     1      48.671   2.593   6.469  0.00  0.00    +0.000 N 
ATOM     26  O   UNL     1      47.406   0.767   6.092  0.00  0.00    +0.000 OA
ATOM     27  H   UNL     1      48.722   3.571   6.713  0.00  0.00    +0.000 HD
ATOM     28  H   UNL     1      49.329   2.242   5.784  0.00  0.00    +0.000 HD
ENDBRANCH  21  24
ENDBRANCH  16  18
ENDBRANCH  15  16
ENDBRANCH   1  15
TORSDOF 6
ENDMDL
MODEL 3
REMARK VINA RESULT:    -7.641      2.108      2.989
REMARK INTER + INTRA:         -11.158
REMARK INTER:                 -10.368
REMARK INTRA:                  -0.790
REMARK UNBOUND:                -0.836
REMARK  Name = 
REMARK  7 active torsions:
REMARK  status: ('A' for Active; 'I' for Inactive)
REMARK    1  A    between atoms: C_1  and  N_2
REMARK    2  A    between atoms: N_5  and  C_6
REMARK    3  A    between atoms: C_10  and  C_11
REMARK    4  A    between atoms: C_11  and  C_12
REMARK    5  A    between atoms: C_12  and  N_13
REMARK    6  A    between atoms: N_13  and  C_14
REMARK    7  A    between atoms: C_17  and  C_18
REMARK                            x       y       z     vdW  Elec       q    Type
REMARK                         _______ _______ _______ _____ _____    ______ ____
ROOT
ATOM      1  C   UNL     1      44.420   6.206  11.536  0.00  0.00    +0.000 C 
ENDROOT
BRANCH   1   6
ATOM      2  C   UNL     1      47.632   6.119  13.594  0.00  0.00    +0.000 A 
ATOM      3  C   UNL     1      47.363   4.969  14.335  0.00  0.00    +0.000 A 
ATOM      4  N   UNL     1      46.245   4.211  14.234  0.00  0.00    +0.000 NA
ATOM      5  C   UNL     1      45.322   4.618  13.339  0.00  0.00    +0.000 A 
ATOM      6  C   UNL     1      45.455   5.740  12.532  0.00  0.00    +0.000 A 
ATOM      7  C   UNL     1      46.633   6.485  12.681  0.00  0.00    +0.000 A 
BRANCH   2  12
ATOM      8  C   UNL     1      52.607   8.616  14.139  0.00  0.00    +0.000 C 
ATOM      9  N   UNL     1      51.151   8.498  14.162  0.00  0.00    +0.000 NA
ATOM     10  C   UNL     1      50.635   8.172  12.812  0.00  0.00    +0.000 C 
ATOM     11  C   UNL     1      49.100   7.963  12.789  0.00  0.00    +0.000 C 
ATOM     12  N   UNL     1      48.746   6.921  13.766  0.00  0.00    +0.000 N 
ATOM     13  C   UNL     1      49.203   7.235  15.132  0.00  0.00    +0.000 C 
ATOM     14  C   UNL     1      50.734   7.445  15.117  0.00  0.00    +0.000 C 
ENDBRANCH   2  12
ENDBRANCH   1   6
BRANCH   1  15
ATOM     15  C   UNL     1      43.485   5.109  11.024  0.00  0.00    +0.000 C 
BRANCH  15  16
ATOM     16  N   UNL     1      43.612   4.918   9.586  0.00  0.00    +0.000 N 
ATOM     17  H   UNL     1      42.737   4.906   9.067  0.00  0.00    +0.000 HD
BRANCH  16  18
ATOM     18  C   UNL     1      44.535   3.977   9.113  0.00  0.00    +0.000 A 
ATOM     19  C   UNL     1      45.536   4.275   8.178  0.00  0.00    +0.000 A 
ATOM     20  C   UNL     1      46.369   3.279   7.658  0.00  0.00    +0.000 A 
ATOM     21  C   UNL     1      46.202   1.950   8.051  0.00  0.00    +0.000 A 
ATOM     22  C   UNL     1      45.191   1.627   8.960  0.00  0.00    +0.000 A 
ATOM     23  C   UNL     1      44.366   2.636   9.479  0.00  0.00    +0.000 A 
BRANCH  21  24
ATOM     24  C   UNL     1      47.085   0.922   7.442  0.00  0.00    +0.000 C 
ATOM     25  N   UNL     1      48.032   1.348   6.555  0.00  0.00    +0.000 N 
ATOM     26  O   UNL     1      46.957  -0.270   7.695  0.00  0.00    +0.000 OA
ATOM     27  H   UNL     1      48.013   2.267   6.137  0.00  0.00    +0.000 HD
ATOM     28  H   UNL     1      48.555   0.624   6.078  0.00  0.00    +0.000 HD
ENDBRANCH  21  24
ENDBRANCH  16  18
ENDBRANCH  15  16
ENDBRANCH   1  15
TORSDOF 6
ENDMDL
MODEL 4
REMARK VINA RESULT:    -7.483      1.810      3.103
REMARK INTER + INTRA:         -10.945
REMARK INTER:                 -10.407
REMARK INTRA:                  -0.538
REMARK UNBOUND:                -0.836
REMARK  Name = 
REMARK  7 active torsions:
REMARK  status: ('A' for Active; 'I' for Inactive)
REMARK    1  A    between atoms: C_1  and  N_2
REMARK    2  A    between atoms: N_5  and  C_6
REMARK    3  A    between atoms: C_10  and  C_11
REMARK    4  A    between atoms: C_11  and  C_12
REMARK    5  A    between atoms: C_12  and  N_13
REMARK    6  A    between atoms: N_13  and  C_14
REMARK    7  A    between atoms: C_17  and  C_18
REMARK                            x       y       z     vdW  Elec       q    Type
REMARK                         _______ _______ _______ _____ _____    ______ ____
ROOT
ATOM      1  C   UNL     1      43.530   4.138  12.589  0.00  0.00    +0.000 C 
ENDROOT
BRANCH   1   6
ATOM      2  C   UNL     1      46.416   6.569  13.152  0.00  0.00    +0.000 A 
ATOM      3  C   UNL     1      45.991   7.585  12.296  0.00  0.00    +0.000 A 
ATOM      4  N   UNL     1      44.857   7.567  11.555  0.00  0.00    +0.000 NA
ATOM      5  C   UNL     1      44.088   6.466  11.661  0.00  0.00    +0.000 A 
ATOM      6  C   UNL     1      44.383   5.379  12.474  0.00  0.00    +0.000 A 
ATOM      7  C   UNL     1      45.569   5.455  13.217  0.00  0.00    +0.000 A 
BRANCH   2  12
ATOM      8  C   UNL     1      51.010   7.400  16.232  0.00  0.00    +0.000 C 
ATOM      9  N   UNL     1      50.128   6.718  15.289  0.00  0.00    +0.000 NA
ATOM     10  C   UNL     1      48.858   6.334  15.949  0.00  0.00    +0.000 C 
ATOM     11  C   UNL     1      47.852   5.669  14.977  0.00  0.00    +0.000 C 
ATOM     12  N   UNL     1      47.615   6.575  13.842  0.00  0.00    +0.000 N 
ATOM     13  C   UNL     1      48.854   6.940  13.130  0.00  0.00    +0.000 C 
ATOM     14  C   UNL     1      49.837   7.593  14.129  0.00  0.00    +0.000 C 
ENDBRANCH   2  12
ENDBRANCH   1   6
BRANCH   1  15
ATOM     15  C   UNL     1      43.788   3.081  11.513  0.00  0.00    +0.000 C 
BRANCH  15  16
ATOM     16  N   UNL     1      43.704   3.644  10.172  0.00  0.00    +0.000 N 
ATOM     17  H   UNL     1      42.762   3.791   9.818  0.00  0.00    +0.000 HD
BRANCH  16  18
ATOM     18  C   UNL     1      44.583   3.171   9.190  0.00  0.00    +0.000 A 
ATOM     19  C   UNL     1      45.181   1.903   9.231  0.00  0.00    +0.000 A 
ATOM     20  C   UNL     1      46.132   1.514   8.282  0.00  0.00    +0.000 A 
ATOM     21  C   UNL     1      46.523   2.400   7.278  0.00  0.00    +0.000 A 
ATOM     22  C   UNL     1      45.960   3.679   7.236  0.00  0.00    +0.000 A 
ATOM     23  C   UNL     1      45.004   4.055   8.189  0.00  0.00    +0.000 A 
BRANCH  21  24
ATOM     24  C   UNL     1      47.565   1.956   6.315  0.00  0.00    +0.000 C 
ATOM     25  N   UNL     1      48.795   2.542   6.403  0.00  0.00    +0.000 N 
ATOM     26  O   UNL     1      47.331   1.119   5.452  0.00  0.00    +0.000 OA
ATOM     27  H   UNL     1      48.958   3.392   6.924  0.00  0.00    +0.000 HD
ATOM     28  H   UNL     1      49.458   2.299   5.678  0.00  0.00    +0.000 HD
ENDBRANCH  21  24
ENDBRANCH  16  18
ENDBRANCH  15  16
ENDBRANCH   1  15
TORSDOF 6
ENDMDL
MODEL 5
REMARK VINA RESULT:    -7.280      1.730      2.461
REMARK INTER + INTRA:         -10.670
REMARK INTER:                  -9.790
REMARK INTRA:                  -0.880
REMARK UNBOUND:                -0.836
REMARK  Name = 
REMARK  7 active torsions:
REMARK  status: ('A' for Active; 'I' for Inactive)
REMARK    1  A    between atoms: C_1  and  N_2
REMARK    2  A    between atoms: N_5  and  C_6
REMARK    3  A    between atoms: C_10  and  C_11
REMARK    4  A    between atoms: C_11  and  C_12
REMARK    5  A    between atoms: C_12  and  N_13
REMARK    6  A    between atoms: N_13  and  C_14
REMARK    7  A    between atoms: C_17  and  C_18
REMARK                            x       y       z     vdW  Elec       q    Type
REMARK                         _______ _______ _______ _____ _____    ______ ____
ROOT
ATOM      1  C   UNL     1      45.504   4.198  12.144  0.00  0.00    +0.000 C 
ENDROOT
BRANCH   1   6
ATOM      2  C   UNL     1      47.167   7.632  12.189  0.00  0.00    +0.000 A 
ATOM      3  C   UNL     1      46.025   8.403  12.405  0.00  0.00    +0.000 A 
ATOM      4  N   UNL     1      44.766   7.925  12.543  0.00  0.00    +0.000 NA
ATOM      5  C   UNL     1      44.619   6.587  12.459  0.00  0.00    +0.000 A 
ATOM      6  C   UNL     1      45.664   5.696  12.250  0.00  0.00    +0.000 A 
ATOM      7  C   UNL     1      46.944   6.251  12.114  0.00  0.00    +0.000 A 
BRANCH   2  12
ATOM      8  C   UNL     1      52.121   9.564  10.457  0.00  0.00    +0.000 C 
ATOM      9  N   UNL     1      51.095   9.159  11.414  0.00  0.00    +0.000 NA
ATOM     10  C   UNL     1      49.884   9.999  11.263  0.00  0.00    +0.000 C 
ATOM     11  C   UNL     1      48.732   9.569  12.206  0.00  0.00    +0.000 C 
ATOM     12  N   UNL     1      48.433   8.147  11.974  0.00  0.00    +0.000 N 
ATOM     13  C   UNL     1      49.606   7.274  12.164  0.00  0.00    +0.000 C 
ATOM     14  C   UNL     1      50.737   7.735  11.216  0.00  0.00    +0.000 C 
ENDBRANCH   2  12
ENDBRANCH   1   6
BRANCH   1  15
ATOM     15  C   UNL     1      44.112   3.732  11.713  0.00  0.00    +0.000 C 
BRANCH  15  16
ATOM     16  N   UNL     1      43.857   4.019  10.307  0.00  0.00    +0.000 N 
ATOM     17  H   UNL     1      42.878   4.014  10.032  0.00  0.00    +0.000 HD
BRANCH  16  18
ATOM     18  C   UNL     1      44.695   3.447   9.343  0.00  0.00    +0.000 A 
ATOM     19  C   UNL     1      44.953   2.071   9.259  0.00  0.00    +0.000 A 
ATOM     20  C   UNL     1      45.876   1.557   8.344  0.00  0.00    +0.000 A 
ATOM     21  C   UNL     1      46.582   2.417   7.501  0.00  0.00    +0.000 A 
ATOM     22  C   UNL     1      46.360   3.795   7.588  0.00  0.00    +0.000 A 
ATOM     23  C   UNL     1      45.427   4.298   8.506  0.00  0.00    +0.000 A 
BRANCH  21  24
ATOM     24  C   UNL     1      47.581   1.829   6.572  0.00  0.00    +0.000 C 
ATOM     25  N   UNL     1      48.705   2.560   6.309  0.00  0.00    +0.000 N 
ATOM     26  O   UNL     1      47.400   0.744   6.033  0.00  0.00    +0.000 OA
ATOM     27  H   UNL     1      48.779   3.542   6.529  0.00  0.00    +0.000 HD
ATOM     28  H   UNL     1      49.323   2.187   5.599  0.00  0.00    +0.000 HD
ENDBRANCH  21  24
ENDBRANCH  16  18
ENDBRANCH  15  16
ENDBRANCH   1  15
TORSDOF 6
ENDMDL
MODEL 6
REMARK VINA RESULT:    -6.974      3.182      7.599
REMARK INTER + INTRA:         -10.256
REMARK INTER:                  -9.340
REMARK INTRA:                  -0.916
REMARK UNBOUND:                -0.836
REMARK  Name = 
REMARK  7 active torsions:
REMARK  status: ('A' for Active; 'I' for Inactive)
REMARK    1  A    between atoms: C_1  and  N_2
REMARK    2  A    between atoms: N_5  and  C_6
REMARK    3  A    between atoms: C_10  and  C_11
REMARK    4  A    between atoms: C_11  and  C_12
REMARK    5  A    between atoms: C_12  and  N_13
REMARK    6  A    between atoms: N_13  and  C_14
REMARK    7  A    between atoms: C_17  and  C_18
REMARK                            x       y       z     vdW  Elec       q    Type
REMARK                         _______ _______ _______ _____ _____    ______ ____
ROOT
ATOM      1  C   UNL     1      44.802   7.299  11.690  0.00  0.00    +0.000 C 
ENDROOT
BRANCH   1   6
ATOM      2  C   UNL     1      44.651   3.838  10.091  0.00  0.00    +0.000 A 
ATOM      3  C   UNL     1      43.800   3.229  11.014  0.00  0.00    +0.000 A 
ATOM      4  N   UNL     1      43.263   3.828  12.104  0.00  0.00    +0.000 NA
ATOM      5  C   UNL     1      43.591   5.120  12.302  0.00  0.00    +0.000 A 
ATOM      6  C   UNL     1      44.424   5.854  11.467  0.00  0.00    +0.000 A 
ATOM      7  C   UNL     1      44.949   5.181  10.355  0.00  0.00    +0.000 A 
BRANCH   2  12
ATOM      8  C   UNL     1      47.838   1.377   6.209  0.00  0.00    +0.000 C 
ATOM      9  N   UNL     1      46.612   1.889   6.817  0.00  0.00    +0.000 NA
ATOM     10  C   UNL     1      46.334   1.189   8.094  0.00  0.00    +0.000 C 
ATOM     11  C   UNL     1      45.082   1.740   8.821  0.00  0.00    +0.000 C 
ATOM     12  N   UNL     1      45.249   3.187   9.027  0.00  0.00    +0.000 N 
ATOM     13  C   UNL     1      45.479   3.923   7.770  0.00  0.00    +0.000 C 
ATOM     14  C   UNL     1      46.728   3.344   7.068  0.00  0.00    +0.000 C 
ENDBRANCH   2  12
ENDBRANCH   1   6
BRANCH   1  15
ATOM     15  C   UNL     1      45.743   7.539  12.872  0.00  0.00    +0.000 C 
BRANCH  15  16
ATOM     16  N   UNL     1      46.954   6.736  12.771  0.00  0.00    +0.000 N 
ATOM     17  H   UNL     1      47.127   6.319  11.860  0.00  0.00    +0.000 HD
BRANCH  16  18
ATOM     18  C   UNL     1      47.282   5.880  13.829  0.00  0.00    +0.000 A 
ATOM     19  C   UNL     1      46.750   4.591  13.976  0.00  0.00    +0.000 A 
ATOM     20  C   UNL     1      47.028   3.811  15.103  0.00  0.00    +0.000 A 
ATOM     21  C   UNL     1      47.831   4.318  16.125  0.00  0.00    +0.000 A 
ATOM     22  C   UNL     1      48.348   5.611  16.012  0.00  0.00    +0.000 A 
ATOM     23  C   UNL     1      48.068   6.381  14.874  0.00  0.00    +0.000 A 
BRANCH  21  24
ATOM     24  C   UNL     1      48.066   3.468  17.321  0.00  0.00    +0.000 C 
ATOM     25  N   UNL     1      47.022   2.712  17.773  0.00  0.00    +0.000 N 
ATOM     26  O   UNL     1      49.142   3.461  17.907  0.00  0.00    +0.000 OA
ATOM     27  H   UNL     1      46.069   2.869  17.480  0.00  0.00    +0.000 HD
ATOM     28  H   UNL     1      47.172   2.219  18.644  0.00  0.00    +0.000 HD
ENDBRANCH  21  24
ENDBRANCH  16  18
ENDBRANCH  15  16
ENDBRANCH   1  15
TORSDOF 6
ENDMDL
MODEL 7
REMARK VINA RESULT:    -6.794      4.141      8.532
REMARK INTER + INTRA:         -10.014
REMARK INTER:                  -9.433
REMARK INTRA:                  -0.581
REMARK UNBOUND:                -0.836
REMARK  Name = 
REMARK  7 active torsions:
REMARK  status: ('A' for Active; 'I' for Inactive)
REMARK    1  A    between atoms: C_1  and  N_2
REMARK    2  A    between atoms: N_5  and  C_6
REMARK    3  A    between atoms: C_10  and  C_11
REMARK    4  A    between atoms: C_11  and  C_12
REMARK    5  A    between atoms: C_12  and  N_13
REMARK    6  A    between atoms: N_13  and  C_14
REMARK    7  A    between atoms: C_17  and  C_18
REMARK                            x       y       z     vdW  Elec       q    Type
REMARK                         _______ _______ _______ _____ _____    ______ ____
ROOT
ATOM      1  C   UNL     1      45.571   6.022  13.103  0.00  0.00    +0.000 C 
ENDROOT
BRANCH   1   6
ATOM      2  C   UNL     1      44.789   3.419  10.424  0.00  0.00    +0.000 A 
ATOM      3  C   UNL     1      43.725   2.787  11.065  0.00  0.00    +0.000 A 
ATOM      4  N   UNL     1      43.226   3.121  12.280  0.00  0.00    +0.000 NA
ATOM      5  C   UNL     1      43.824   4.151  12.911  0.00  0.00    +0.000 A 
ATOM      6  C   UNL     1      44.891   4.874  12.395  0.00  0.00    +0.000 A 
ATOM      7  C   UNL     1      45.363   4.483  11.134  0.00  0.00    +0.000 A 
BRANCH   2  12
ATOM      8  C   UNL     1      47.768   1.980   5.914  0.00  0.00    +0.000 C 
ATOM      9  N   UNL     1      46.570   2.240   6.709  0.00  0.00    +0.000 NA
ATOM     10  C   UNL     1      46.512   1.328   7.875  0.00  0.00    +0.000 C 
ATOM     11  C   UNL     1      45.297   1.605   8.796  0.00  0.00    +0.000 C 
ATOM     12  N   UNL     1      45.331   3.015   9.217  0.00  0.00    +0.000 N 
ATOM     13  C   UNL     1      45.340   3.954   8.081  0.00  0.00    +0.000 C 
ATOM     14  C   UNL     1      46.558   3.645   7.180  0.00  0.00    +0.000 C 
ENDBRANCH   2  12
ENDBRANCH   1   6
BRANCH   1  15
ATOM     15  C   UNL     1      46.958   5.699  13.661  0.00  0.00    +0.000 C 
BRANCH  15  16
ATOM     16  N   UNL     1      46.947   4.486  14.469  0.00  0.00    +0.000 N 
ATOM     17  H   UNL     1      46.094   3.935  14.417  0.00  0.00    +0.000 HD
BRANCH  16  18
ATOM     18  C   UNL     1      47.482   4.536  15.761  0.00  0.00    +0.000 A 
ATOM     19  C   UNL     1      48.197   5.634  16.262  0.00  0.00    +0.000 A 
ATOM     20  C   UNL     1      48.800   5.597  17.523  0.00  0.00    +0.000 A 
ATOM     21  C   UNL     1      48.718   4.445  18.306  0.00  0.00    +0.000 A 
ATOM     22  C   UNL     1      48.034   3.330  17.814  0.00  0.00    +0.000 A 
ATOM     23  C   UNL     1      47.428   3.381  16.551  0.00  0.00    +0.000 A 
BRANCH  21  24
ATOM     24  C   UNL     1      49.408   4.439  19.622  0.00  0.00    +0.000 C 
ATOM     25  N   UNL     1      48.671   4.094  20.719  0.00  0.00    +0.000 N 
ATOM     26  O   UNL     1      50.585   4.761  19.735  0.00  0.00    +0.000 OA
ATOM     27  H   UNL     1      47.662   4.063  20.710  0.00  0.00    +0.000 HD
ATOM     28  H   UNL     1      49.132   4.193  21.615  0.00  0.00    +0.000 HD
ENDBRANCH  21  24
ENDBRANCH  16  18
ENDBRANCH  15  16
ENDBRANCH   1  15
TORSDOF 6
ENDMDL
MODEL 8
REMARK VINA RESULT:    -6.444      2.791      7.636
REMARK INTER + INTRA:          -9.540
REMARK INTER:                  -8.725
REMARK INTRA:                  -0.815
REMARK UNBOUND:                -0.836
REMARK  Name = 
REMARK  7 active torsions:
REMARK  status: ('A' for Active; 'I' for Inactive)
REMARK    1  A    between atoms: C_1  and  N_2
REMARK    2  A    between atoms: N_5  and  C_6
REMARK    3  A    between atoms: C_10  and  C_11
REMARK    4  A    between atoms: C_11  and  C_12
REMARK    5  A    between atoms: C_12  and  N_13
REMARK    6  A    between atoms: N_13  and  C_14
REMARK    7  A    between atoms: C_17  and  C_18
REMARK                            x       y       z     vdW  Elec       q    Type
REMARK                         _______ _______ _______ _____ _____    ______ ____
ROOT
ATOM      1  C   UNL     1      46.100   5.036  13.883  0.00  0.00    +0.000 C 
ENDROOT
BRANCH   1   6
ATOM      2  C   UNL     1      44.760   3.858  10.510  0.00  0.00    +0.000 A 
ATOM      3  C   UNL     1      43.399   4.013  10.771  0.00  0.00    +0.000 A 
ATOM      4  N   UNL     1      42.866   4.468  11.931  0.00  0.00    +0.000 NA
ATOM      5  C   UNL     1      43.738   4.789  12.907  0.00  0.00    +0.000 A 
ATOM      6  C   UNL     1      45.119   4.688  12.789  0.00  0.00    +0.000 A 
ATOM      7  C   UNL     1      45.611   4.212  11.566  0.00  0.00    +0.000 A 
BRANCH   2  12
ATOM      8  C   UNL     1      47.657   1.791   6.195  0.00  0.00    +0.000 C 
ATOM      9  N   UNL     1      46.481   2.255   6.928  0.00  0.00    +0.000 NA
ATOM     10  C   UNL     1      46.257   1.420   8.131  0.00  0.00    +0.000 C 
ATOM     11  C   UNL     1      45.063   1.910   8.989  0.00  0.00    +0.000 C 
ATOM     12  N   UNL     1      45.279   3.321   9.346  0.00  0.00    +0.000 N 
ATOM     13  C   UNL     1      45.458   4.190   8.169  0.00  0.00    +0.000 C 
ATOM     14  C   UNL     1      46.650   3.670   7.333  0.00  0.00    +0.000 C 
ENDBRANCH   2  12
ENDBRANCH   1   6
BRANCH   1  15
ATOM     15  C   UNL     1      47.318   5.838  13.419  0.00  0.00    +0.000 C 
BRANCH  15  16
ATOM     16  N   UNL     1      47.321   7.185  13.973  0.00  0.00    +0.000 N 
ATOM     17  H   UNL     1      46.973   7.267  14.926  0.00  0.00    +0.000 HD
BRANCH  16  18
ATOM     18  C   UNL     1      46.917   8.248  13.156  0.00  0.00    +0.000 A 
ATOM     19  C   UNL     1      47.787   9.250  12.703  0.00  0.00    +0.000 A 
ATOM     20  C   UNL     1      47.318  10.347  11.973  0.00  0.00    +0.000 A 
ATOM     21  C   UNL     1      45.956  10.476  11.699  0.00  0.00    +0.000 A 
ATOM     22  C   UNL     1      45.068   9.503  12.167  0.00  0.00    +0.000 A 
ATOM     23  C   UNL     1      45.551   8.404  12.892  0.00  0.00    +0.000 A 
BRANCH  21  24
ATOM     24  C   UNL     1      45.499  11.679  10.955  0.00  0.00    +0.000 C 
ATOM     25  N   UNL     1      46.459  12.498  10.430  0.00  0.00    +0.000 N 
ATOM     26  O   UNL     1      44.311  11.952  10.837  0.00  0.00    +0.000 OA
ATOM     27  H   UNL     1      47.428  12.448  10.708  0.00  0.00    +0.000 HD
ATOM     28  H   UNL     1      46.131  13.360  10.015  0.00  0.00    +0.000 HD
ENDBRANCH  21  24
ENDBRANCH  16  18
ENDBRANCH  15  16
ENDBRANCH   1  15
TORSDOF 6
ENDMDL
MODEL 9
REMARK VINA RESULT:    -6.291      3.079      7.461
REMARK INTER + INTRA:          -9.334
REMARK INTER:                  -8.548
REMARK INTRA:                  -0.786
REMARK UNBOUND:                -0.836
REMARK  Name = 
REMARK  7 active torsions:
REMARK  status: ('A' for Active; 'I' for Inactive)
REMARK    1  A    between atoms: C_1  and  N_2
REMARK    2  A    between atoms: N_5  and  C_6
REMARK    3  A    between atoms: C_10  and  C_11
REMARK    4  A    between atoms: C_11  and  C_12
REMARK    5  A    between atoms: C_12  and  N_13
REMARK    6  A    between atoms: N_13  and  C_14
REMARK    7  A    between atoms: C_17  and  C_18
REMARK                            x       y       z     vdW  Elec       q    Type
REMARK                         _______ _______ _______ _____ _____    ______ ____
ROOT
ATOM      1  C   UNL     1      44.808   6.413  12.798  0.00  0.00    +0.000 C 
ENDROOT
BRANCH   1   6
ATOM      2  C   UNL     1      44.691   3.427  10.425  0.00  0.00    +0.000 A 
ATOM      3  C   UNL     1      43.849   2.608  11.177  0.00  0.00    +0.000 A 
ATOM      4  N   UNL     1      43.308   2.925  12.378  0.00  0.00    +0.000 NA
ATOM      5  C   UNL     1      43.622   4.138  12.876  0.00  0.00    +0.000 A 
ATOM      6  C   UNL     1      44.445   5.058  12.239  0.00  0.00    +0.000 A 
ATOM      7  C   UNL     1      44.975   4.673  11.000  0.00  0.00    +0.000 A 
BRANCH   2  12
ATOM      8  C   UNL     1      47.895   2.088   6.041  0.00  0.00    +0.000 C 
ATOM      9  N   UNL     1      46.659   2.342   6.777  0.00  0.00    +0.000 NA
ATOM     10  C   UNL     1      46.523   1.393   7.906  0.00  0.00    +0.000 C 
ATOM     11  C   UNL     1      45.262   1.659   8.767  0.00  0.00    +0.000 C 
ATOM     12  N   UNL     1      45.293   3.053   9.237  0.00  0.00    +0.000 N 
ATOM     13  C   UNL     1      45.379   4.029   8.136  0.00  0.00    +0.000 C 
ATOM     14  C   UNL     1      46.641   3.730   7.294  0.00  0.00    +0.000 C 
ENDBRANCH   2  12
ENDBRANCH   1   6
BRANCH   1  15
ATOM     15  C   UNL     1      44.984   7.512  11.749  0.00  0.00    +0.000 C 
BRANCH  15  16
ATOM     16  N   UNL     1      45.742   8.642  12.270  0.00  0.00    +0.000 N 
ATOM     17  H   UNL     1      45.660   9.505  11.738  0.00  0.00    +0.000 HD
BRANCH  16  18
ATOM     18  C   UNL     1      47.041   8.417  12.741  0.00  0.00    +0.000 A 
ATOM     19  C   UNL     1      47.469   8.769  14.029  0.00  0.00    +0.000 A 
ATOM     20  C   UNL     1      48.803   8.619  14.421  0.00  0.00    +0.000 A 
ATOM     21  C   UNL     1      49.748   8.130  13.518  0.00  0.00    +0.000 A 
ATOM     22  C   UNL     1      49.348   7.800  12.220  0.00  0.00    +0.000 A 
ATOM     23  C   UNL     1      48.006   7.949  11.841  0.00  0.00    +0.000 A 
BRANCH  21  24
ATOM     24  C   UNL     1      51.161   8.025  13.966  0.00  0.00    +0.000 C 
ATOM     25  N   UNL     1      52.133   8.083  13.008  0.00  0.00    +0.000 N 
ATOM     26  O   UNL     1      51.453   7.861  15.145  0.00  0.00    +0.000 OA
ATOM     27  H   UNL     1      51.935   7.971  12.024  0.00  0.00    +0.000 HD
ATOM     28  H   UNL     1      53.079   7.910  13.322  0.00  0.00    +0.000 HD
ENDBRANCH  21  24
ENDBRANCH  16  18
ENDBRANCH  15  16
ENDBRANCH   1  15
TORSDOF 6
ENDMDL
