MODEL 1
REMARK VINA RESULT:    -8.707      0.000      0.000
REMARK INTER + INTRA:         -12.927
REMARK INTER:                 -11.761
REMARK INTRA:                  -1.167
REMARK UNBOUND:                -1.167
REMARK  Name = 
REMARK  6 active torsions:
REMARK  status: ('A' for Active; 'I' for Inactive)
REMARK    1  A    between atoms: C_2  and  C_4
REMARK    2  A    between atoms: C_7  and  O_8
REMARK    3  A    between atoms: O_8  and  C_9
REMARK    4  A    between atoms: C_9  and  C_10
REMARK    5  A    between atoms: C_10  and  C_13
REMARK    6  A    between atoms: C_17  and  C_18
REMARK                            x       y       z     vdW  Elec       q    Type
REMARK                         _______ _______ _______ _____ _____    ______ ____
ROOT
ATOM      1  C   UNL     1      43.535   4.816  12.223  0.00  0.00    +0.000 C 
ATOM      2  F   UNL     1      42.801   5.900  11.830  0.00  0.00    +0.000 F 
ATOM      3  F   UNL     1      42.838   4.267  13.263  0.00  0.00    +0.000 F 
ENDROOT
BRANCH   1   4
ATOM      4  C   UNL     1      44.943   5.214  12.643  0.00  0.00    +0.000 A 
ATOM      5  C   UNL     1      45.754   4.304  13.332  0.00  0.00    +0.000 A 
ATOM      6  C   UNL     1      47.043   4.663  13.715  0.00  0.00    +0.000 A 
ATOM      7  C   UNL     1      47.545   5.925  13.390  0.00  0.00    +0.000 A 
ATOM      8  C   UNL     1      46.787   6.854  12.653  0.00  0.00    +0.000 A 
ATOM      9  C   UNL     1      45.469   6.481  12.314  0.00  0.00    +0.000 A 
BRANCH   8  10
ATOM     10  C   UNL     1      47.381   8.131  12.185  0.00  0.00    +0.000 A 
ATOM     11  C   UNL     1      46.622   9.319  12.181  0.00  0.00    +0.000 A 
ATOM     12  C   UNL     1      47.181  10.551  11.830  0.00  0.00    +0.000 A 
ATOM     13  C   UNL     1      48.523  10.628  11.475  0.00  0.00    +0.000 A 
ATOM     14  C   UNL     1      49.293   9.469  11.447  0.00  0.00    +0.000 A 
ATOM     15  C   UNL     1      48.726   8.235  11.787  0.00  0.00    +0.000 A 
ENDBRANCH   8  10
ENDBRANCH   1   4
BRANCH   1  16
ATOM     16  C   UNL     1      43.574   3.803  11.070  0.00  0.00    +0.000 C 
BRANCH  16  17
ATOM     17  O   UNL     1      43.812   4.459   9.807  0.00  0.00    +0.000 OA
BRANCH  17  21
ATOM     18  C   UNL     1      46.539   2.390   7.508  0.00  0.00    +0.000 A 
ATOM     19  C   UNL     1      45.826   1.719   8.501  0.00  0.00    +0.000 A 
ATOM     20  C   UNL     1      44.908   2.428   9.282  0.00  0.00    +0.000 A 
ATOM     21  C   UNL     1      44.737   3.783   9.036  0.00  0.00    +0.000 A 
ATOM     22  N   UNL     1      45.423   4.458   8.089  0.00  0.00    +0.000 NA
ATOM     23  C   UNL     1      46.316   3.752   7.355  0.00  0.00    +0.000 A 
BRANCH  18  25
ATOM     24  N   UNL     1      48.704   2.406   6.403  0.00  0.00    +0.000 N 
ATOM     25  C   UNL     1      47.529   1.743   6.620  0.00  0.00    +0.000 C 
ATOM     26  O   UNL     1      47.327   0.638   6.135  0.00  0.00    +0.000 OA
ATOM     27  H   UNL     1      49.415   1.892   5.896  0.00  0.00    +0.000 HD
ATOM     28  H   UNL     1      49.012   3.175   6.981  0.00  0.00    +0.000 HD
ENDBRANCH  18  25
ENDBRANCH  17  21
ENDBRANCH  16  17
ENDBRANCH   1  16
TORSDOF 6
ENDMDL
MODEL 2
REMARK VINA RESULT:    -8.575      1.654      3.557
REMARK INTER + INTRA:         -12.750
REMARK INTER:                 -11.676
REMARK INTRA:                  -1.074
REMARK UNBOUND:                -1.167
REMARK  Name = 
REMARK  6 active torsions:
REMARK  status: ('A' for Active; 'I' for Inactive)
REMARK    1  A    between atoms: C_2  and  C_4
REMARK    2  A    between atoms: C_7  and  O_8
REMARK    3  A    between atoms: O_8  and  C_9
REMARK    4  A    between atoms: C_9  and  C_10
REMARK    5  A    between atoms: C_10  and  C_13
REMARK    6  A    between atoms: C_17  and  C_18
REMARK                            x       y       z     vdW  Elec       q    Type
REMARK                         _______ _______ _______ _____ _____    ______ ____
ROOT
ATOM      1  C   UNL     1      43.741   5.291  11.979  0.00  0.00    +0.000 C 
ATOM      2  F   UNL     1      43.151   6.355  11.355  0.00  0.00    +0.000 F 
ATOM      3  F   UNL     1      42.963   5.039  13.075  0.00  0.00    +0.000 F 
ENDROOT
BRANCH   1   4
ATOM      4  C   UNL     1      45.179   5.597  12.373  0.00  0.00    +0.000 A 
ATOM      5  C   UNL     1      45.957   6.451  11.582  0.00  0.00    +0.000 A 
ATOM      6  C   UNL     1      47.272   6.736  11.940  0.00  0.00    +0.000 A 
ATOM      7  C   UNL     1      47.813   6.195  13.108  0.00  0.00    +0.000 A 
ATOM      8  C   UNL     1      47.053   5.375  13.963  0.00  0.00    +0.000 A 
ATOM      9  C   UNL     1      45.738   5.067  13.554  0.00  0.00    +0.000 A 
BRANCH   8  10
ATOM     10  C   UNL     1      47.588   4.927  15.273  0.00  0.00    +0.000 A 
ATOM     11  C   UNL     1      48.414   5.773  16.041  0.00  0.00    +0.000 A 
ATOM     12  C   UNL     1      48.859   5.412  17.316  0.00  0.00    +0.000 A 
ATOM     13  C   UNL     1      48.483   4.191  17.861  0.00  0.00    +0.000 A 
ATOM     14  C   UNL     1      47.686   3.324  17.120  0.00  0.00    +0.000 A 
ATOM     15  C   UNL     1      47.253   3.682  15.837  0.00  0.00    +0.000 A 
ENDBRANCH   8  10
ENDBRANCH   1   4
BRANCH   1  16
ATOM     16  C   UNL     1      43.677   4.074  11.044  0.00  0.00    +0.000 C 
BRANCH  16  17
ATOM     17  O   UNL     1      43.702   4.479   9.659  0.00  0.00    +0.000 OA
BRANCH  17  21
ATOM     18  C   UNL     1      46.517   2.382   7.494  0.00  0.00    +0.000 A 
ATOM     19  C   UNL     1      45.753   1.720   8.455  0.00  0.00    +0.000 A 
ATOM     20  C   UNL     1      44.805   2.438   9.191  0.00  0.00    +0.000 A 
ATOM     21  C   UNL     1      44.657   3.794   8.933  0.00  0.00    +0.000 A 
ATOM     22  N   UNL     1      45.391   4.461   8.018  0.00  0.00    +0.000 NA
ATOM     23  C   UNL     1      46.311   3.745   7.328  0.00  0.00    +0.000 A 
BRANCH  18  25
ATOM     24  N   UNL     1      48.700   2.414   6.426  0.00  0.00    +0.000 N 
ATOM     25  C   UNL     1      47.541   1.726   6.654  0.00  0.00    +0.000 C 
ATOM     26  O   UNL     1      47.382   0.592   6.221  0.00  0.00    +0.000 OA
ATOM     27  H   UNL     1      49.435   1.899   5.955  0.00  0.00    +0.000 HD
ATOM     28  H   UNL     1      48.973   3.219   6.970  0.00  0.00    +0.000 HD
ENDBRANCH  18  25
ENDBRANCH  17  21
ENDBRANCH  16  17
ENDBRANCH   1  16
TORSDOF 6
ENDMDL
MODEL 3
REMARK VINA RESULT:    -8.027      1.275      2.071
REMARK INTER + INTRA:         -12.009
REMARK INTER:                 -11.284
REMARK INTRA:                  -0.725
REMARK UNBOUND:                -1.167
REMARK  Name = 
REMARK  6 active torsions:
REMARK  status: ('A' for Active; 'I' for Inactive)
REMARK    1  A    between atoms: C_2  and  C_4
REMARK    2  A    between atoms: C_7  and  O_8
REMARK    3  A    between atoms: O_8  and  C_9
REMARK    4  A    between atoms: C_9  and  C_10
REMARK    5  A    between atoms: C_10  and  C_13
REMARK    6  A    between atoms: C_17  and  C_18
REMARK                            x       y       z     vdW  Elec       q    Type
REMARK                         _______ _______ _______ _____ _____    ______ ____
ROOT
ATOM      1  C   UNL     1      44.264   3.823  12.288  0.00  0.00    +0.000 C 
ATOM      2  F   UNL     1      43.371   3.719  13.319  0.00  0.00    +0.000 F 
ATOM      3  F   UNL     1      45.312   3.016  12.637  0.00  0.00    +0.000 F 
ENDROOT
BRANCH   1   4
ATOM      4  C   UNL     1      44.714   5.262  12.078  0.00  0.00    +0.000 A 
ATOM      5  C   UNL     1      43.782   6.243  11.719  0.00  0.00    +0.000 A 
ATOM      6  C   UNL     1      44.188   7.561  11.529  0.00  0.00    +0.000 A 
ATOM      7  C   UNL     1      45.525   7.917  11.722  0.00  0.00    +0.000 A 
ATOM      8  C   UNL     1      46.487   6.977  12.134  0.00  0.00    +0.000 A 
ATOM      9  C   UNL     1      46.057   5.641  12.279  0.00  0.00    +0.000 A 
BRANCH   8  10
ATOM     10  C   UNL     1      47.869   7.394  12.481  0.00  0.00    +0.000 A 
ATOM     11  C   UNL     1      48.442   7.030  13.716  0.00  0.00    +0.000 A 
ATOM     12  C   UNL     1      49.769   7.333  14.032  0.00  0.00    +0.000 A 
ATOM     13  C   UNL     1      50.564   8.007  13.113  0.00  0.00    +0.000 A 
ATOM     14  C   UNL     1      50.022   8.399  11.893  0.00  0.00    +0.000 A 
ATOM     15  C   UNL     1      48.687   8.106  11.585  0.00  0.00    +0.000 A 
ENDBRANCH   8  10
ENDBRANCH   1   4
BRANCH   1  16
ATOM     16  C   UNL     1      43.615   3.260  11.016  0.00  0.00    +0.000 C 
BRANCH  16  17
ATOM     17  O   UNL     1      43.907   4.089   9.871  0.00  0.00    +0.000 OA
BRANCH  17  21
ATOM     18  C   UNL     1      46.651   2.302   7.364  0.00  0.00    +0.000 A 
ATOM     19  C   UNL     1      45.992   1.533   8.324  0.00  0.00    +0.000 A 
ATOM     20  C   UNL     1      45.067   2.147   9.175  0.00  0.00    +0.000 A 
ATOM     21  C   UNL     1      44.837   3.508   9.031  0.00  0.00    +0.000 A 
ATOM     22  N   UNL     1      45.470   4.276   8.120  0.00  0.00    +0.000 NA
ATOM     23  C   UNL     1      46.370   3.661   7.316  0.00  0.00    +0.000 A 
BRANCH  18  25
ATOM     24  N   UNL     1      48.805   2.459   6.249  0.00  0.00    +0.000 N 
ATOM     25  C   UNL     1      47.641   1.761   6.409  0.00  0.00    +0.000 C 
ATOM     26  O   UNL     1      47.450   0.705   5.820  0.00  0.00    +0.000 OA
ATOM     27  H   UNL     1      49.518   2.009   5.688  0.00  0.00    +0.000 HD
ATOM     28  H   UNL     1      49.107   3.173   6.896  0.00  0.00    +0.000 HD
ENDBRANCH  18  25
ENDBRANCH  17  21
ENDBRANCH  16  17
ENDBRANCH   1  16
TORSDOF 6
ENDMDL
MODEL 4
REMARK VINA RESULT:    -7.935      1.799      2.497
REMARK INTER + INTRA:         -11.885
REMARK INTER:                 -10.533
REMARK INTRA:                  -1.352
REMARK UNBOUND:                -1.167
REMARK  Name = 
REMARK  6 active torsions:
REMARK  status: ('A' for Active; 'I' for Inactive)
REMARK    1  A    between atoms: C_2  and  C_4
REMARK    2  A    between atoms: C_7  and  O_8
REMARK    3  A    between atoms: O_8  and  C_9
REMARK    4  A    between atoms: C_9  and  C_10
REMARK    5  A    between atoms: C_10  and  C_13
REMARK    6  A    between atoms: C_17  and  C_18
REMARK                            x       y       z     vdW  Elec       q    Type
REMARK                         _______ _______ _______ _____ _____    ______ ____
ROOT
ATOM      1  C   UNL     1      43.578   4.441  12.390  0.00  0.00    +0.000 C 
ATOM      2  F   UNL     1      42.404   4.794  11.786  0.00  0.00    +0.000 F 
ATOM      3  F   UNL     1      43.253   4.197  13.695  0.00  0.00    +0.000 F 
ENDROOT
BRANCH   1   4
ATOM      4  C   UNL     1      44.623   5.540  12.271  0.00  0.00    +0.000 A 
ATOM      5  C   UNL     1      45.986   5.224  12.334  0.00  0.00    +0.000 A 
ATOM      6  C   UNL     1      46.945   6.227  12.223  0.00  0.00    +0.000 A 
ATOM      7  C   UNL     1      46.554   7.552  12.020  0.00  0.00    +0.000 A 
ATOM      8  C   UNL     1      45.199   7.911  11.898  0.00  0.00    +0.000 A 
ATOM      9  C   UNL     1      44.246   6.882  12.056  0.00  0.00    +0.000 A 
BRANCH   8  10
ATOM     10  C   UNL     1      44.800   9.294  11.534  0.00  0.00    +0.000 A 
ATOM     11  C   UNL     1      45.587  10.396  11.927  0.00  0.00    +0.000 A 
ATOM     12  C   UNL     1      45.284  11.700  11.524  0.00  0.00    +0.000 A 
ATOM     13  C   UNL     1      44.183  11.936  10.710  0.00  0.00    +0.000 A 
ATOM     14  C   UNL     1      43.374  10.872  10.323  0.00  0.00    +0.000 A 
ATOM     15  C   UNL     1      43.673   9.568  10.739  0.00  0.00    +0.000 A 
ENDBRANCH   8  10
ENDBRANCH   1   4
BRANCH   1  16
ATOM     16  C   UNL     1      44.083   3.135  11.758  0.00  0.00    +0.000 C 
BRANCH  16  17
ATOM     17  O   UNL     1      43.489   2.919  10.461  0.00  0.00    +0.000 OA
BRANCH  17  21
ATOM     18  C   UNL     1      46.350   2.687   7.499  0.00  0.00    +0.000 A 
ATOM     19  C   UNL     1      45.825   3.929   7.854  0.00  0.00    +0.000 A 
ATOM     20  C   UNL     1      44.850   4.001   8.854  0.00  0.00    +0.000 A 
ATOM     21  C   UNL     1      44.440   2.823   9.463  0.00  0.00    +0.000 A 
ATOM     22  N   UNL     1      44.923   1.607   9.131  0.00  0.00    +0.000 NA
ATOM     23  C   UNL     1      45.856   1.564   8.150  0.00  0.00    +0.000 A 
BRANCH  18  25
ATOM     24  N   UNL     1      46.993   2.585   5.158  0.00  0.00    +0.000 N 
ATOM     25  C   UNL     1      47.386   2.491   6.463  0.00  0.00    +0.000 C 
ATOM     26  O   UNL     1      48.558   2.302   6.759  0.00  0.00    +0.000 OA
ATOM     27  H   UNL     1      47.736   2.573   4.470  0.00  0.00    +0.000 HD
ATOM     28  H   UNL     1      46.112   2.993   4.881  0.00  0.00    +0.000 HD
ENDBRANCH  18  25
ENDBRANCH  17  21
ENDBRANCH  16  17
ENDBRANCH   1  16
TORSDOF 6
ENDMDL
MODEL 5
REMARK VINA RESULT:    -7.713      3.735      7.588
REMARK INTER + INTRA:         -11.585
REMARK INTER:                 -10.670
REMARK INTRA:                  -0.915
REMARK UNBOUND:                -1.167
REMARK  Name = 
REMARK  6 active torsions:
REMARK  status: ('A' for Active; 'I' for Inactive)
REMARK    1  A    between atoms: C_2  and  C_4
REMARK    2  A    between atoms: C_7  and  O_8
REMARK    3  A    between atoms: O_8  and  C_9
REMARK    4  A    between atoms: C_9  and  C_10
REMARK    5  A    between atoms: C_10  and  C_13
REMARK    6  A    between atoms: C_17  and  C_18
REMARK                            x       y       z     vdW  Elec       q    Type
REMARK                         _______ _______ _______ _____ _____    ______ ____
ROOT
ATOM      1  C   UNL     1      44.832   6.342  11.340  0.00  0.00    +0.000 C 
ATOM      2  F   UNL     1      43.641   7.010  11.396  0.00  0.00    +0.000 F 
ATOM      3  F   UNL     1      45.609   7.062  10.475  0.00  0.00    +0.000 F 
ENDROOT
BRANCH   1   4
ATOM      4  C   UNL     1      44.650   4.908  10.865  0.00  0.00    +0.000 A 
ATOM      5  C   UNL     1      43.699   4.081  11.475  0.00  0.00    +0.000 A 
ATOM      6  C   UNL     1      43.526   2.770  11.042  0.00  0.00    +0.000 A 
ATOM      7  C   UNL     1      44.284   2.279   9.976  0.00  0.00    +0.000 A 
ATOM      8  C   UNL     1      45.215   3.087   9.298  0.00  0.00    +0.000 A 
ATOM      9  C   UNL     1      45.400   4.399   9.784  0.00  0.00    +0.000 A 
BRANCH   8  10
ATOM     10  C   UNL     1      45.905   2.604   8.076  0.00  0.00    +0.000 A 
ATOM     11  C   UNL     1      46.076   3.452   6.963  0.00  0.00    +0.000 A 
ATOM     12  C   UNL     1      46.798   3.054   5.834  0.00  0.00    +0.000 A 
ATOM     13  C   UNL     1      47.375   1.790   5.792  0.00  0.00    +0.000 A 
ATOM     14  C   UNL     1      47.206   0.921   6.865  0.00  0.00    +0.000 A 
ATOM     15  C   UNL     1      46.471   1.319   7.989  0.00  0.00    +0.000 A 
ENDBRANCH   8  10
ENDBRANCH   1   4
BRANCH   1  16
ATOM     16  C   UNL     1      45.484   6.380  12.730  0.00  0.00    +0.000 C 
BRANCH  16  17
ATOM     17  O   UNL     1      46.747   5.683  12.733  0.00  0.00    +0.000 OA
BRANCH  17  21
ATOM     18  C   UNL     1      48.114   5.012  16.566  0.00  0.00    +0.000 A 
ATOM     19  C   UNL     1      48.589   6.109  15.847  0.00  0.00    +0.000 A 
ATOM     20  C   UNL     1      48.127   6.327  14.545  0.00  0.00    +0.000 A 
ATOM     21  C   UNL     1      47.203   5.438  14.014  0.00  0.00    +0.000 A 
ATOM     22  N   UNL     1      46.737   4.363  14.683  0.00  0.00    +0.000 NA
ATOM     23  C   UNL     1      47.210   4.167  15.937  0.00  0.00    +0.000 A 
BRANCH  18  25
ATOM     24  N   UNL     1      47.556   4.696  18.910  0.00  0.00    +0.000 N 
ATOM     25  C   UNL     1      48.526   4.687  17.948  0.00  0.00    +0.000 C 
ATOM     26  O   UNL     1      49.678   4.374  18.214  0.00  0.00    +0.000 OA
ATOM     27  H   UNL     1      47.832   4.351  19.822  0.00  0.00    +0.000 HD
ATOM     28  H   UNL     1      46.570   4.689  18.692  0.00  0.00    +0.000 HD
ENDBRANCH  18  25
ENDBRANCH  17  21
ENDBRANCH  16  17
ENDBRANCH   1  16
TORSDOF 6
ENDMDL
MODEL 6
REMARK VINA RESULT:    -7.496      3.765      7.561
REMARK INTER + INTRA:         -11.292
REMARK INTER:                 -10.191
REMARK INTRA:                  -1.101
REMARK UNBOUND:                -1.167
REMARK  Name = 
REMARK  6 active torsions:
REMARK  status: ('A' for Active; 'I' for Inactive)
REMARK    1  A    between atoms: C_2  and  C_4
REMARK    2  A    between atoms: C_7  and  O_8
REMARK    3  A    between atoms: O_8  and  C_9
REMARK    4  A    between atoms: C_9  and  C_10
REMARK    5  A    between atoms: C_10  and  C_13
REMARK    6  A    between atoms: C_17  and  C_18
REMARK                            x       y       z     vdW  Elec       q    Type
REMARK                         _______ _______ _______ _____ _____    ______ ____
ROOT
ATOM      1  C   UNL     1      44.011   3.611  11.966  0.00  0.00    +0.000 C 
ATOM      2  F   UNL     1      43.945   2.245  11.997  0.00  0.00    +0.000 F 
ATOM      3  F   UNL     1      42.710   4.034  11.967  0.00  0.00    +0.000 F 
ENDROOT
BRANCH   1   4
ATOM      4  C   UNL     1      44.759   4.109  10.738  0.00  0.00    +0.000 A 
ATOM      5  C   UNL     1      45.167   5.446  10.659  0.00  0.00    +0.000 A 
ATOM      6  C   UNL     1      45.854   5.906   9.540  0.00  0.00    +0.000 A 
ATOM      7  C   UNL     1      46.166   5.028   8.499  0.00  0.00    +0.000 A 
ATOM      8  C   UNL     1      45.823   3.664   8.557  0.00  0.00    +0.000 A 
ATOM      9  C   UNL     1      45.090   3.235   9.683  0.00  0.00    +0.000 A 
BRANCH   8  10
ATOM     10  C   UNL     1      46.288   2.711   7.518  0.00  0.00    +0.000 A 
ATOM     11  C   UNL     1      46.525   3.145   6.198  0.00  0.00    +0.000 A 
ATOM     12  C   UNL     1      47.046   2.291   5.222  0.00  0.00    +0.000 A 
ATOM     13  C   UNL     1      47.349   0.973   5.545  0.00  0.00    +0.000 A 
ATOM     14  C   UNL     1      47.106   0.509   6.834  0.00  0.00    +0.000 A 
ATOM     15  C   UNL     1      46.572   1.364   7.805  0.00  0.00    +0.000 A 
ENDBRANCH   8  10
ENDBRANCH   1   4
BRANCH   1  16
ATOM     16  C   UNL     1      44.686   4.100  13.255  0.00  0.00    +0.000 C 
BRANCH  16  17
ATOM     17  O   UNL     1      46.002   3.527  13.405  0.00  0.00    +0.000 OA
BRANCH  17  21
ATOM     18  C   UNL     1      48.369   5.807  15.895  0.00  0.00    +0.000 A 
ATOM     19  C   UNL     1      48.098   6.255  14.602  0.00  0.00    +0.000 A 
ATOM     20  C   UNL     1      47.300   5.474  13.760  0.00  0.00    +0.000 A 
ATOM     21  C   UNL     1      46.802   4.273  14.247  0.00  0.00    +0.000 A 
ATOM     22  N   UNL     1      47.059   3.811  15.489  0.00  0.00    +0.000 NA
ATOM     23  C   UNL     1      47.845   4.581  16.280  0.00  0.00    +0.000 A 
BRANCH  18  25
ATOM     24  N   UNL     1      49.067   7.911  16.892  0.00  0.00    +0.000 N 
ATOM     25  C   UNL     1      49.193   6.550  16.872  0.00  0.00    +0.000 C 
ATOM     26  O   UNL     1      49.922   5.971  17.666  0.00  0.00    +0.000 OA
ATOM     27  H   UNL     1      49.543   8.389  17.648  0.00  0.00    +0.000 HD
ATOM     28  H   UNL     1      48.300   8.395  16.448  0.00  0.00    +0.000 HD
ENDBRANCH  18  25
ENDBRANCH  17  21
ENDBRANCH  16  17
ENDBRANCH   1  16
TORSDOF 6
ENDMDL
MODEL 7
REMARK VINA RESULT:    -7.436      1.371      2.465
REMARK INTER + INTRA:         -11.211
REMARK INTER:                 -10.228
REMARK INTRA:                  -0.983
REMARK UNBOUND:                -1.167
REMARK  Name = 
REMARK  6 active torsions:
REMARK  status: ('A' for Active; 'I' for Inactive)
REMARK    1  A    between atoms: C_2  and  C_4
REMARK    2  A    between atoms: C_7  and  O_8
REMARK    3  A    between atoms: O_8  and  C_9
REMARK    4  A    between atoms: C_9  and  C_10
REMARK    5  A    between atoms: C_10  and  C_13
REMARK    6  A    between atoms: C_17  and  C_18
REMARK                            x       y       z     vdW  Elec       q    Type
REMARK                         _______ _______ _______ _____ _____    ______ ____
ROOT
ATOM      1  C   UNL     1      45.115   5.658  11.871  0.00  0.00    +0.000 C 
ATOM      2  F   UNL     1      44.229   5.392  12.878  0.00  0.00    +0.000 F 
ATOM      3  F   UNL     1      46.058   4.670  11.951  0.00  0.00    +0.000 F 
ENDROOT
BRANCH   1   4
ATOM      4  C   UNL     1      45.739   7.037  12.022  0.00  0.00    +0.000 A 
ATOM      5  C   UNL     1      44.990   8.092  12.559  0.00  0.00    +0.000 A 
ATOM      6  C   UNL     1      45.558   9.355  12.702  0.00  0.00    +0.000 A 
ATOM      7  C   UNL     1      46.888   9.571  12.336  0.00  0.00    +0.000 A 
ATOM      8  C   UNL     1      47.696   8.530  11.842  0.00  0.00    +0.000 A 
ATOM      9  C   UNL     1      47.084   7.271  11.668  0.00  0.00    +0.000 A 
BRANCH   8  10
ATOM     10  C   UNL     1      49.146   8.733  11.598  0.00  0.00    +0.000 A 
ATOM     11  C   UNL     1      49.991   7.637  11.325  0.00  0.00    +0.000 A 
ATOM     12  C   UNL     1      51.340   7.807  11.005  0.00  0.00    +0.000 A 
ATOM     13  C   UNL     1      51.883   9.085  10.944  0.00  0.00    +0.000 A 
ATOM     14  C   UNL     1      51.081  10.186  11.229  0.00  0.00    +0.000 A 
ATOM     15  C   UNL     1      49.732  10.011  11.563  0.00  0.00    +0.000 A 
ENDBRANCH   8  10
ENDBRANCH   1   4
BRANCH   1  16
ATOM     16  C   UNL     1      44.385   5.531  10.526  0.00  0.00    +0.000 C 
BRANCH  16  17
ATOM     17  O   UNL     1      44.056   4.156  10.239  0.00  0.00    +0.000 OA
BRANCH  17  21
ATOM     18  C   UNL     1      46.592   2.435   7.480  0.00  0.00    +0.000 A 
ATOM     19  C   UNL     1      45.940   1.629   8.413  0.00  0.00    +0.000 A 
ATOM     20  C   UNL     1      45.087   2.219   9.351  0.00  0.00    +0.000 A 
ATOM     21  C   UNL     1      44.917   3.596   9.316  0.00  0.00    +0.000 A 
ATOM     22  N   UNL     1      45.545   4.400   8.431  0.00  0.00    +0.000 NA
ATOM     23  C   UNL     1      46.376   3.805   7.542  0.00  0.00    +0.000 A 
BRANCH  18  25
ATOM     24  N   UNL     1      48.634   2.652   6.180  0.00  0.00    +0.000 N 
ATOM     25  C   UNL     1      47.509   1.921   6.441  0.00  0.00    +0.000 C 
ATOM     26  O   UNL     1      47.298   0.860   5.869  0.00  0.00    +0.000 OA
ATOM     27  H   UNL     1      49.308   2.222   5.558  0.00  0.00    +0.000 HD
ATOM     28  H   UNL     1      48.971   3.375   6.800  0.00  0.00    +0.000 HD
ENDBRANCH  18  25
ENDBRANCH  17  21
ENDBRANCH  16  17
ENDBRANCH   1  16
TORSDOF 6
ENDMDL
MODEL 8
REMARK VINA RESULT:    -7.386      3.994      7.162
REMARK INTER + INTRA:         -11.144
REMARK INTER:                 -10.050
REMARK INTRA:                  -1.093
REMARK UNBOUND:                -1.167
REMARK  Name = 
REMARK  6 active torsions:
REMARK  status: ('A' for Active; 'I' for Inactive)
REMARK    1  A    between atoms: C_2  and  C_4
REMARK    2  A    between atoms: C_7  and  O_8
REMARK    3  A    between atoms: O_8  and  C_9
REMARK    4  A    between atoms: C_9  and  C_10
REMARK    5  A    between atoms: C_10  and  C_13
REMARK    6  A    between atoms: C_17  and  C_18
REMARK                            x       y       z     vdW  Elec       q    Type
REMARK                         _______ _______ _______ _____ _____    ______ ____
ROOT
ATOM      1  C   UNL     1      45.963   7.800  12.114  0.00  0.00    +0.000 C 
ATOM      2  F   UNL     1      45.418   8.282  13.271  0.00  0.00    +0.000 F 
ATOM      3  F   UNL     1      46.040   8.877  11.275  0.00  0.00    +0.000 F 
ENDROOT
BRANCH   1   4
ATOM      4  C   UNL     1      45.116   6.686  11.515  0.00  0.00    +0.000 A 
ATOM      5  C   UNL     1      43.744   6.624  11.788  0.00  0.00    +0.000 A 
ATOM      6  C   UNL     1      42.965   5.609  11.240  0.00  0.00    +0.000 A 
ATOM      7  C   UNL     1      43.543   4.661  10.392  0.00  0.00    +0.000 A 
ATOM      8  C   UNL     1      44.906   4.714  10.048  0.00  0.00    +0.000 A 
ATOM      9  C   UNL     1      45.681   5.727  10.650  0.00  0.00    +0.000 A 
BRANCH   8  10
ATOM     10  C   UNL     1      45.478   3.794   9.031  0.00  0.00    +0.000 A 
ATOM     11  C   UNL     1      46.144   4.300   7.897  0.00  0.00    +0.000 A 
ATOM     12  C   UNL     1      46.768   3.460   6.971  0.00  0.00    +0.000 A 
ATOM     13  C   UNL     1      46.744   2.083   7.159  0.00  0.00    +0.000 A 
ATOM     14  C   UNL     1      46.075   1.551   8.257  0.00  0.00    +0.000 A 
ATOM     15  C   UNL     1      45.440   2.396   9.176  0.00  0.00    +0.000 A 
ENDBRANCH   8  10
ENDBRANCH   1   4
BRANCH   1  16
ATOM     16  C   UNL     1      47.387   7.307  12.409  0.00  0.00    +0.000 C 
BRANCH  16  17
ATOM     17  O   UNL     1      47.770   7.602  13.769  0.00  0.00    +0.000 OA
BRANCH  17  21
ATOM     18  C   UNL     1      47.904   4.179  16.065  0.00  0.00    +0.000 A 
ATOM     19  C   UNL     1      47.180   4.181  14.873  0.00  0.00    +0.000 A 
ATOM     20  C   UNL     1      47.133   5.347  14.102  0.00  0.00    +0.000 A 
ATOM     21  C   UNL     1      47.816   6.467  14.555  0.00  0.00    +0.000 A 
ATOM     22  N   UNL     1      48.514   6.495  15.710  0.00  0.00    +0.000 NA
ATOM     23  C   UNL     1      48.533   5.357  16.444  0.00  0.00    +0.000 A 
BRANCH  18  25
ATOM     24  N   UNL     1      47.223   2.966  18.058  0.00  0.00    +0.000 N 
ATOM     25  C   UNL     1      48.030   3.005  16.955  0.00  0.00    +0.000 C 
ATOM     26  O   UNL     1      48.788   2.082  16.692  0.00  0.00    +0.000 OA
ATOM     27  H   UNL     1      47.235   2.100  18.584  0.00  0.00    +0.000 HD
ATOM     28  H   UNL     1      46.416   3.563  18.166  0.00  0.00    +0.000 HD
ENDBRANCH  18  25
ENDBRANCH  17  21
ENDBRANCH  16  17
ENDBRANCH   1  16
TORSDOF 6
ENDMDL
MODEL 9
REMARK VINA RESULT:    -7.232      4.455      7.723
REMARK INTER + INTRA:         -10.935
REMARK INTER:                  -9.766
REMARK INTRA:                  -1.169
REMARK UNBOUND:                -1.167
REMARK  Name = 
REMARK  6 active torsions:
REMARK  status: ('A' for Active; 'I' for Inactive)
REMARK    1  A    between atoms: C_2  and  C_4
REMARK    2  A    between atoms: C_7  and  O_8
REMARK    3  A    between atoms: O_8  and  C_9
REMARK    4  A    between atoms: C_9  and  C_10
REMARK    5  A    between atoms: C_10  and  C_13
REMARK    6  A    between atoms: C_17  and  C_18
REMARK                            x       y       z     vdW  Elec       q    Type
REMARK                         _______ _______ _______ _____ _____    ______ ____
ROOT
ATOM      1  C   UNL     1      48.902   8.280  12.246  0.00  0.00    +0.000 C 
ATOM      2  F   UNL     1      49.048   9.573  12.665  0.00  0.00    +0.000 F 
ATOM      3  F   UNL     1      49.608   8.199  11.077  0.00  0.00    +0.000 F 
ENDROOT
BRANCH   1   4
ATOM      4  C   UNL     1      47.439   7.918  12.040  0.00  0.00    +0.000 A 
ATOM      5  C   UNL     1      46.435   8.836  12.372  0.00  0.00    +0.000 A 
ATOM      6  C   UNL     1      45.095   8.510  12.182  0.00  0.00    +0.000 A 
ATOM      7  C   UNL     1      44.745   7.275  11.633  0.00  0.00    +0.000 A 
ATOM      8  C   UNL     1      45.720   6.341  11.236  0.00  0.00    +0.000 A 
ATOM      9  C   UNL     1      47.068   6.679  11.478  0.00  0.00    +0.000 A 
BRANCH   8  10
ATOM     10  C   UNL     1      45.344   5.097  10.518  0.00  0.00    +0.000 A 
ATOM     11  C   UNL     1      44.712   4.036  11.198  0.00  0.00    +0.000 A 
ATOM     12  C   UNL     1      44.268   2.891  10.531  0.00  0.00    +0.000 A 
ATOM     13  C   UNL     1      44.443   2.778   9.157  0.00  0.00    +0.000 A 
ATOM     14  C   UNL     1      45.082   3.798   8.460  0.00  0.00    +0.000 A 
ATOM     15  C   UNL     1      45.538   4.938   9.134  0.00  0.00    +0.000 A 
ENDBRANCH   8  10
ENDBRANCH   1   4
BRANCH   1  16
ATOM     16  C   UNL     1      49.556   7.351  13.279  0.00  0.00    +0.000 C 
BRANCH  16  17
ATOM     17  O   UNL     1      49.238   7.761  14.625  0.00  0.00    +0.000 OA
BRANCH  17  21
ATOM     18  C   UNL     1      48.049   4.626  17.025  0.00  0.00    +0.000 A 
ATOM     19  C   UNL     1      48.867   5.625  17.553  0.00  0.00    +0.000 A 
ATOM     20  C   UNL     1      49.272   6.682  16.732  0.00  0.00    +0.000 A 
ATOM     21  C   UNL     1      48.840   6.698  15.413  0.00  0.00    +0.000 A 
ATOM     22  N   UNL     1      48.058   5.738  14.875  0.00  0.00    +0.000 NA
ATOM     23  C   UNL     1      47.690   4.719  15.687  0.00  0.00    +0.000 A 
BRANCH  18  25
ATOM     24  N   UNL     1      48.225   3.148  18.947  0.00  0.00    +0.000 N 
ATOM     25  C   UNL     1      47.555   3.467  17.799  0.00  0.00    +0.000 C 
ATOM     26  O   UNL     1      46.557   2.847  17.456  0.00  0.00    +0.000 OA
ATOM     27  H   UNL     1      47.798   2.434  19.525  0.00  0.00    +0.000 HD
ATOM     28  H   UNL     1      48.873   3.780  19.395  0.00  0.00    +0.000 HD
ENDBRANCH  18  25
ENDBRANCH  17  21
ENDBRANCH  16  17
ENDBRANCH   1  16
TORSDOF 6
ENDMDL
