MODEL 1
REMARK VINA RESULT:    -7.488      0.000      0.000
REMARK INTER + INTRA:         -11.988
REMARK INTER:                 -10.990
REMARK INTRA:                  -0.998
REMARK UNBOUND:                -0.998
REMARK  Name = 
REMARK  9 active torsions:
REMARK  status: ('A' for Active; 'I' for Inactive)
REMARK    1  A    between atoms: C_1  and  C_2
REMARK    2  A    between atoms: C_2  and  N_3
REMARK    3  A    between atoms: C_2  and  C_20
REMARK    4  A    between atoms: N_3  and  C_4
REMARK    5  A    between atoms: C_4  and  C_5
REMARK    6  A    between atoms: C_8  and  C_9
REMARK    7  A    between atoms: C_9  and  C_10
REMARK    8  A    between atoms: C_10  and  N_11
REMARK    9  A    between atoms: N_11  and  C_12
REMARK                            x       y       z     vdW  Elec       q    Type
REMARK                         _______ _______ _______ _____ _____    ______ ____
ROOT
ATOM      1  C   UNL     1      48.357   6.487  15.097  0.00  0.00    +0.000 C 
ENDROOT
BRANCH   1   2
ATOM      2  C   UNL     1      47.461   5.983  13.996  0.00  0.00    +0.000 A 
ATOM      3  C   UNL     1      46.677   4.835  14.129  0.00  0.00    +0.000 A 
ATOM      4  C   UNL     1      45.849   4.435  13.080  0.00  0.00    +0.000 A 
ATOM      5  C   UNL     1      45.811   5.204  11.920  0.00  0.00    +0.000 A 
ATOM      6  N   UNL     1      46.514   6.351  11.794  0.00  0.00    +0.000 NA
ATOM      7  C   UNL     1      47.339   6.693  12.807  0.00  0.00    +0.000 A 
BRANCH   5   8
ATOM      8  C   UNL     1      44.896   4.804  10.786  0.00  0.00    +0.000 C 
BRANCH   8   9
ATOM      9  C   UNL     1      45.509   4.931   9.383  0.00  0.00    +0.000 C 
BRANCH   9  10
ATOM     10  N   UNL     1      44.687   4.311   8.337  0.00  0.00    +0.000 NA
ATOM     11  H   UNL     1      44.343   5.012   7.685  0.00  0.00    +0.000 HD
BRANCH  10  12
ATOM     12  C   UNL     1      45.381   3.230   7.627  0.00  0.00    +0.000 C 
ATOM     13  C   UNL     1      45.670   2.024   8.530  0.00  0.00    +0.000 C 
ATOM     14  C   UNL     1      46.544   1.009   7.815  0.00  0.00    +0.000 C 
ATOM     15  O   UNL     1      47.749   1.611   7.349  0.00  0.00    +0.000 OA
ATOM     16  C   UNL     1      47.495   2.649   6.403  0.00  0.00    +0.000 C 
ATOM     17  C   UNL     1      46.690   3.774   7.042  0.00  0.00    +0.000 C 
ENDBRANCH  10  12
ENDBRANCH   9  10
ENDBRANCH   8   9
ENDBRANCH   5   8
ENDBRANCH   1   2
BRANCH   1  18
ATOM     18  N   UNL     1      49.020   5.403  15.817  0.00  0.00    +0.000 NA
ATOM     19  H   UNL     1      48.640   4.513  15.498  0.00  0.00    +0.000 HD
BRANCH  18  21
ATOM     20  C   UNL     1      48.614   6.906  17.779  0.00  0.00    +0.000 C 
ATOM     21  C   UNL     1      48.843   5.476  17.279  0.00  0.00    +0.000 C 
BRANCH  21  22
ATOM     22  C   UNL     1      50.105   4.884  17.882  0.00  0.00    +0.000 A 
ATOM     23  C   UNL     1      50.980   5.595  18.692  0.00  0.00    +0.000 A 
ATOM     24  S   UNL     1      52.372   4.713  19.127  0.00  0.00    +0.000 S 
ATOM     25  C   UNL     1      51.850   3.348  18.255  0.00  0.00    +0.000 A 
ATOM     26  N   UNL     1      52.625   2.234  18.162  0.00  0.00    +0.000 NA
ATOM     27  C   UNL     1      52.100   1.279  17.468  0.00  0.00    +0.000 A 
ATOM     28  N   UNL     1      50.860   1.325  16.885  0.00  0.00    +0.000 N 
ATOM     29  C   UNL     1      50.020   2.410  16.991  0.00  0.00    +0.000 A 
ATOM     30  O   UNL     1      48.877   2.382  16.545  0.00  0.00    +0.000 OA
ATOM     31  C   UNL     1      50.599   3.541  17.693  0.00  0.00    +0.000 A 
ATOM     32  H   UNL     1      50.491   0.522  16.397  0.00  0.00    +0.000 HD
ENDBRANCH  21  22
ENDBRANCH  18  21
ENDBRANCH   1  18
TORSDOF 8
ENDMDL
MODEL 2
REMARK VINA RESULT:    -7.407      3.042      8.962
REMARK INTER + INTRA:         -11.869
REMARK INTER:                 -10.598
REMARK INTRA:                  -1.271
REMARK UNBOUND:                -0.998
REMARK  Name = 
REMARK  9 active torsions:
REMARK  status: ('A' for Active; 'I' for Inactive)
REMARK    1  A    between atoms: C_1  and  C_2
REMARK    2  A    between atoms: C_2  and  N_3
REMARK    3  A    between atoms: C_2  and  C_20
REMARK    4  A    between atoms: N_3  and  C_4
REMARK    5  A    between atoms: C_4  and  C_5
REMARK    6  A    between atoms: C_8  and  C_9
REMARK    7  A    between atoms: C_9  and  C_10
REMARK    8  A    between atoms: C_10  and  N_11
REMARK    9  A    between atoms: N_11  and  C_12
REMARK                            x       y       z     vdW  Elec       q    Type
REMARK                         _______ _______ _______ _____ _____    ______ ____
ROOT
ATOM      1  C   UNL     1      47.804   7.196  12.736  0.00  0.00    +0.000 C 
ENDROOT
BRANCH   1   2
ATOM      2  C   UNL     1      47.743   6.211  13.874  0.00  0.00    +0.000 A 
ATOM      3  C   UNL     1      47.074   4.988  13.777  0.00  0.00    +0.000 A 
ATOM      4  C   UNL     1      47.077   4.109  14.860  0.00  0.00    +0.000 A 
ATOM      5  C   UNL     1      47.763   4.466  16.017  0.00  0.00    +0.000 A 
ATOM      6  N   UNL     1      48.466   5.616  16.111  0.00  0.00    +0.000 NA
ATOM      7  C   UNL     1      48.413   6.468  15.064  0.00  0.00    +0.000 A 
BRANCH   5   8
ATOM      8  C   UNL     1      47.803   3.512  17.188  0.00  0.00    +0.000 C 
BRANCH   8   9
ATOM      9  C   UNL     1      49.140   2.779  17.381  0.00  0.00    +0.000 C 
BRANCH   9  10
ATOM     10  N   UNL     1      50.296   3.683  17.392  0.00  0.00    +0.000 NA
ATOM     11  H   UNL     1      50.238   4.337  18.169  0.00  0.00    +0.000 HD
BRANCH  10  12
ATOM     12  C   UNL     1      51.580   2.973  17.399  0.00  0.00    +0.000 C 
ATOM     13  C   UNL     1      51.409   1.449  17.451  0.00  0.00    +0.000 C 
ATOM     14  C   UNL     1      52.749   0.759  17.641  0.00  0.00    +0.000 C 
ATOM     15  O   UNL     1      53.414   1.248  18.802  0.00  0.00    +0.000 OA
ATOM     16  C   UNL     1      53.698   2.644  18.706  0.00  0.00    +0.000 C 
ATOM     17  C   UNL     1      52.410   3.449  18.597  0.00  0.00    +0.000 C 
ENDBRANCH  10  12
ENDBRANCH   9  10
ENDBRANCH   8   9
ENDBRANCH   5   8
ENDBRANCH   1   2
BRANCH   1  18
ATOM     18  N   UNL     1      47.117   6.711  11.541  0.00  0.00    +0.000 NA
ATOM     19  H   UNL     1      47.655   6.981  10.719  0.00  0.00    +0.000 HD
BRANCH  18  21
ATOM     20  C   UNL     1      45.427   8.340  12.417  0.00  0.00    +0.000 C 
ATOM     21  C   UNL     1      45.753   7.250  11.391  0.00  0.00    +0.000 C 
BRANCH  21  22
ATOM     22  C   UNL     1      44.818   6.062  11.543  0.00  0.00    +0.000 A 
ATOM     23  C   UNL     1      43.918   5.918  12.590  0.00  0.00    +0.000 A 
ATOM     24  S   UNL     1      43.083   4.432  12.569  0.00  0.00    +0.000 S 
ATOM     25  C   UNL     1      43.888   3.934  11.154  0.00  0.00    +0.000 A 
ATOM     26  N   UNL     1      43.676   2.701  10.621  0.00  0.00    +0.000 NA
ATOM     27  C   UNL     1      44.356   2.462   9.550  0.00  0.00    +0.000 A 
ATOM     28  N   UNL     1      45.205   3.353   8.945  0.00  0.00    +0.000 N 
ATOM     29  C   UNL     1      45.416   4.628   9.419  0.00  0.00    +0.000 A 
ATOM     30  O   UNL     1      46.101   5.437   8.801  0.00  0.00    +0.000 OA
ATOM     31  C   UNL     1      44.735   4.916  10.668  0.00  0.00    +0.000 A 
ATOM     32  H   UNL     1      45.668   3.117   8.080  0.00  0.00    +0.000 HD
ENDBRANCH  21  22
ENDBRANCH  18  21
ENDBRANCH   1  18
TORSDOF 8
ENDMDL
MODEL 3
REMARK VINA RESULT:    -7.321      3.311      9.400
REMARK INTER + INTRA:         -11.743
REMARK INTER:                 -10.387
REMARK INTRA:                  -1.356
REMARK UNBOUND:                -0.998
REMARK  Name = 
REMARK  9 active torsions:
REMARK  status: ('A' for Active; 'I' for Inactive)
REMARK    1  A    between atoms: C_1  and  C_2
REMARK    2  A    between atoms: C_2  and  N_3
REMARK    3  A    between atoms: C_2  and  C_20
REMARK    4  A    between atoms: N_3  and  C_4
REMARK    5  A    between atoms: C_4  and  C_5
REMARK    6  A    between atoms: C_8  and  C_9
REMARK    7  A    between atoms: C_9  and  C_10
REMARK    8  A    between atoms: C_10  and  N_11
REMARK    9  A    between atoms: N_11  and  C_12
REMARK                            x       y       z     vdW  Elec       q    Type
REMARK                         _______ _______ _______ _____ _____    ______ ____
ROOT
ATOM      1  C   UNL     1      47.784   7.120  13.011  0.00  0.00    +0.000 C 
ENDROOT
BRANCH   1   2
ATOM      2  C   UNL     1      47.784   6.120  14.138  0.00  0.00    +0.000 A 
ATOM      3  C   UNL     1      48.432   6.355  15.353  0.00  0.00    +0.000 A 
ATOM      4  C   UNL     1      48.373   5.398  16.366  0.00  0.00    +0.000 A 
ATOM      5  C   UNL     1      47.652   4.228  16.148  0.00  0.00    +0.000 A 
ATOM      6  N   UNL     1      46.968   4.007  15.004  0.00  0.00    +0.000 NA
ATOM      7  C   UNL     1      47.076   4.930  14.024  0.00  0.00    +0.000 A 
BRANCH   5   8
ATOM      8  C   UNL     1      47.551   3.195  17.246  0.00  0.00    +0.000 C 
BRANCH   8   9
ATOM      9  C   UNL     1      48.747   3.154  18.210  0.00  0.00    +0.000 C 
BRANCH   9  10
ATOM     10  N   UNL     1      48.359   3.312  19.617  0.00  0.00    +0.000 NA
ATOM     11  H   UNL     1      48.708   2.538  20.178  0.00  0.00    +0.000 HD
BRANCH  10  12
ATOM     12  C   UNL     1      48.770   4.600  20.185  0.00  0.00    +0.000 C 
ATOM     13  C   UNL     1      47.716   5.697  19.983  0.00  0.00    +0.000 C 
ATOM     14  C   UNL     1      48.251   7.050  20.419  0.00  0.00    +0.000 C 
ATOM     15  O   UNL     1      49.463   7.362  19.738  0.00  0.00    +0.000 OA
ATOM     16  C   UNL     1      50.495   6.419  20.026  0.00  0.00    +0.000 C 
ATOM     17  C   UNL     1      50.100   5.027  19.549  0.00  0.00    +0.000 C 
ENDBRANCH  10  12
ENDBRANCH   9  10
ENDBRANCH   8   9
ENDBRANCH   5   8
ENDBRANCH   1   2
BRANCH   1  18
ATOM     18  N   UNL     1      47.223   6.571  11.779  0.00  0.00    +0.000 NA
ATOM     19  H   UNL     1      47.855   6.778  11.008  0.00  0.00    +0.000 HD
BRANCH  18  21
ATOM     20  C   UNL     1      45.474   8.262  12.375  0.00  0.00    +0.000 C 
ATOM     21  C   UNL     1      45.897   7.122  11.443  0.00  0.00    +0.000 C 
BRANCH  21  22
ATOM     22  C   UNL     1      44.927   5.956  11.533  0.00  0.00    +0.000 A 
ATOM     23  C   UNL     1      44.015   5.791  12.566  0.00  0.00    +0.000 A 
ATOM     24  S   UNL     1      43.138   4.332  12.470  0.00  0.00    +0.000 S 
ATOM     25  C   UNL     1      43.940   3.876  11.040  0.00  0.00    +0.000 A 
ATOM     26  N   UNL     1      43.698   2.676  10.449  0.00  0.00    +0.000 NA
ATOM     27  C   UNL     1      44.379   2.466   9.373  0.00  0.00    +0.000 A 
ATOM     28  N   UNL     1      45.259   3.360   8.817  0.00  0.00    +0.000 N 
ATOM     29  C   UNL     1      45.502   4.605   9.350  0.00  0.00    +0.000 A 
ATOM     30  O   UNL     1      46.216   5.421   8.775  0.00  0.00    +0.000 OA
ATOM     31  C   UNL     1      44.820   4.855  10.606  0.00  0.00    +0.000 A 
ATOM     32  H   UNL     1      45.723   3.150   7.945  0.00  0.00    +0.000 HD
ENDBRANCH  21  22
ENDBRANCH  18  21
ENDBRANCH   1  18
TORSDOF 8
ENDMDL
MODEL 4
REMARK VINA RESULT:    -7.127      2.609      3.429
REMARK INTER + INTRA:         -11.458
REMARK INTER:                 -10.391
REMARK INTRA:                  -1.067
REMARK UNBOUND:                -0.998
REMARK  Name = 
REMARK  9 active torsions:
REMARK  status: ('A' for Active; 'I' for Inactive)
REMARK    1  A    between atoms: C_1  and  C_2
REMARK    2  A    between atoms: C_2  and  N_3
REMARK    3  A    between atoms: C_2  and  C_20
REMARK    4  A    between atoms: N_3  and  C_4
REMARK    5  A    between atoms: C_4  and  C_5
REMARK    6  A    between atoms: C_8  and  C_9
REMARK    7  A    between atoms: C_9  and  C_10
REMARK    8  A    between atoms: C_10  and  N_11
REMARK    9  A    between atoms: N_11  and  C_12
REMARK                            x       y       z     vdW  Elec       q    Type
REMARK                         _______ _______ _______ _____ _____    ______ ____
ROOT
ATOM      1  C   UNL     1      47.893   6.556  13.585  0.00  0.00    +0.000 C 
ENDROOT
BRANCH   1   2
ATOM      2  C   UNL     1      46.886   5.914  12.666  0.00  0.00    +0.000 A 
ATOM      3  C   UNL     1      46.174   4.764  13.016  0.00  0.00    +0.000 A 
ATOM      4  C   UNL     1      45.237   4.233  12.129  0.00  0.00    +0.000 A 
ATOM      5  C   UNL     1      45.020   4.873  10.913  0.00  0.00    +0.000 A 
ATOM      6  N   UNL     1      45.654   6.020  10.580  0.00  0.00    +0.000 NA
ATOM      7  C   UNL     1      46.586   6.490  11.438  0.00  0.00    +0.000 A 
BRANCH   5   8
ATOM      8  C   UNL     1      43.987   4.331   9.954  0.00  0.00    +0.000 C 
BRANCH   8   9
ATOM      9  C   UNL     1      44.555   3.515   8.782  0.00  0.00    +0.000 C 
BRANCH   9  10
ATOM     10  N   UNL     1      45.640   4.205   8.072  0.00  0.00    +0.000 NA
ATOM     11  H   UNL     1      46.087   4.892   8.674  0.00  0.00    +0.000 HD
BRANCH  10  12
ATOM     12  C   UNL     1      46.629   3.284   7.502  0.00  0.00    +0.000 C 
ATOM     13  C   UNL     1      46.643   3.311   5.968  0.00  0.00    +0.000 C 
ATOM     14  C   UNL     1      47.544   2.220   5.415  0.00  0.00    +0.000 C 
ATOM     15  O   UNL     1      47.158   0.940   5.909  0.00  0.00    +0.000 OA
ATOM     16  C   UNL     1      47.269   0.862   7.330  0.00  0.00    +0.000 C 
ATOM     17  C   UNL     1      46.336   1.862   7.999  0.00  0.00    +0.000 C 
ENDBRANCH  10  12
ENDBRANCH   9  10
ENDBRANCH   8   9
ENDBRANCH   5   8
ENDBRANCH   1   2
BRANCH   1  18
ATOM     18  N   UNL     1      48.068   5.810  14.829  0.00  0.00    +0.000 NA
ATOM     19  H   UNL     1      47.156   5.501  15.160  0.00  0.00    +0.000 HD
BRANCH  18  21
ATOM     20  C   UNL     1      50.127   7.038  15.558  0.00  0.00    +0.000 C 
ATOM     21  C   UNL     1      48.699   6.602  15.902  0.00  0.00    +0.000 C 
BRANCH  21  22
ATOM     22  C   UNL     1      48.682   5.716  17.136  0.00  0.00    +0.000 A 
ATOM     23  C   UNL     1      48.753   4.331  17.093  0.00  0.00    +0.000 A 
ATOM     24  S   UNL     1      48.594   3.594  18.621  0.00  0.00    +0.000 S 
ATOM     25  C   UNL     1      48.435   5.102  19.396  0.00  0.00    +0.000 A 
ATOM     26  N   UNL     1      48.205   5.185  20.733  0.00  0.00    +0.000 NA
ATOM     27  C   UNL     1      48.106   6.392  21.181  0.00  0.00    +0.000 A 
ATOM     28  N   UNL     1      48.246   7.524  20.419  0.00  0.00    +0.000 N 
ATOM     29  C   UNL     1      48.527   7.492  19.072  0.00  0.00    +0.000 A 
ATOM     30  O   UNL     1      48.748   8.519  18.438  0.00  0.00    +0.000 OA
ATOM     31  C   UNL     1      48.567   6.156  18.507  0.00  0.00    +0.000 A 
ATOM     32  H   UNL     1      48.205   8.438  20.844  0.00  0.00    +0.000 HD
ENDBRANCH  21  22
ENDBRANCH  18  21
ENDBRANCH   1  18
TORSDOF 8
ENDMDL
MODEL 5
REMARK VINA RESULT:    -7.023      2.684      3.564
REMARK INTER + INTRA:         -11.306
REMARK INTER:                 -10.090
REMARK INTRA:                  -1.216
REMARK UNBOUND:                -0.998
REMARK  Name = 
REMARK  9 active torsions:
REMARK  status: ('A' for Active; 'I' for Inactive)
REMARK    1  A    between atoms: C_1  and  C_2
REMARK    2  A    between atoms: C_2  and  N_3
REMARK    3  A    between atoms: C_2  and  C_20
REMARK    4  A    between atoms: N_3  and  C_4
REMARK    5  A    between atoms: C_4  and  C_5
REMARK    6  A    between atoms: C_8  and  C_9
REMARK    7  A    between atoms: C_9  and  C_10
REMARK    8  A    between atoms: C_10  and  N_11
REMARK    9  A    between atoms: N_11  and  C_12
REMARK                            x       y       z     vdW  Elec       q    Type
REMARK                         _______ _______ _______ _____ _____    ______ ____
ROOT
ATOM      1  C   UNL     1      48.468   7.213  13.548  0.00  0.00    +0.000 C 
ENDROOT
BRANCH   1   2
ATOM      2  C   UNL     1      47.163   6.479  13.382  0.00  0.00    +0.000 A 
ATOM      3  C   UNL     1      46.994   5.147  13.766  0.00  0.00    +0.000 A 
ATOM      4  C   UNL     1      45.751   4.532  13.609  0.00  0.00    +0.000 A 
ATOM      5  C   UNL     1      44.695   5.271  13.083  0.00  0.00    +0.000 A 
ATOM      6  N   UNL     1      44.820   6.578  12.762  0.00  0.00    +0.000 NA
ATOM      7  C   UNL     1      46.044   7.136  12.885  0.00  0.00    +0.000 A 
BRANCH   5   8
ATOM      8  C   UNL     1      43.334   4.631  12.935  0.00  0.00    +0.000 C 
BRANCH   8   9
ATOM      9  C   UNL     1      42.942   4.266  11.495  0.00  0.00    +0.000 C 
BRANCH   9  10
ATOM     10  N   UNL     1      43.476   2.968  11.064  0.00  0.00    +0.000 NA
ATOM     11  H   UNL     1      42.754   2.411  10.614  0.00  0.00    +0.000 HD
BRANCH  10  12
ATOM     12  C   UNL     1      44.658   3.091  10.202  0.00  0.00    +0.000 C 
ATOM     13  C   UNL     1      44.709   4.434   9.462  0.00  0.00    +0.000 C 
ATOM     14  C   UNL     1      45.839   4.451   8.448  0.00  0.00    +0.000 C 
ATOM     15  O   UNL     1      45.726   3.360   7.538  0.00  0.00    +0.000 OA
ATOM     16  C   UNL     1      45.811   2.100   8.204  0.00  0.00    +0.000 C 
ATOM     17  C   UNL     1      44.665   1.935   9.194  0.00  0.00    +0.000 C 
ENDBRANCH  10  12
ENDBRANCH   9  10
ENDBRANCH   8   9
ENDBRANCH   5   8
ENDBRANCH   1   2
BRANCH   1  18
ATOM     18  N   UNL     1      49.332   6.593  14.550  0.00  0.00    +0.000 NA
ATOM     19  H   UNL     1      48.764   6.013  15.163  0.00  0.00    +0.000 HD
BRANCH  18  21
ATOM     20  C   UNL     1      51.430   7.070  15.833  0.00  0.00    +0.000 C 
ATOM     21  C   UNL     1      50.053   7.571  15.386  0.00  0.00    +0.000 C 
BRANCH  21  22
ATOM     22  C   UNL     1      49.155   7.837  16.582  0.00  0.00    +0.000 A 
ATOM     23  C   UNL     1      48.688   9.097  16.930  0.00  0.00    +0.000 A 
ATOM     24  S   UNL     1      47.800   9.114  18.385  0.00  0.00    +0.000 S 
ATOM     25  C   UNL     1      48.000   7.437  18.594  0.00  0.00    +0.000 A 
ATOM     26  N   UNL     1      47.523   6.803  19.699  0.00  0.00    +0.000 NA
ATOM     27  C   UNL     1      47.750   5.532  19.722  0.00  0.00    +0.000 A 
ATOM     28  N   UNL     1      48.383   4.832  18.727  0.00  0.00    +0.000 N 
ATOM     29  C   UNL     1      48.841   5.419  17.570  0.00  0.00    +0.000 A 
ATOM     30  O   UNL     1      49.311   4.751  16.654  0.00  0.00    +0.000 OA
ATOM     31  C   UNL     1      48.681   6.861  17.534  0.00  0.00    +0.000 A 
ATOM     32  H   UNL     1      48.484   3.829  18.788  0.00  0.00    +0.000 HD
ENDBRANCH  21  22
ENDBRANCH  18  21
ENDBRANCH   1  18
TORSDOF 8
ENDMDL
MODEL 6
REMARK VINA RESULT:    -7.001      3.523      8.600
REMARK INTER + INTRA:         -11.274
REMARK INTER:                 -10.093
REMARK INTRA:                  -1.180
REMARK UNBOUND:                -0.998
REMARK  Name = 
REMARK  9 active torsions:
REMARK  status: ('A' for Active; 'I' for Inactive)
REMARK    1  A    between atoms: C_1  and  C_2
REMARK    2  A    between atoms: C_2  and  N_3
REMARK    3  A    between atoms: C_2  and  C_20
REMARK    4  A    between atoms: N_3  and  C_4
REMARK    5  A    between atoms: C_4  and  C_5
REMARK    6  A    between atoms: C_8  and  C_9
REMARK    7  A    between atoms: C_9  and  C_10
REMARK    8  A    between atoms: C_10  and  N_11
REMARK    9  A    between atoms: N_11  and  C_12
REMARK                            x       y       z     vdW  Elec       q    Type
REMARK                         _______ _______ _______ _____ _____    ______ ____
ROOT
ATOM      1  C   UNL     1      48.482   7.271  12.289  0.00  0.00    +0.000 C 
ENDROOT
BRANCH   1   2
ATOM      2  C   UNL     1      49.111   7.271  13.657  0.00  0.00    +0.000 A 
ATOM      3  C   UNL     1      50.290   7.964  13.944  0.00  0.00    +0.000 A 
ATOM      4  C   UNL     1      50.808   7.944  15.239  0.00  0.00    +0.000 A 
ATOM      5  C   UNL     1      50.126   7.241  16.228  0.00  0.00    +0.000 A 
ATOM      6  N   UNL     1      48.953   6.615  15.987  0.00  0.00    +0.000 NA
ATOM      7  C   UNL     1      48.495   6.615  14.716  0.00  0.00    +0.000 A 
BRANCH   5   8
ATOM      8  C   UNL     1      50.655   7.236  17.643  0.00  0.00    +0.000 C 
BRANCH   8   9
ATOM      9  C   UNL     1      50.888   5.840  18.242  0.00  0.00    +0.000 C 
BRANCH   9  10
ATOM     10  N   UNL     1      49.642   5.146  18.588  0.00  0.00    +0.000 NA
ATOM     11  H   UNL     1      48.835   5.643  18.218  0.00  0.00    +0.000 HD
BRANCH  10  12
ATOM     12  C   UNL     1      49.631   3.741  18.165  0.00  0.00    +0.000 C 
ATOM     13  C   UNL     1      50.992   3.276  17.633  0.00  0.00    +0.000 C 
ATOM     14  C   UNL     1      50.894   1.881  17.039  0.00  0.00    +0.000 C 
ATOM     15  O   UNL     1      49.893   1.827  16.025  0.00  0.00    +0.000 OA
ATOM     16  C   UNL     1      48.597   2.129  16.540  0.00  0.00    +0.000 C 
ATOM     17  C   UNL     1      48.553   3.549  17.090  0.00  0.00    +0.000 C 
ENDBRANCH  10  12
ENDBRANCH   9  10
ENDBRANCH   8   9
ENDBRANCH   5   8
ENDBRANCH   1   2
BRANCH   1  18
ATOM     18  N   UNL     1      47.295   6.422  12.221  0.00  0.00    +0.000 NA
ATOM     19  H   UNL     1      47.578   5.480  11.953  0.00  0.00    +0.000 HD
BRANCH  18  21
ATOM     20  C   UNL     1      45.213   7.774  11.882  0.00  0.00    +0.000 C 
ATOM     21  C   UNL     1      46.293   6.892  11.246  0.00  0.00    +0.000 C 
BRANCH  21  22
ATOM     22  C   UNL     1      45.685   5.640  10.638  0.00  0.00    +0.000 A 
ATOM     23  C   UNL     1      45.717   5.348   9.281  0.00  0.00    +0.000 A 
ATOM     24  S   UNL     1      44.854   3.938   8.869  0.00  0.00    +0.000 S 
ATOM     25  C   UNL     1      44.416   3.663  10.490  0.00  0.00    +0.000 A 
ATOM     26  N   UNL     1      43.605   2.626  10.834  0.00  0.00    +0.000 NA
ATOM     27  C   UNL     1      43.358   2.542  12.099  0.00  0.00    +0.000 A 
ATOM     28  N   UNL     1      43.870   3.382  13.054  0.00  0.00    +0.000 N 
ATOM     29  C   UNL     1      44.731   4.415  12.762  0.00  0.00    +0.000 A 
ATOM     30  O   UNL     1      45.254   5.085  13.648  0.00  0.00    +0.000 OA
ATOM     31  C   UNL     1      44.975   4.600  11.343  0.00  0.00    +0.000 A 
ATOM     32  H   UNL     1      43.674   3.229  14.033  0.00  0.00    +0.000 HD
ENDBRANCH  21  22
ENDBRANCH  18  21
ENDBRANCH   1  18
TORSDOF 8
ENDMDL
MODEL 7
REMARK VINA RESULT:    -6.990      3.121      8.571
REMARK INTER + INTRA:         -11.257
REMARK INTER:                  -9.713
REMARK INTRA:                  -1.543
REMARK UNBOUND:                -0.998
REMARK  Name = 
REMARK  9 active torsions:
REMARK  status: ('A' for Active; 'I' for Inactive)
REMARK    1  A    between atoms: C_1  and  C_2
REMARK    2  A    between atoms: C_2  and  N_3
REMARK    3  A    between atoms: C_2  and  C_20
REMARK    4  A    between atoms: N_3  and  C_4
REMARK    5  A    between atoms: C_4  and  C_5
REMARK    6  A    between atoms: C_8  and  C_9
REMARK    7  A    between atoms: C_9  and  C_10
REMARK    8  A    between atoms: C_10  and  N_11
REMARK    9  A    between atoms: N_11  and  C_12
REMARK                            x       y       z     vdW  Elec       q    Type
REMARK                         _______ _______ _______ _____ _____    ______ ____
ROOT
ATOM      1  C   UNL     1      48.102   7.805  12.334  0.00  0.00    +0.000 C 
ENDROOT
BRANCH   1   2
ATOM      2  C   UNL     1      48.595   7.829  13.757  0.00  0.00    +0.000 A 
ATOM      3  C   UNL     1      48.089   8.713  14.714  0.00  0.00    +0.000 A 
ATOM      4  C   UNL     1      48.571   8.667  16.022  0.00  0.00    +0.000 A 
ATOM      5  C   UNL     1      49.541   7.725  16.352  0.00  0.00    +0.000 A 
ATOM      6  N   UNL     1      49.999   6.821  15.458  0.00  0.00    +0.000 NA
ATOM      7  C   UNL     1      49.547   6.914  14.188  0.00  0.00    +0.000 A 
BRANCH   5   8
ATOM      8  C   UNL     1      50.051   7.640  17.772  0.00  0.00    +0.000 C 
BRANCH   8   9
ATOM      9  C   UNL     1      49.666   6.356  18.522  0.00  0.00    +0.000 C 
BRANCH   9  10
ATOM     10  N   UNL     1      48.542   5.642  17.904  0.00  0.00    +0.000 NA
ATOM     11  H   UNL     1      48.301   6.054  17.006  0.00  0.00    +0.000 HD
BRANCH  10  12
ATOM     12  C   UNL     1      48.782   4.200  17.772  0.00  0.00    +0.000 C 
ATOM     13  C   UNL     1      50.270   3.862  17.617  0.00  0.00    +0.000 C 
ATOM     14  C   UNL     1      50.462   2.389  17.301  0.00  0.00    +0.000 C 
ATOM     15  O   UNL     1      49.720   2.015  16.143  0.00  0.00    +0.000 OA
ATOM     16  C   UNL     1      48.317   2.200  16.326  0.00  0.00    +0.000 C 
ATOM     17  C   UNL     1      47.995   3.670  16.567  0.00  0.00    +0.000 C 
ENDBRANCH  10  12
ENDBRANCH   9  10
ENDBRANCH   8   9
ENDBRANCH   5   8
ENDBRANCH   1   2
BRANCH   1  18
ATOM     18  N   UNL     1      47.206   6.681  12.073  0.00  0.00    +0.000 NA
ATOM     19  H   UNL     1      47.652   6.049  11.409  0.00  0.00    +0.000 HD
BRANCH  18  21
ATOM     20  C   UNL     1      45.310   8.311  12.215  0.00  0.00    +0.000 C 
ATOM     21  C   UNL     1      45.905   7.088  11.510  0.00  0.00    +0.000 C 
BRANCH  21  22
ATOM     22  C   UNL     1      44.994   5.880  11.653  0.00  0.00    +0.000 A 
ATOM     23  C   UNL     1      44.186   5.650  12.758  0.00  0.00    +0.000 A 
ATOM     24  S   UNL     1      43.362   4.160  12.699  0.00  0.00    +0.000 S 
ATOM     25  C   UNL     1      44.050   3.774  11.190  0.00  0.00    +0.000 A 
ATOM     26  N   UNL     1      43.802   2.579  10.588  0.00  0.00    +0.000 NA
ATOM     27  C   UNL     1      44.392   2.427   9.450  0.00  0.00    +0.000 A 
ATOM     28  N   UNL     1      45.181   3.370   8.843  0.00  0.00    +0.000 N 
ATOM     29  C   UNL     1      45.422   4.610   9.389  0.00  0.00    +0.000 A 
ATOM     30  O   UNL     1      46.048   5.470   8.776  0.00  0.00    +0.000 OA
ATOM     31  C   UNL     1      44.847   4.799  10.708  0.00  0.00    +0.000 A 
ATOM     32  H   UNL     1      45.572   3.202   7.928  0.00  0.00    +0.000 HD
ENDBRANCH  21  22
ENDBRANCH  18  21
ENDBRANCH   1  18
TORSDOF 8
ENDMDL
MODEL 8
REMARK VINA RESULT:    -6.950      1.994      2.657
REMARK INTER + INTRA:         -11.198
REMARK INTER:                  -9.802
REMARK INTRA:                  -1.396
REMARK UNBOUND:                -0.998
REMARK  Name = 
REMARK  9 active torsions:
REMARK  status: ('A' for Active; 'I' for Inactive)
REMARK    1  A    between atoms: C_1  and  C_2
REMARK    2  A    between atoms: C_2  and  N_3
REMARK    3  A    between atoms: C_2  and  C_20
REMARK    4  A    between atoms: N_3  and  C_4
REMARK    5  A    between atoms: C_4  and  C_5
REMARK    6  A    between atoms: C_8  and  C_9
REMARK    7  A    between atoms: C_9  and  C_10
REMARK    8  A    between atoms: C_10  and  N_11
REMARK    9  A    between atoms: N_11  and  C_12
REMARK                            x       y       z     vdW  Elec       q    Type
REMARK                         _______ _______ _______ _____ _____    ______ ____
ROOT
ATOM      1  C   UNL     1      48.739   6.893  13.415  0.00  0.00    +0.000 C 
ENDROOT
BRANCH   1   2
ATOM      2  C   UNL     1      47.334   6.364  13.284  0.00  0.00    +0.000 A 
ATOM      3  C   UNL     1      46.963   5.092  13.726  0.00  0.00    +0.000 A 
ATOM      4  C   UNL     1      45.639   4.673  13.598  0.00  0.00    +0.000 A 
ATOM      5  C   UNL     1      44.706   5.543  13.041  0.00  0.00    +0.000 A 
ATOM      6  N   UNL     1      45.030   6.799  12.662  0.00  0.00    +0.000 NA
ATOM      7  C   UNL     1      46.327   7.165  12.759  0.00  0.00    +0.000 A 
BRANCH   5   8
ATOM      8  C   UNL     1      43.262   5.117  12.923  0.00  0.00    +0.000 C 
BRANCH   8   9
ATOM      9  C   UNL     1      42.829   4.674  11.516  0.00  0.00    +0.000 C 
BRANCH   9  10
ATOM     10  N   UNL     1      43.282   3.320  11.174  0.00  0.00    +0.000 NA
ATOM     11  H   UNL     1      42.531   2.785  10.744  0.00  0.00    +0.000 HD
BRANCH  10  12
ATOM     12  C   UNL     1      44.482   3.314  10.328  0.00  0.00    +0.000 C 
ATOM     13  C   UNL     1      44.600   4.577   9.465  0.00  0.00    +0.000 C 
ATOM     14  C   UNL     1      45.747   4.452   8.477  0.00  0.00    +0.000 C 
ATOM     15  O   UNL     1      45.603   3.284   7.673  0.00  0.00    +0.000 OA
ATOM     16  C   UNL     1      45.626   2.092   8.457  0.00  0.00    +0.000 C 
ATOM     17  C   UNL     1      44.458   2.067   9.434  0.00  0.00    +0.000 C 
ENDBRANCH  10  12
ENDBRANCH   9  10
ENDBRANCH   8   9
ENDBRANCH   5   8
ENDBRANCH   1   2
BRANCH   1  18
ATOM     18  N   UNL     1      48.808   8.091  14.248  0.00  0.00    +0.000 NA
ATOM     19  H   UNL     1      49.733   8.507  14.152  0.00  0.00    +0.000 HD
BRANCH  18  21
ATOM     20  C   UNL     1      48.273   9.095  16.480  0.00  0.00    +0.000 C 
ATOM     21  C   UNL     1      48.575   7.824  15.679  0.00  0.00    +0.000 C 
BRANCH  21  22
ATOM     22  C   UNL     1      49.837   7.147  16.187  0.00  0.00    +0.000 A 
ATOM     23  C   UNL     1      51.104   7.702  16.084  0.00  0.00    +0.000 A 
ATOM     24  S   UNL     1      52.345   6.669  16.630  0.00  0.00    +0.000 S 
ATOM     25  C   UNL     1      51.230   5.447  17.031  0.00  0.00    +0.000 A 
ATOM     26  N   UNL     1      51.647   4.242  17.504  0.00  0.00    +0.000 NA
ATOM     27  C   UNL     1      50.691   3.415  17.764  0.00  0.00    +0.000 A 
ATOM     28  N   UNL     1      49.355   3.692  17.623  0.00  0.00    +0.000 N 
ATOM     29  C   UNL     1      48.882   4.911  17.194  0.00  0.00    +0.000 A 
ATOM     30  O   UNL     1      47.681   5.163  17.175  0.00  0.00    +0.000 OA
ATOM     31  C   UNL     1      49.923   5.848  16.811  0.00  0.00    +0.000 A 
ATOM     32  H   UNL     1      48.657   3.013  17.891  0.00  0.00    +0.000 HD
ENDBRANCH  21  22
ENDBRANCH  18  21
ENDBRANCH   1  18
TORSDOF 8
ENDMDL
MODEL 9
REMARK VINA RESULT:    -6.877      3.268      4.134
REMARK INTER + INTRA:         -11.090
REMARK INTER:                  -9.347
REMARK INTRA:                  -1.743
REMARK UNBOUND:                -0.998
REMARK  Name = 
REMARK  9 active torsions:
REMARK  status: ('A' for Active; 'I' for Inactive)
REMARK    1  A    between atoms: C_1  and  C_2
REMARK    2  A    between atoms: C_2  and  N_3
REMARK    3  A    between atoms: C_2  and  C_20
REMARK    4  A    between atoms: N_3  and  C_4
REMARK    5  A    between atoms: C_4  and  C_5
REMARK    6  A    between atoms: C_8  and  C_9
REMARK    7  A    between atoms: C_9  and  C_10
REMARK    8  A    between atoms: C_10  and  N_11
REMARK    9  A    between atoms: N_11  and  C_12
REMARK                            x       y       z     vdW  Elec       q    Type
REMARK                         _______ _______ _______ _____ _____    ______ ____
ROOT
ATOM      1  C   UNL     1      49.506   8.232  17.287  0.00  0.00    +0.000 C 
ENDROOT
BRANCH   1   2
ATOM      2  C   UNL     1      48.980   8.036  15.890  0.00  0.00    +0.000 A 
ATOM      3  C   UNL     1      48.168   8.977  15.251  0.00  0.00    +0.000 A 
ATOM      4  C   UNL     1      47.734   8.746  13.946  0.00  0.00    +0.000 A 
ATOM      5  C   UNL     1      48.136   7.582  13.297  0.00  0.00    +0.000 A 
ATOM      6  N   UNL     1      48.971   6.688  13.873  0.00  0.00    +0.000 NA
ATOM      7  C   UNL     1      49.342   6.915  15.152  0.00  0.00    +0.000 A 
BRANCH   5   8
ATOM      8  C   UNL     1      47.703   7.331  11.871  0.00  0.00    +0.000 C 
BRANCH   8   9
ATOM      9  C   UNL     1      46.639   6.236  11.701  0.00  0.00    +0.000 C 
BRANCH   9  10
ATOM     10  N   UNL     1      46.247   5.611  12.970  0.00  0.00    +0.000 NA
ATOM     11  H   UNL     1      46.297   6.280  13.734  0.00  0.00    +0.000 HD
BRANCH  10  12
ATOM     12  C   UNL     1      44.925   4.976  12.914  0.00  0.00    +0.000 C 
ATOM     13  C   UNL     1      44.983   3.543  12.370  0.00  0.00    +0.000 C 
ATOM     14  C   UNL     1      43.585   2.988  12.156  0.00  0.00    +0.000 C 
ATOM     15  O   UNL     1      42.824   3.838  11.302  0.00  0.00    +0.000 OA
ATOM     16  C   UNL     1      42.651   5.140  11.862  0.00  0.00    +0.000 C 
ATOM     17  C   UNL     1      43.996   5.831  12.043  0.00  0.00    +0.000 C 
ENDBRANCH  10  12
ENDBRANCH   9  10
ENDBRANCH   8   9
ENDBRANCH   5   8
ENDBRANCH   1   2
BRANCH   1  18
ATOM     18  N   UNL     1      48.538   7.835  18.308  0.00  0.00    +0.000 NA
ATOM     19  H   UNL     1      48.129   8.672  18.719  0.00  0.00    +0.000 HD
BRANCH  18  21
ATOM     20  C   UNL     1      50.257   7.771  20.129  0.00  0.00    +0.000 C 
ATOM     21  C   UNL     1      49.131   7.035  19.396  0.00  0.00    +0.000 C 
BRANCH  21  22
ATOM     22  C   UNL     1      49.646   5.763  18.744  0.00  0.00    +0.000 A 
ATOM     23  C   UNL     1      50.988   5.413  18.690  0.00  0.00    +0.000 A 
ATOM     24  S   UNL     1      51.284   3.993  17.795  0.00  0.00    +0.000 S 
ATOM     25  C   UNL     1      49.628   3.792  17.457  0.00  0.00    +0.000 A 
ATOM     26  N   UNL     1      49.190   2.777  16.664  0.00  0.00    +0.000 NA
ATOM     27  C   UNL     1      47.910   2.751  16.495  0.00  0.00    +0.000 A 
ATOM     28  N   UNL     1      47.026   3.626  17.071  0.00  0.00    +0.000 N 
ATOM     29  C   UNL     1      47.415   4.639  17.917  0.00  0.00    +0.000 A 
ATOM     30  O   UNL     1      46.593   5.342  18.498  0.00  0.00    +0.000 OA
ATOM     31  C   UNL     1      48.853   4.760  18.074  0.00  0.00    +0.000 A 
ATOM     32  H   UNL     1      46.031   3.518  16.934  0.00  0.00    +0.000 HD
ENDBRANCH  21  22
ENDBRANCH  18  21
ENDBRANCH   1  18
TORSDOF 8
ENDMDL
