MODEL 1
REMARK VINA RESULT:    -7.665      0.000      0.000
REMARK INTER + INTRA:         -10.661
REMARK INTER:                  -9.906
REMARK INTRA:                  -0.755
REMARK UNBOUND:                -0.755
REMARK  Name = 
REMARK  6 active torsions:
REMARK  status: ('A' for Active; 'I' for Inactive)
REMARK    1  A    between atoms: C_1  and  O_2
REMARK    2  A    between atoms: O_2  and  C_3
REMARK    3  A    between atoms: C_6  and  N_7
REMARK    4  A    between atoms: N_7  and  C_8
REMARK    5  A    between atoms: C_8  and  C_9
REMARK    6  A    between atoms: C_13  and  C_14
REMARK                            x       y       z     vdW  Elec       q    Type
REMARK                         _______ _______ _______ _____ _____    ______ ____
ROOT
ATOM      1  C   UNL     1      43.481   6.207  11.045  0.00  0.00    +0.000 C 
ENDROOT
BRANCH   1   2
ATOM      2  C   UNL     1      43.724   4.762  10.696  0.00  0.00    +0.000 A 
ATOM      3  C   UNL     1      43.136   3.730  11.415  0.00  0.00    +0.000 A 
ATOM      4  N   UNL     1      43.326   2.421  11.148  0.00  0.00    +0.000 NA
ATOM      5  C   UNL     1      44.151   2.123  10.112  0.00  0.00    +0.000 A 
ATOM      6  C   UNL     1      44.799   3.058   9.302  0.00  0.00    +0.000 A 
ATOM      7  C   UNL     1      44.551   4.402   9.627  0.00  0.00    +0.000 A 
BRANCH   6   8
ATOM      8  C   UNL     1      45.689   2.666   8.192  0.00  0.00    +0.000 A 
ATOM      9  C   UNL     1      45.981   3.515   7.116  0.00  0.00    +0.000 A 
ATOM     10  C   UNL     1      46.826   3.102   6.084  0.00  0.00    +0.000 A 
ATOM     11  C   UNL     1      47.375   1.833   6.154  0.00  0.00    +0.000 A 
ATOM     12  N   UNL     1      47.133   0.976   7.160  0.00  0.00    +0.000 NA
ATOM     13  C   UNL     1      46.303   1.405   8.145  0.00  0.00    +0.000 A 
ENDBRANCH   6   8
ENDBRANCH   1   2
BRANCH   1  14
ATOM     14  N   UNL     1      43.785   6.502  12.440  0.00  0.00    +0.000 N 
ATOM     15  H   UNL     1      43.219   5.976  13.095  0.00  0.00    +0.000 HD
BRANCH  14  19
ATOM     16  C   UNL     1      47.870   6.618  13.361  0.00  0.00    +0.000 A 
ATOM     17  C   UNL     1      47.021   5.593  13.757  0.00  0.00    +0.000 A 
ATOM     18  N   UNL     1      45.686   5.540  13.510  0.00  0.00    +0.000 NA
ATOM     19  C   UNL     1      45.126   6.553  12.829  0.00  0.00    +0.000 A 
ATOM     20  C   UNL     1      45.900   7.616  12.379  0.00  0.00    +0.000 A 
ATOM     21  C   UNL     1      47.276   7.649  12.640  0.00  0.00    +0.000 A 
ATOM     22 CL   UNL     1      48.135   8.968  11.931  0.00  0.00    +0.000 Cl
BRANCH  16  24
ATOM     23  C   UNL     1      49.821   7.370  14.505  0.00  0.00    +0.000 C 
ATOM     24  O   UNL     1      49.185   6.416  13.663  0.00  0.00    +0.000 OA
ENDBRANCH  16  24
ENDBRANCH  14  19
ENDBRANCH   1  14
TORSDOF 5
ENDMDL
MODEL 2
REMARK VINA RESULT:    -7.625      1.390      1.616
REMARK INTER + INTRA:         -10.608
REMARK INTER:                  -9.850
REMARK INTRA:                  -0.758
REMARK UNBOUND:                -0.755
REMARK  Name = 
REMARK  6 active torsions:
REMARK  status: ('A' for Active; 'I' for Inactive)
REMARK    1  A    between atoms: C_1  and  O_2
REMARK    2  A    between atoms: O_2  and  C_3
REMARK    3  A    between atoms: C_6  and  N_7
REMARK    4  A    between atoms: N_7  and  C_8
REMARK    5  A    between atoms: C_8  and  C_9
REMARK    6  A    between atoms: C_13  and  C_14
REMARK                            x       y       z     vdW  Elec       q    Type
REMARK                         _______ _______ _______ _____ _____    ______ ____
ROOT
ATOM      1  C   UNL     1      43.518   6.160  11.013  0.00  0.00    +0.000 C 
ENDROOT
BRANCH   1   2
ATOM      2  C   UNL     1      43.761   4.718  10.649  0.00  0.00    +0.000 A 
ATOM      3  C   UNL     1      43.165   3.679  11.351  0.00  0.00    +0.000 A 
ATOM      4  N   UNL     1      43.355   2.373  11.071  0.00  0.00    +0.000 NA
ATOM      5  C   UNL     1      44.189   2.086  10.039  0.00  0.00    +0.000 A 
ATOM      6  C   UNL     1      44.846   3.029   9.245  0.00  0.00    +0.000 A 
ATOM      7  C   UNL     1      44.597   4.369   9.583  0.00  0.00    +0.000 A 
BRANCH   6   8
ATOM      8  C   UNL     1      45.745   2.648   8.138  0.00  0.00    +0.000 A 
ATOM      9  C   UNL     1      46.046   3.508   7.074  0.00  0.00    +0.000 A 
ATOM     10  C   UNL     1      46.900   3.106   6.045  0.00  0.00    +0.000 A 
ATOM     11  C   UNL     1      47.447   1.835   6.106  0.00  0.00    +0.000 A 
ATOM     12  N   UNL     1      47.196   0.968   7.100  0.00  0.00    +0.000 NA
ATOM     13  C   UNL     1      46.358   1.387   8.083  0.00  0.00    +0.000 A 
ENDBRANCH   6   8
ENDBRANCH   1   2
BRANCH   1  14
ATOM     14  N   UNL     1      43.895   6.459  12.389  0.00  0.00    +0.000 N 
ATOM     15  H   UNL     1      43.293   6.019  13.076  0.00  0.00    +0.000 HD
BRANCH  14  19
ATOM     16  C   UNL     1      47.873   6.242  13.685  0.00  0.00    +0.000 A 
ATOM     17  C   UNL     1      47.384   7.251  12.864  0.00  0.00    +0.000 A 
ATOM     18  N   UNL     1      46.113   7.333  12.393  0.00  0.00    +0.000 NA
ATOM     19  C   UNL     1      45.244   6.369  12.741  0.00  0.00    +0.000 A 
ATOM     20  C   UNL     1      45.639   5.328  13.571  0.00  0.00    +0.000 A 
ATOM     21  C   UNL     1      46.953   5.264  14.050  0.00  0.00    +0.000 A 
ATOM     22 CL   UNL     1      47.278   3.981  15.159  0.00  0.00    +0.000 Cl
BRANCH  16  24
ATOM     23  C   UNL     1      49.408   7.305  15.165  0.00  0.00    +0.000 C 
ATOM     24  O   UNL     1      49.165   6.411  14.086  0.00  0.00    +0.000 OA
ENDBRANCH  16  24
ENDBRANCH  14  19
ENDBRANCH   1  14
TORSDOF 5
ENDMDL
MODEL 3
REMARK VINA RESULT:    -7.324      3.250      6.934
REMARK INTER + INTRA:         -10.220
REMARK INTER:                  -9.498
REMARK INTRA:                  -0.722
REMARK UNBOUND:                -0.755
REMARK  Name = 
REMARK  6 active torsions:
REMARK  status: ('A' for Active; 'I' for Inactive)
REMARK    1  A    between atoms: C_1  and  O_2
REMARK    2  A    between atoms: O_2  and  C_3
REMARK    3  A    between atoms: C_6  and  N_7
REMARK    4  A    between atoms: N_7  and  C_8
REMARK    5  A    between atoms: C_8  and  C_9
REMARK    6  A    between atoms: C_13  and  C_14
REMARK                            x       y       z     vdW  Elec       q    Type
REMARK                         _______ _______ _______ _____ _____    ______ ____
ROOT
ATOM      1  C   UNL     1      44.076   3.250  11.082  0.00  0.00    +0.000 C 
ENDROOT
BRANCH   1   2
ATOM      2  C   UNL     1      45.120   3.922  11.936  0.00  0.00    +0.000 A 
ATOM      3  C   UNL     1      45.807   3.232  12.926  0.00  0.00    +0.000 A 
ATOM      4  N   UNL     1      46.743   3.788  13.722  0.00  0.00    +0.000 NA
ATOM      5  C   UNL     1      47.006   5.105  13.525  0.00  0.00    +0.000 A 
ATOM      6  C   UNL     1      46.399   5.915  12.563  0.00  0.00    +0.000 A 
ATOM      7  C   UNL     1      45.441   5.272  11.762  0.00  0.00    +0.000 A 
BRANCH   6   8
ATOM      8  C   UNL     1      46.729   7.345  12.405  0.00  0.00    +0.000 A 
ATOM      9  C   UNL     1      48.040   7.806  12.231  0.00  0.00    +0.000 A 
ATOM     10  C   UNL     1      48.310   9.169  12.088  0.00  0.00    +0.000 A 
ATOM     11  C   UNL     1      47.244  10.054  12.116  0.00  0.00    +0.000 A 
ATOM     12  N   UNL     1      45.968   9.671  12.278  0.00  0.00    +0.000 NA
ATOM     13  C   UNL     1      45.740   8.340  12.420  0.00  0.00    +0.000 A 
ENDBRANCH   6   8
ENDBRANCH   1   2
BRANCH   1  14
ATOM     14  N   UNL     1      43.993   3.826   9.746  0.00  0.00    +0.000 N 
ATOM     15  H   UNL     1      43.835   4.827   9.748  0.00  0.00    +0.000 HD
BRANCH  14  19
ATOM     16  C   UNL     1      47.019   2.626   7.109  0.00  0.00    +0.000 A 
ATOM     17  C   UNL     1      46.639   3.949   7.294  0.00  0.00    +0.000 A 
ATOM     18  N   UNL     1      45.639   4.373   8.109  0.00  0.00    +0.000 NA
ATOM     19  C   UNL     1      44.951   3.449   8.802  0.00  0.00    +0.000 A 
ATOM     20  C   UNL     1      45.270   2.101   8.692  0.00  0.00    +0.000 A 
ATOM     21  C   UNL     1      46.308   1.686   7.849  0.00  0.00    +0.000 A 
ATOM     22 CL   UNL     1      46.670  -0.002   7.891  0.00  0.00    +0.000 Cl
BRANCH  16  24
ATOM     23  C   UNL     1      47.854   1.988   4.970  0.00  0.00    +0.000 C 
ATOM     24  O   UNL     1      48.098   2.453   6.292  0.00  0.00    +0.000 OA
ENDBRANCH  16  24
ENDBRANCH  14  19
ENDBRANCH   1  14
TORSDOF 5
ENDMDL
MODEL 4
REMARK VINA RESULT:    -6.982      3.006      6.514
REMARK INTER + INTRA:          -9.778
REMARK INTER:                  -9.560
REMARK INTRA:                  -0.218
REMARK UNBOUND:                -0.755
REMARK  Name = 
REMARK  6 active torsions:
REMARK  status: ('A' for Active; 'I' for Inactive)
REMARK    1  A    between atoms: C_1  and  O_2
REMARK    2  A    between atoms: O_2  and  C_3
REMARK    3  A    between atoms: C_6  and  N_7
REMARK    4  A    between atoms: N_7  and  C_8
REMARK    5  A    between atoms: C_8  and  C_9
REMARK    6  A    between atoms: C_13  and  C_14
REMARK                            x       y       z     vdW  Elec       q    Type
REMARK                         _______ _______ _______ _____ _____    ______ ____
ROOT
ATOM      1  C   UNL     1      43.432   5.727  11.729  0.00  0.00    +0.000 C 
ENDROOT
BRANCH   1   2
ATOM      2  C   UNL     1      44.807   5.763  12.346  0.00  0.00    +0.000 A 
ATOM      3  C   UNL     1      45.198   4.843  13.310  0.00  0.00    +0.000 A 
ATOM      4  N   UNL     1      46.412   4.837  13.898  0.00  0.00    +0.000 NA
ATOM      5  C   UNL     1      47.282   5.804  13.510  0.00  0.00    +0.000 A 
ATOM      6  C   UNL     1      47.024   6.783  12.549  0.00  0.00    +0.000 A 
ATOM      7  C   UNL     1      45.747   6.728  11.969  0.00  0.00    +0.000 A 
BRANCH   6   8
ATOM      8  C   UNL     1      48.017   7.811  12.176  0.00  0.00    +0.000 A 
ATOM      9  C   UNL     1      49.361   7.510  11.920  0.00  0.00    +0.000 A 
ATOM     10  C   UNL     1      50.268   8.514  11.572  0.00  0.00    +0.000 A 
ATOM     11  C   UNL     1      49.802   9.815  11.481  0.00  0.00    +0.000 A 
ATOM     12  N   UNL     1      48.526  10.163  11.715  0.00  0.00    +0.000 NA
ATOM     13  C   UNL     1      47.671   9.165  12.056  0.00  0.00    +0.000 A 
ENDBRANCH   6   8
ENDBRANCH   1   2
BRANCH   1  14
ATOM     14  N   UNL     1      43.471   5.459  10.297  0.00  0.00    +0.000 N 
ATOM     15  H   UNL     1      43.684   6.278   9.740  0.00  0.00    +0.000 HD
BRANCH  14  19
ATOM     16  C   UNL     1      45.424   2.094   8.743  0.00  0.00    +0.000 A 
ATOM     17  C   UNL     1      44.475   2.034   9.756  0.00  0.00    +0.000 A 
ATOM     18  N   UNL     1      43.851   3.105  10.311  0.00  0.00    +0.000 NA
ATOM     19  C   UNL     1      44.163   4.329   9.853  0.00  0.00    +0.000 A 
ATOM     20  C   UNL     1      45.090   4.486   8.831  0.00  0.00    +0.000 A 
ATOM     21  C   UNL     1      45.720   3.369   8.269  0.00  0.00    +0.000 A 
ATOM     22 CL   UNL     1      46.765   3.698   6.934  0.00  0.00    +0.000 Cl
BRANCH  16  24
ATOM     23  C   UNL     1      47.054   0.853   7.527  0.00  0.00    +0.000 C 
ATOM     24  O   UNL     1      45.860   0.880   8.299  0.00  0.00    +0.000 OA
ENDBRANCH  16  24
ENDBRANCH  14  19
ENDBRANCH   1  14
TORSDOF 5
ENDMDL
MODEL 5
REMARK VINA RESULT:    -6.624      1.764      2.259
REMARK INTER + INTRA:          -9.315
REMARK INTER:                  -8.621
REMARK INTRA:                  -0.693
REMARK UNBOUND:                -0.755
REMARK  Name = 
REMARK  6 active torsions:
REMARK  status: ('A' for Active; 'I' for Inactive)
REMARK    1  A    between atoms: C_1  and  O_2
REMARK    2  A    between atoms: O_2  and  C_3
REMARK    3  A    between atoms: C_6  and  N_7
REMARK    4  A    between atoms: N_7  and  C_8
REMARK    5  A    between atoms: C_8  and  C_9
REMARK    6  A    between atoms: C_13  and  C_14
REMARK                            x       y       z     vdW  Elec       q    Type
REMARK                         _______ _______ _______ _____ _____    ______ ____
ROOT
ATOM      1  C   UNL     1      44.590   5.525  12.959  0.00  0.00    +0.000 C 
ENDROOT
BRANCH   1   2
ATOM      2  C   UNL     1      44.331   4.357  12.044  0.00  0.00    +0.000 A 
ATOM      3  C   UNL     1      43.383   3.389  12.348  0.00  0.00    +0.000 A 
ATOM      4  N   UNL     1      43.119   2.321  11.567  0.00  0.00    +0.000 NA
ATOM      5  C   UNL     1      43.843   2.206  10.424  0.00  0.00    +0.000 A 
ATOM      6  C   UNL     1      44.818   3.109   9.994  0.00  0.00    +0.000 A 
ATOM      7  C   UNL     1      45.037   4.202  10.846  0.00  0.00    +0.000 A 
BRANCH   6   8
ATOM      8  C   UNL     1      45.573   2.922   8.739  0.00  0.00    +0.000 A 
ATOM      9  C   UNL     1      46.141   1.696   8.370  0.00  0.00    +0.000 A 
ATOM     10  C   UNL     1      46.851   1.563   7.175  0.00  0.00    +0.000 A 
ATOM     11  C   UNL     1      46.974   2.676   6.359  0.00  0.00    +0.000 A 
ATOM     12  N   UNL     1      46.451   3.876   6.659  0.00  0.00    +0.000 NA
ATOM     13  C   UNL     1      45.772   3.973   7.831  0.00  0.00    +0.000 A 
ENDBRANCH   6   8
ENDBRANCH   1   2
BRANCH   1  14
ATOM     14  N   UNL     1      44.390   6.808  12.296  0.00  0.00    +0.000 N 
ATOM     15  H   UNL     1      43.547   7.287  12.590  0.00  0.00    +0.000 HD
BRANCH  14  19
ATOM     16  C   UNL     1      47.721   9.347  12.233  0.00  0.00    +0.000 A 
ATOM     17  C   UNL     1      46.409   9.800  12.259  0.00  0.00    +0.000 A 
ATOM     18  N   UNL     1      45.305   9.009  12.241  0.00  0.00    +0.000 NA
ATOM     19  C   UNL     1      45.479   7.678  12.196  0.00  0.00    +0.000 A 
ATOM     20  C   UNL     1      46.757   7.132  12.183  0.00  0.00    +0.000 A 
ATOM     21  C   UNL     1      47.882   7.965  12.207  0.00  0.00    +0.000 A 
ATOM     22 CL   UNL     1      49.404   7.155  12.299  0.00  0.00    +0.000 Cl
BRANCH  16  24
ATOM     23  C   UNL     1      49.306  10.503  13.587  0.00  0.00    +0.000 C 
ATOM     24  O   UNL     1      48.664  10.328  12.330  0.00  0.00    +0.000 OA
ENDBRANCH  16  24
ENDBRANCH  14  19
ENDBRANCH   1  14
TORSDOF 5
ENDMDL
MODEL 6
REMARK VINA RESULT:    -6.486      2.758      3.375
REMARK INTER + INTRA:          -9.137
REMARK INTER:                  -8.569
REMARK INTRA:                  -0.568
REMARK UNBOUND:                -0.755
REMARK  Name = 
REMARK  6 active torsions:
REMARK  status: ('A' for Active; 'I' for Inactive)
REMARK    1  A    between atoms: C_1  and  O_2
REMARK    2  A    between atoms: O_2  and  C_3
REMARK    3  A    between atoms: C_6  and  N_7
REMARK    4  A    between atoms: N_7  and  C_8
REMARK    5  A    between atoms: C_8  and  C_9
REMARK    6  A    between atoms: C_13  and  C_14
REMARK                            x       y       z     vdW  Elec       q    Type
REMARK                         _______ _______ _______ _____ _____    ______ ____
ROOT
ATOM      1  C   UNL     1      45.902   6.396  12.933  0.00  0.00    +0.000 C 
ENDROOT
BRANCH   1   2
ATOM      2  C   UNL     1      45.098   5.722  11.852  0.00  0.00    +0.000 A 
ATOM      3  C   UNL     1      43.721   5.879  11.764  0.00  0.00    +0.000 A 
ATOM      4  N   UNL     1      42.954   5.293  10.821  0.00  0.00    +0.000 NA
ATOM      5  C   UNL     1      43.592   4.502   9.921  0.00  0.00    +0.000 A 
ATOM      6  C   UNL     1      44.968   4.265   9.888  0.00  0.00    +0.000 A 
ATOM      7  C   UNL     1      45.709   4.912  10.889  0.00  0.00    +0.000 A 
BRANCH   6   8
ATOM      8  C   UNL     1      45.599   3.389   8.881  0.00  0.00    +0.000 A 
ATOM      9  C   UNL     1      46.221   3.883   7.727  0.00  0.00    +0.000 A 
ATOM     10  C   UNL     1      46.803   3.019   6.798  0.00  0.00    +0.000 A 
ATOM     11  C   UNL     1      46.757   1.658   7.050  0.00  0.00    +0.000 A 
ATOM     12  N   UNL     1      46.176   1.126   8.138  0.00  0.00    +0.000 NA
ATOM     13  C   UNL     1      45.614   1.993   9.019  0.00  0.00    +0.000 A 
ENDBRANCH   6   8
ENDBRANCH   1   2
BRANCH   1  14
ATOM     14  N   UNL     1      47.234   5.821  13.077  0.00  0.00    +0.000 N 
ATOM     15  H   UNL     1      47.916   6.221  12.444  0.00  0.00    +0.000 HD
BRANCH  14  19
ATOM     16  C   UNL     1      48.543   5.381  17.032  0.00  0.00    +0.000 A 
ATOM     17  C   UNL     1      48.937   6.422  16.202  0.00  0.00    +0.000 A 
ATOM     18  N   UNL     1      48.565   6.577  14.906  0.00  0.00    +0.000 NA
ATOM     19  C   UNL     1      47.748   5.656  14.366  0.00  0.00    +0.000 A 
ATOM     20  C   UNL     1      47.290   4.587  15.125  0.00  0.00    +0.000 A 
ATOM     21  C   UNL     1      47.682   4.448  16.462  0.00  0.00    +0.000 A 
ATOM     22 CL   UNL     1      46.952   3.138  17.318  0.00  0.00    +0.000 Cl
BRANCH  16  24
ATOM     23  C   UNL     1      49.920   4.498  18.766  0.00  0.00    +0.000 C 
ATOM     24  O   UNL     1      48.990   5.477  18.318  0.00  0.00    +0.000 OA
ENDBRANCH  16  24
ENDBRANCH  14  19
ENDBRANCH   1  14
TORSDOF 5
ENDMDL
MODEL 7
REMARK VINA RESULT:    -6.445      3.428      7.176
REMARK INTER + INTRA:          -9.083
REMARK INTER:                  -8.430
REMARK INTRA:                  -0.654
REMARK UNBOUND:                -0.755
REMARK  Name = 
REMARK  6 active torsions:
REMARK  status: ('A' for Active; 'I' for Inactive)
REMARK    1  A    between atoms: C_1  and  O_2
REMARK    2  A    between atoms: O_2  and  C_3
REMARK    3  A    between atoms: C_6  and  N_7
REMARK    4  A    between atoms: N_7  and  C_8
REMARK    5  A    between atoms: C_8  and  C_9
REMARK    6  A    between atoms: C_13  and  C_14
REMARK                            x       y       z     vdW  Elec       q    Type
REMARK                         _______ _______ _______ _____ _____    ______ ____
ROOT
ATOM      1  C   UNL     1      44.872   4.596  10.993  0.00  0.00    +0.000 C 
ENDROOT
BRANCH   1   2
ATOM      2  C   UNL     1      45.325   5.973  11.404  0.00  0.00    +0.000 A 
ATOM      3  C   UNL     1      44.429   7.026  11.539  0.00  0.00    +0.000 A 
ATOM      4  N   UNL     1      44.784   8.277  11.896  0.00  0.00    +0.000 NA
ATOM      5  C   UNL     1      46.104   8.495  12.126  0.00  0.00    +0.000 A 
ATOM      6  C   UNL     1      47.108   7.529  12.036  0.00  0.00    +0.000 A 
ATOM      7  C   UNL     1      46.671   6.246  11.670  0.00  0.00    +0.000 A 
BRANCH   6   8
ATOM      8  C   UNL     1      48.529   7.834  12.296  0.00  0.00    +0.000 A 
ATOM      9  C   UNL     1      49.494   7.877  11.282  0.00  0.00    +0.000 A 
ATOM     10  C   UNL     1      50.829   8.167  11.572  0.00  0.00    +0.000 A 
ATOM     11  C   UNL     1      51.174   8.417  12.890  0.00  0.00    +0.000 A 
ATOM     12  N   UNL     1      50.294   8.391  13.903  0.00  0.00    +0.000 NA
ATOM     13  C   UNL     1      49.005   8.100  13.589  0.00  0.00    +0.000 A 
ENDBRANCH   6   8
ENDBRANCH   1   2
BRANCH   1  14
ATOM     14  N   UNL     1      44.463   4.538   9.595  0.00  0.00    +0.000 N 
ATOM     15  H   UNL     1      44.098   5.416   9.245  0.00  0.00    +0.000 HD
BRANCH  14  19
ATOM     16  C   UNL     1      47.177   2.615   7.048  0.00  0.00    +0.000 A 
ATOM     17  C   UNL     1      47.059   3.995   7.147  0.00  0.00    +0.000 A 
ATOM     18  N   UNL     1      46.167   4.653   7.931  0.00  0.00    +0.000 NA
ATOM     19  C   UNL     1      45.322   3.925   8.680  0.00  0.00    +0.000 A 
ATOM     20  C   UNL     1      45.375   2.536   8.657  0.00  0.00    +0.000 A 
ATOM     21  C   UNL     1      46.307   1.877   7.845  0.00  0.00    +0.000 A 
ATOM     22 CL   UNL     1      46.339   0.157   7.997  0.00  0.00    +0.000 Cl
BRANCH  16  24
ATOM     23  C   UNL     1      47.878   1.857   4.900  0.00  0.00    +0.000 C 
ATOM     24  O   UNL     1      48.194   2.186   6.247  0.00  0.00    +0.000 OA
ENDBRANCH  16  24
ENDBRANCH  14  19
ENDBRANCH   1  14
TORSDOF 5
ENDMDL
MODEL 8
REMARK VINA RESULT:    -6.271      3.292      5.003
REMARK INTER + INTRA:          -8.859
REMARK INTER:                  -8.278
REMARK INTRA:                  -0.580
REMARK UNBOUND:                -0.755
REMARK  Name = 
REMARK  6 active torsions:
REMARK  status: ('A' for Active; 'I' for Inactive)
REMARK    1  A    between atoms: C_1  and  O_2
REMARK    2  A    between atoms: O_2  and  C_3
REMARK    3  A    between atoms: C_6  and  N_7
REMARK    4  A    between atoms: N_7  and  C_8
REMARK    5  A    between atoms: C_8  and  C_9
REMARK    6  A    between atoms: C_13  and  C_14
REMARK                            x       y       z     vdW  Elec       q    Type
REMARK                         _______ _______ _______ _____ _____    ______ ____
ROOT
ATOM      1  C   UNL     1      48.348   7.321  13.617  0.00  0.00    +0.000 C 
ENDROOT
BRANCH   1   2
ATOM      2  C   UNL     1      47.079   7.287  12.804  0.00  0.00    +0.000 A 
ATOM      3  C   UNL     1      46.182   8.346  12.809  0.00  0.00    +0.000 A 
ATOM      4  N   UNL     1      45.030   8.362  12.106  0.00  0.00    +0.000 NA
ATOM      5  C   UNL     1      44.754   7.260  11.362  0.00  0.00    +0.000 A 
ATOM      6  C   UNL     1      45.570   6.131  11.259  0.00  0.00    +0.000 A 
ATOM      7  C   UNL     1      46.757   6.183  12.007  0.00  0.00    +0.000 A 
BRANCH   6   8
ATOM      8  C   UNL     1      45.207   4.962  10.434  0.00  0.00    +0.000 A 
ATOM      9  C   UNL     1      45.580   4.838   9.089  0.00  0.00    +0.000 A 
ATOM     10  C   UNL     1      45.213   3.716   8.343  0.00  0.00    +0.000 A 
ATOM     11  C   UNL     1      44.476   2.725   8.969  0.00  0.00    +0.000 A 
ATOM     12  N   UNL     1      44.092   2.788  10.254  0.00  0.00    +0.000 NA
ATOM     13  C   UNL     1      44.459   3.894  10.951  0.00  0.00    +0.000 A 
ENDBRANCH   6   8
ENDBRANCH   1   2
BRANCH   1  14
ATOM     14  N   UNL     1      48.094   7.243  15.050  0.00  0.00    +0.000 N 
ATOM     15  H   UNL     1      47.117   7.361  15.293  0.00  0.00    +0.000 HD
BRANCH  14  19
ATOM     16  C   UNL     1      49.744   4.206  17.417  0.00  0.00    +0.000 A 
ATOM     17  C   UNL     1      50.455   5.319  16.988  0.00  0.00    +0.000 A 
ATOM     18  N   UNL     1      49.966   6.303  16.189  0.00  0.00    +0.000 NA
ATOM     19  C   UNL     1      48.692   6.208  15.773  0.00  0.00    +0.000 A 
ATOM     20  C   UNL     1      47.898   5.136  16.164  0.00  0.00    +0.000 A 
ATOM     21  C   UNL     1      48.421   4.135  16.992  0.00  0.00    +0.000 A 
ATOM     22 CL   UNL     1      47.297   2.922  17.491  0.00  0.00    +0.000 Cl
BRANCH  16  24
ATOM     23  C   UNL     1      51.692   2.902  17.845  0.00  0.00    +0.000 C 
ATOM     24  O   UNL     1      50.426   3.390  18.272  0.00  0.00    +0.000 OA
ENDBRANCH  16  24
ENDBRANCH  14  19
ENDBRANCH   1  14
TORSDOF 5
ENDMDL
MODEL 9
REMARK VINA RESULT:    -6.188      4.063      6.281
REMARK INTER + INTRA:          -8.751
REMARK INTER:                  -8.351
REMARK INTRA:                  -0.400
REMARK UNBOUND:                -0.755
REMARK  Name = 
REMARK  6 active torsions:
REMARK  status: ('A' for Active; 'I' for Inactive)
REMARK    1  A    between atoms: C_1  and  O_2
REMARK    2  A    between atoms: O_2  and  C_3
REMARK    3  A    between atoms: C_6  and  N_7
REMARK    4  A    between atoms: N_7  and  C_8
REMARK    5  A    between atoms: C_8  and  C_9
REMARK    6  A    between atoms: C_13  and  C_14
REMARK                            x       y       z     vdW  Elec       q    Type
REMARK                         _______ _______ _______ _____ _____    ______ ____
ROOT
ATOM      1  C   UNL     1      48.820   6.543  15.503  0.00  0.00    +0.000 C 
ENDROOT
BRANCH   1   2
ATOM      2  C   UNL     1      48.207   6.636  14.130  0.00  0.00    +0.000 A 
ATOM      3  C   UNL     1      48.643   7.569  13.199  0.00  0.00    +0.000 A 
ATOM      4  N   UNL     1      48.122   7.699  11.961  0.00  0.00    +0.000 NA
ATOM      5  C   UNL     1      47.109   6.857  11.634  0.00  0.00    +0.000 A 
ATOM      6  C   UNL     1      46.580   5.869  12.467  0.00  0.00    +0.000 A 
ATOM      7  C   UNL     1      47.172   5.780  13.737  0.00  0.00    +0.000 A 
BRANCH   6   8
ATOM      8  C   UNL     1      45.472   4.987  12.050  0.00  0.00    +0.000 A 
ATOM      9  C   UNL     1      44.847   5.094  10.801  0.00  0.00    +0.000 A 
ATOM     10  C   UNL     1      43.799   4.241  10.447  0.00  0.00    +0.000 A 
ATOM     11  C   UNL     1      43.397   3.281  11.361  0.00  0.00    +0.000 A 
ATOM     12  N   UNL     1      43.959   3.131  12.572  0.00  0.00    +0.000 NA
ATOM     13  C   UNL     1      44.971   3.980  12.888  0.00  0.00    +0.000 A 
ENDBRANCH   6   8
ENDBRANCH   1   2
BRANCH   1  14
ATOM     14  N   UNL     1      48.123   5.593  16.362  0.00  0.00    +0.000 N 
ATOM     15  H   UNL     1      47.179   5.389  16.054  0.00  0.00    +0.000 HD
BRANCH  14  19
ATOM     16  C   UNL     1      50.357   2.209  17.414  0.00  0.00    +0.000 A 
ATOM     17  C   UNL     1      49.197   2.159  16.652  0.00  0.00    +0.000 A 
ATOM     18  N   UNL     1      48.427   3.228  16.324  0.00  0.00    +0.000 NA
ATOM     19  C   UNL     1      48.804   4.441  16.763  0.00  0.00    +0.000 A 
ATOM     20  C   UNL     1      49.960   4.591  17.519  0.00  0.00    +0.000 A 
ATOM     21  C   UNL     1      50.743   3.475  17.843  0.00  0.00    +0.000 A 
ATOM     22 CL   UNL     1      52.208   3.817  18.691  0.00  0.00    +0.000 Cl
BRANCH  16  24
ATOM     23  C   UNL     1      52.401   0.987  17.311  0.00  0.00    +0.000 C 
ATOM     24  O   UNL     1      50.999   1.013  17.553  0.00  0.00    +0.000 OA
ENDBRANCH  16  24
ENDBRANCH  14  19
ENDBRANCH   1  14
TORSDOF 5
ENDMDL
