MODEL 1
REMARK VINA RESULT:    -7.935      0.000      0.000
REMARK INTER + INTRA:         -11.451
REMARK INTER:                 -10.719
REMARK INTRA:                  -0.732
REMARK UNBOUND:                -0.732
REMARK  Name = 
REMARK  7 active torsions:
REMARK  status: ('A' for Active; 'I' for Inactive)
REMARK    1  A    between atoms: C_1  and  O_2
REMARK    2  A    between atoms: O_2  and  C_3
REMARK    3  A    between atoms: C_6  and  C_7
REMARK    4  A    between atoms: C_11  and  C_12
REMARK    5  A    between atoms: C_12  and  C_13
REMARK    6  A    between atoms: C_13  and  N_14
REMARK    7  A    between atoms: C_18  and  C_19
REMARK                            x       y       z     vdW  Elec       q    Type
REMARK                         _______ _______ _______ _____ _____    ______ ____
ROOT
ATOM      1  C   UNL     1      43.664   5.402  11.609  0.00  0.00    +0.000 C 
ENDROOT
BRANCH   1   6
ATOM      2  C   UNL     1      46.907   5.583  13.712  0.00  0.00    +0.000 A 
ATOM      3  C   UNL     1      47.705   6.348  12.850  0.00  0.00    +0.000 A 
ATOM      4  C   UNL     1      47.202   6.828  11.638  0.00  0.00    +0.000 A 
ATOM      5  C   UNL     1      45.894   6.534  11.249  0.00  0.00    +0.000 A 
ATOM      6  C   UNL     1      45.065   5.767  12.075  0.00  0.00    +0.000 A 
ATOM      7  C   UNL     1      45.586   5.326  13.304  0.00  0.00    +0.000 A 
BRANCH   2  11
ATOM      8  C   UNL     1      48.335   4.057  17.331  0.00  0.00    +0.000 A 
ATOM      9  C   UNL     1      48.856   5.212  16.771  0.00  0.00    +0.000 A 
ATOM     10  N   UNL     1      48.403   5.721  15.597  0.00  0.00    +0.000 NA
ATOM     11  C   UNL     1      47.403   5.029  14.983  0.00  0.00    +0.000 A 
ATOM     12  C   UNL     1      46.905   3.862  15.557  0.00  0.00    +0.000 A 
ATOM     13  N   UNL     1      47.347   3.358  16.734  0.00  0.00    +0.000 NA
BRANCH   8  15
ATOM     14  C   UNL     1      48.814   4.623  19.535  0.00  0.00    +0.000 C 
ATOM     15  O   UNL     1      48.863   3.618  18.524  0.00  0.00    +0.000 OA
ENDBRANCH   8  15
ENDBRANCH   2  11
ENDBRANCH   1   6
BRANCH   1  16
ATOM     16  C   UNL     1      43.626   4.738  10.225  0.00  0.00    +0.000 C 
BRANCH  16  17
ATOM     17  N   UNL     1      43.923   3.301  10.259  0.00  0.00    +0.000 N 
ATOM     18  C   UNL     1      44.852   2.958   9.246  0.00  0.00    +0.000 A 
ATOM     19  C   UNL     1      45.262   1.630   9.082  0.00  0.00    +0.000 A 
ATOM     20  N   UNL     1      46.158   1.214   8.144  0.00  0.00    +0.000 NA
ATOM     21  C   UNL     1      46.652   2.213   7.357  0.00  0.00    +0.000 A 
ATOM     22  C   UNL     1      46.268   3.531   7.507  0.00  0.00    +0.000 A 
ATOM     23  N   UNL     1      45.373   3.921   8.448  0.00  0.00    +0.000 NA
ATOM     24  H   UNL     1      43.083   2.742  10.128  0.00  0.00    +0.000 HD
BRANCH  21  25
ATOM     25  C   UNL     1      47.641   1.857   6.307  0.00  0.00    +0.000 C 
ATOM     26  N   UNL     1      48.803   2.579   6.312  0.00  0.00    +0.000 N 
ATOM     27  O   UNL     1      47.439   0.979   5.482  0.00  0.00    +0.000 OA
ATOM     28  H   UNL     1      48.939   3.316   6.996  0.00  0.00    +0.000 HD
ATOM     29  H   UNL     1      49.505   2.395   5.611  0.00  0.00    +0.000 HD
ENDBRANCH  21  25
ENDBRANCH  16  17
ENDBRANCH   1  16
TORSDOF 6
ENDMDL
MODEL 2
REMARK VINA RESULT:    -7.703      1.610      8.137
REMARK INTER + INTRA:         -11.137
REMARK INTER:                 -10.661
REMARK INTRA:                  -0.475
REMARK UNBOUND:                -0.732
REMARK  Name = 
REMARK  7 active torsions:
REMARK  status: ('A' for Active; 'I' for Inactive)
REMARK    1  A    between atoms: C_1  and  O_2
REMARK    2  A    between atoms: O_2  and  C_3
REMARK    3  A    between atoms: C_6  and  C_7
REMARK    4  A    between atoms: C_11  and  C_12
REMARK    5  A    between atoms: C_12  and  C_13
REMARK    6  A    between atoms: C_13  and  N_14
REMARK    7  A    between atoms: C_18  and  C_19
REMARK                            x       y       z     vdW  Elec       q    Type
REMARK                         _______ _______ _______ _____ _____    ______ ____
ROOT
ATOM      1  C   UNL     1      46.044   7.685  11.991  0.00  0.00    +0.000 C 
ENDROOT
BRANCH   1   6
ATOM      2  C   UNL     1      44.867   4.651   9.900  0.00  0.00    +0.000 A 
ATOM      3  C   UNL     1      43.524   4.595  10.299  0.00  0.00    +0.000 A 
ATOM      4  C   UNL     1      42.998   5.534  11.190  0.00  0.00    +0.000 A 
ATOM      5  C   UNL     1      43.809   6.538  11.720  0.00  0.00    +0.000 A 
ATOM      6  C   UNL     1      45.158   6.626  11.356  0.00  0.00    +0.000 A 
ATOM      7  C   UNL     1      45.652   5.688  10.431  0.00  0.00    +0.000 A 
BRANCH   2  11
ATOM      8  C   UNL     1      46.617   1.890   7.296  0.00  0.00    +0.000 A 
ATOM      9  C   UNL     1      46.657   3.252   7.048  0.00  0.00    +0.000 A 
ATOM     10  N   UNL     1      46.094   4.161   7.883  0.00  0.00    +0.000 NA
ATOM     11  C   UNL     1      45.473   3.664   8.989  0.00  0.00    +0.000 A 
ATOM     12  C   UNL     1      45.432   2.290   9.210  0.00  0.00    +0.000 A 
ATOM     13  N   UNL     1      46.003   1.380   8.384  0.00  0.00    +0.000 NA
BRANCH   8  15
ATOM     14  C   UNL     1      47.562   1.719   5.178  0.00  0.00    +0.000 C 
ATOM     15  O   UNL     1      47.214   1.046   6.386  0.00  0.00    +0.000 OA
ENDBRANCH   8  15
ENDBRANCH   2  11
ENDBRANCH   1   6
BRANCH   1  16
ATOM     16  C   UNL     1      47.540   7.340  11.961  0.00  0.00    +0.000 C 
BRANCH  16  17
ATOM     17  N   UNL     1      48.221   7.587  13.237  0.00  0.00    +0.000 N 
ATOM     18  C   UNL     1      48.048   6.489  14.116  0.00  0.00    +0.000 A 
ATOM     19  C   UNL     1      48.599   6.519  15.403  0.00  0.00    +0.000 A 
ATOM     20  N   UNL     1      48.492   5.506  16.307  0.00  0.00    +0.000 NA
ATOM     21  C   UNL     1      47.799   4.422  15.856  0.00  0.00    +0.000 A 
ATOM     22  C   UNL     1      47.254   4.367  14.588  0.00  0.00    +0.000 A 
ATOM     23  N   UNL     1      47.374   5.390  13.705  0.00  0.00    +0.000 NA
ATOM     24  H   UNL     1      47.868   8.424  13.694  0.00  0.00    +0.000 HD
BRANCH  21  25
ATOM     25  C   UNL     1      47.635   3.263  16.771  0.00  0.00    +0.000 C 
ATOM     26  N   UNL     1      48.706   2.417  16.861  0.00  0.00    +0.000 N 
ATOM     27  O   UNL     1      46.609   3.063  17.403  0.00  0.00    +0.000 OA
ATOM     28  H   UNL     1      49.540   2.595  16.311  0.00  0.00    +0.000 HD
ATOM     29  H   UNL     1      48.646   1.602  17.453  0.00  0.00    +0.000 HD
ENDBRANCH  21  25
ENDBRANCH  16  17
ENDBRANCH   1  16
TORSDOF 6
ENDMDL
MODEL 3
REMARK VINA RESULT:    -7.369      1.327      8.905
REMARK INTER + INTRA:         -10.685
REMARK INTER:                 -10.113
REMARK INTRA:                  -0.572
REMARK UNBOUND:                -0.732
REMARK  Name = 
REMARK  7 active torsions:
REMARK  status: ('A' for Active; 'I' for Inactive)
REMARK    1  A    between atoms: C_1  and  O_2
REMARK    2  A    between atoms: O_2  and  C_3
REMARK    3  A    between atoms: C_6  and  C_7
REMARK    4  A    between atoms: C_11  and  C_12
REMARK    5  A    between atoms: C_12  and  C_13
REMARK    6  A    between atoms: C_13  and  N_14
REMARK    7  A    between atoms: C_18  and  C_19
REMARK                            x       y       z     vdW  Elec       q    Type
REMARK                         _______ _______ _______ _____ _____    ______ ____
ROOT
ATOM      1  C   UNL     1      46.266   6.984  12.875  0.00  0.00    +0.000 C 
ENDROOT
BRANCH   1   6
ATOM      2  C   UNL     1      44.925   4.621  10.122  0.00  0.00    +0.000 A 
ATOM      3  C   UNL     1      43.550   4.711  10.380  0.00  0.00    +0.000 A 
ATOM      4  C   UNL     1      43.061   5.543  11.392  0.00  0.00    +0.000 A 
ATOM      5  C   UNL     1      43.939   6.286  12.182  0.00  0.00    +0.000 A 
ATOM      6  C   UNL     1      45.320   6.219  11.964  0.00  0.00    +0.000 A 
ATOM      7  C   UNL     1      45.782   5.400  10.918  0.00  0.00    +0.000 A 
BRANCH   2  11
ATOM      8  C   UNL     1      46.553   2.145   7.174  0.00  0.00    +0.000 A 
ATOM      9  C   UNL     1      46.581   3.525   7.063  0.00  0.00    +0.000 A 
ATOM     10  N   UNL     1      46.057   4.343   8.011  0.00  0.00    +0.000 NA
ATOM     11  C   UNL     1      45.489   3.734   9.089  0.00  0.00    +0.000 A 
ATOM     12  C   UNL     1      45.459   2.344   9.172  0.00  0.00    +0.000 A 
ATOM     13  N   UNL     1      45.991   1.525   8.233  0.00  0.00    +0.000 NA
BRANCH   8  15
ATOM     14  C   UNL     1      47.324   2.176   4.981  0.00  0.00    +0.000 C 
ATOM     15  O   UNL     1      47.107   1.400   6.158  0.00  0.00    +0.000 OA
ENDBRANCH   8  15
ENDBRANCH   2  11
ENDBRANCH   1   6
BRANCH   1  16
ATOM     16  C   UNL     1      47.300   6.096  13.581  0.00  0.00    +0.000 C 
BRANCH  16  17
ATOM     17  N   UNL     1      46.697   5.039  14.401  0.00  0.00    +0.000 N 
ATOM     18  C   UNL     1      47.408   4.883  15.617  0.00  0.00    +0.000 A 
ATOM     19  C   UNL     1      47.017   3.911  16.546  0.00  0.00    +0.000 A 
ATOM     20  N   UNL     1      47.634   3.701  17.741  0.00  0.00    +0.000 NA
ATOM     21  C   UNL     1      48.686   4.534  17.985  0.00  0.00    +0.000 A 
ATOM     22  C   UNL     1      49.083   5.505  17.087  0.00  0.00    +0.000 A 
ATOM     23  N   UNL     1      48.453   5.695  15.901  0.00  0.00    +0.000 NA
ATOM     24  H   UNL     1      46.691   4.145  13.915  0.00  0.00    +0.000 HD
BRANCH  21  25
ATOM     25  C   UNL     1      49.419   4.384  19.269  0.00  0.00    +0.000 C 
ATOM     26  N   UNL     1      48.688   3.908  20.322  0.00  0.00    +0.000 N 
ATOM     27  O   UNL     1      50.600   4.672  19.389  0.00  0.00    +0.000 OA
ATOM     28  H   UNL     1      47.704   3.694  20.200  0.00  0.00    +0.000 HD
ATOM     29  H   UNL     1      49.127   3.803  21.224  0.00  0.00    +0.000 HD
ENDBRANCH  21  25
ENDBRANCH  16  17
ENDBRANCH   1  16
TORSDOF 6
ENDMDL
MODEL 4
REMARK VINA RESULT:    -7.282      3.659      5.302
REMARK INTER + INTRA:         -10.568
REMARK INTER:                 -10.293
REMARK INTRA:                  -0.274
REMARK UNBOUND:                -0.732
REMARK  Name = 
REMARK  7 active torsions:
REMARK  status: ('A' for Active; 'I' for Inactive)
REMARK    1  A    between atoms: C_1  and  O_2
REMARK    2  A    between atoms: O_2  and  C_3
REMARK    3  A    between atoms: C_6  and  C_7
REMARK    4  A    between atoms: C_11  and  C_12
REMARK    5  A    between atoms: C_12  and  C_13
REMARK    6  A    between atoms: C_13  and  N_14
REMARK    7  A    between atoms: C_18  and  C_19
REMARK                            x       y       z     vdW  Elec       q    Type
REMARK                         _______ _______ _______ _____ _____    ______ ____
ROOT
ATOM      1  C   UNL     1      43.787   3.724  12.561  0.00  0.00    +0.000 C 
ENDROOT
BRANCH   1   6
ATOM      2  C   UNL     1      45.810   7.021  12.468  0.00  0.00    +0.000 A 
ATOM      3  C   UNL     1      46.993   6.591  13.085  0.00  0.00    +0.000 A 
ATOM      4  C   UNL     1      47.153   5.262  13.488  0.00  0.00    +0.000 A 
ATOM      5  C   UNL     1      46.123   4.338  13.303  0.00  0.00    +0.000 A 
ATOM      6  C   UNL     1      44.922   4.727  12.698  0.00  0.00    +0.000 A 
ATOM      7  C   UNL     1      44.802   6.061  12.272  0.00  0.00    +0.000 A 
BRANCH   2  11
ATOM      8  C   UNL     1      45.116  10.971  11.293  0.00  0.00    +0.000 A 
ATOM      9  C   UNL     1      44.222   9.956  10.997  0.00  0.00    +0.000 A 
ATOM     10  N   UNL     1      44.433   8.669  11.371  0.00  0.00    +0.000 NA
ATOM     11  C   UNL     1      45.583   8.417  12.056  0.00  0.00    +0.000 A 
ATOM     12  C   UNL     1      46.474   9.451  12.329  0.00  0.00    +0.000 A 
ATOM     13  N   UNL     1      46.263  10.739  11.967  0.00  0.00    +0.000 NA
BRANCH   8  15
ATOM     14  C   UNL     1      43.410  12.460  10.764  0.00  0.00    +0.000 C 
ATOM     15  O   UNL     1      44.816  12.246  10.867  0.00  0.00    +0.000 OA
ENDBRANCH   8  15
ENDBRANCH   2  11
ENDBRANCH   1   6
BRANCH   1  16
ATOM     16  C   UNL     1      43.510   3.297  11.113  0.00  0.00    +0.000 C 
BRANCH  16  17
ATOM     17  N   UNL     1      44.021   4.245  10.117  0.00  0.00    +0.000 N 
ATOM     18  C   UNL     1      44.906   3.599   9.219  0.00  0.00    +0.000 A 
ATOM     19  C   UNL     1      45.530   4.322   8.196  0.00  0.00    +0.000 A 
ATOM     20  N   UNL     1      46.383   3.780   7.283  0.00  0.00    +0.000 NA
ATOM     21  C   UNL     1      46.588   2.441   7.432  0.00  0.00    +0.000 A 
ATOM     22  C   UNL     1      45.977   1.705   8.429  0.00  0.00    +0.000 A 
ATOM     23  N   UNL     1      45.131   2.268   9.327  0.00  0.00    +0.000 NA
ATOM     24  H   UNL     1      44.516   5.019  10.555  0.00  0.00    +0.000 HD
BRANCH  21  25
ATOM     25  C   UNL     1      47.500   1.758   6.478  0.00  0.00    +0.000 C 
ATOM     26  N   UNL     1      48.564   2.496   6.037  0.00  0.00    +0.000 N 
ATOM     27  O   UNL     1      47.318   0.611   6.099  0.00  0.00    +0.000 OA
ATOM     28  H   UNL     1      48.683   3.453   6.352  0.00  0.00    +0.000 HD
ATOM     29  H   UNL     1      49.207   2.092   5.374  0.00  0.00    +0.000 HD
ENDBRANCH  21  25
ENDBRANCH  16  17
ENDBRANCH   1  16
TORSDOF 6
ENDMDL
MODEL 5
REMARK VINA RESULT:    -6.447      5.421      7.809
REMARK INTER + INTRA:          -9.440
REMARK INTER:                  -8.808
REMARK INTRA:                  -0.631
REMARK UNBOUND:                -0.732
REMARK  Name = 
REMARK  7 active torsions:
REMARK  status: ('A' for Active; 'I' for Inactive)
REMARK    1  A    between atoms: C_1  and  O_2
REMARK    2  A    between atoms: O_2  and  C_3
REMARK    3  A    between atoms: C_6  and  C_7
REMARK    4  A    between atoms: C_11  and  C_12
REMARK    5  A    between atoms: C_12  and  C_13
REMARK    6  A    between atoms: C_13  and  N_14
REMARK    7  A    between atoms: C_18  and  C_19
REMARK                            x       y       z     vdW  Elec       q    Type
REMARK                         _______ _______ _______ _____ _____    ______ ____
ROOT
ATOM      1  C   UNL     1      47.396   9.153  13.162  0.00  0.00    +0.000 C 
ENDROOT
BRANCH   1   6
ATOM      2  C   UNL     1      44.552  10.974  11.276  0.00  0.00    +0.000 A 
ATOM      3  C   UNL     1      45.313  11.832  10.470  0.00  0.00    +0.000 A 
ATOM      4  C   UNL     1      46.710  11.801  10.503  0.00  0.00    +0.000 A 
ATOM      5  C   UNL     1      47.377  10.924  11.360  0.00  0.00    +0.000 A 
ATOM      6  C   UNL     1      46.656  10.056  12.188  0.00  0.00    +0.000 A 
ATOM      7  C   UNL     1      45.252  10.086  12.109  0.00  0.00    +0.000 A 
BRANCH   2  11
ATOM      8  C   UNL     1      40.375  11.078  11.363  0.00  0.00    +0.000 A 
ATOM      9  C   UNL     1      41.141  11.905  12.168  0.00  0.00    +0.000 A 
ATOM     10  N   UNL     1      42.497  11.883  12.152  0.00  0.00    +0.000 NA
ATOM     11  C   UNL     1      43.079  10.995  11.299  0.00  0.00    +0.000 A 
ATOM     12  C   UNL     1      42.288  10.163  10.510  0.00  0.00    +0.000 A 
ATOM     13  N   UNL     1      40.934  10.189  10.516  0.00  0.00    +0.000 NA
BRANCH   8  15
ATOM     14  C   UNL     1      38.381   9.889  11.508  0.00  0.00    +0.000 C 
ATOM     15  O   UNL     1      39.004  11.171  11.454  0.00  0.00    +0.000 OA
ENDBRANCH   8  15
ENDBRANCH   2  11
ENDBRANCH   1   6
BRANCH   1  16
ATOM     16  C   UNL     1      47.612   7.726  12.641  0.00  0.00    +0.000 C 
BRANCH  16  17
ATOM     17  N   UNL     1      47.189   6.688  13.589  0.00  0.00    +0.000 N 
ATOM     18  C   UNL     1      46.364   5.731  12.947  0.00  0.00    +0.000 A 
ATOM     19  C   UNL     1      45.827   4.660  13.671  0.00  0.00    +0.000 A 
ATOM     20  N   UNL     1      45.036   3.691  13.133  0.00  0.00    +0.000 NA
ATOM     21  C   UNL     1      44.802   3.833  11.798  0.00  0.00    +0.000 A 
ATOM     22  C   UNL     1      45.328   4.877  11.062  0.00  0.00    +0.000 A 
ATOM     23  N   UNL     1      46.114   5.831  11.620  0.00  0.00    +0.000 NA
ATOM     24  H   UNL     1      46.674   7.084  14.372  0.00  0.00    +0.000 HD
BRANCH  21  25
ATOM     25  C   UNL     1      43.954   2.819  11.120  0.00  0.00    +0.000 C 
ATOM     26  N   UNL     1      44.462   2.291   9.965  0.00  0.00    +0.000 N 
ATOM     27  O   UNL     1      42.865   2.475  11.555  0.00  0.00    +0.000 OA
ATOM     28  H   UNL     1      45.359   2.607   9.615  0.00  0.00    +0.000 HD
ATOM     29  H   UNL     1      43.922   1.611   9.451  0.00  0.00    +0.000 HD
ENDBRANCH  21  25
ENDBRANCH  16  17
ENDBRANCH   1  16
TORSDOF 6
ENDMDL
MODEL 6
REMARK VINA RESULT:    -6.391      3.260      7.976
REMARK INTER + INTRA:          -9.364
REMARK INTER:                  -8.494
REMARK INTRA:                  -0.870
REMARK UNBOUND:                -0.732
REMARK  Name = 
REMARK  7 active torsions:
REMARK  status: ('A' for Active; 'I' for Inactive)
REMARK    1  A    between atoms: C_1  and  O_2
REMARK    2  A    between atoms: O_2  and  C_3
REMARK    3  A    between atoms: C_6  and  C_7
REMARK    4  A    between atoms: C_11  and  C_12
REMARK    5  A    between atoms: C_12  and  C_13
REMARK    6  A    between atoms: C_13  and  N_14
REMARK    7  A    between atoms: C_18  and  C_19
REMARK                            x       y       z     vdW  Elec       q    Type
REMARK                         _______ _______ _______ _____ _____    ______ ____
ROOT
ATOM      1  C   UNL     1      48.910   9.271  13.100  0.00  0.00    +0.000 C 
ENDROOT
BRANCH   1   6
ATOM      2  C   UNL     1      45.537   7.961  11.731  0.00  0.00    +0.000 A 
ATOM      3  C   UNL     1      44.898   9.181  11.467  0.00  0.00    +0.000 A 
ATOM      4  C   UNL     1      45.550  10.398  11.688  0.00  0.00    +0.000 A 
ATOM      5  C   UNL     1      46.848  10.422  12.199  0.00  0.00    +0.000 A 
ATOM      6  C   UNL     1      47.520   9.227  12.484  0.00  0.00    +0.000 A 
ATOM      7  C   UNL     1      46.853   8.018  12.221  0.00  0.00    +0.000 A 
BRANCH   2  11
ATOM      8  C   UNL     1      43.627   4.283  11.193  0.00  0.00    +0.000 A 
ATOM      9  C   UNL     1      42.913   5.450  11.405  0.00  0.00    +0.000 A 
ATOM     10  N   UNL     1      43.517   6.652  11.581  0.00  0.00    +0.000 NA
ATOM     11  C   UNL     1      44.879   6.656  11.545  0.00  0.00    +0.000 A 
ATOM     12  C   UNL     1      45.577   5.467  11.346  0.00  0.00    +0.000 A 
ATOM     13  N   UNL     1      44.976   4.268  11.159  0.00  0.00    +0.000 NA
BRANCH   8  15
ATOM     14  C   UNL     1      43.378   2.084  11.906  0.00  0.00    +0.000 C 
ATOM     15  O   UNL     1      42.923   3.111  11.028  0.00  0.00    +0.000 OA
ENDBRANCH   8  15
ENDBRANCH   2  11
ENDBRANCH   1   6
BRANCH   1  16
ATOM     16  C   UNL     1      49.515   7.885  13.360  0.00  0.00    +0.000 C 
BRANCH  16  17
ATOM     17  N   UNL     1      50.102   7.748  14.698  0.00  0.00    +0.000 N 
ATOM     18  C   UNL     1      49.432   6.742  15.437  0.00  0.00    +0.000 A 
ATOM     19  C   UNL     1      49.815   6.456  16.753  0.00  0.00    +0.000 A 
ATOM     20  N   UNL     1      49.235   5.500  17.531  0.00  0.00    +0.000 NA
ATOM     21  C   UNL     1      48.229   4.812  16.918  0.00  0.00    +0.000 A 
ATOM     22  C   UNL     1      47.840   5.071  15.619  0.00  0.00    +0.000 A 
ATOM     23  N   UNL     1      48.434   6.029  14.864  0.00  0.00    +0.000 NA
ATOM     24  H   UNL     1      50.052   8.619  15.221  0.00  0.00    +0.000 HD
BRANCH  21  25
ATOM     25  C   UNL     1      47.539   3.743  17.686  0.00  0.00    +0.000 C 
ATOM     26  N   UNL     1      48.075   3.445  18.909  0.00  0.00    +0.000 N 
ATOM     27  O   UNL     1      46.556   3.156  17.259  0.00  0.00    +0.000 OA
ATOM     28  H   UNL     1      48.903   3.934  19.232  0.00  0.00    +0.000 HD
ATOM     29  H   UNL     1      47.660   2.715  19.468  0.00  0.00    +0.000 HD
ENDBRANCH  21  25
ENDBRANCH  16  17
ENDBRANCH   1  16
TORSDOF 6
ENDMDL
MODEL 7
REMARK VINA RESULT:    -6.245      4.081      5.759
REMARK INTER + INTRA:          -9.167
REMARK INTER:                  -8.375
REMARK INTRA:                  -0.792
REMARK UNBOUND:                -0.732
REMARK  Name = 
REMARK  7 active torsions:
REMARK  status: ('A' for Active; 'I' for Inactive)
REMARK    1  A    between atoms: C_1  and  O_2
REMARK    2  A    between atoms: O_2  and  C_3
REMARK    3  A    between atoms: C_6  and  C_7
REMARK    4  A    between atoms: C_11  and  C_12
REMARK    5  A    between atoms: C_12  and  C_13
REMARK    6  A    between atoms: C_13  and  N_14
REMARK    7  A    between atoms: C_18  and  C_19
REMARK                            x       y       z     vdW  Elec       q    Type
REMARK                         _______ _______ _______ _____ _____    ______ ____
ROOT
ATOM      1  C   UNL     1      48.817   8.902  14.241  0.00  0.00    +0.000 C 
ENDROOT
BRANCH   1   6
ATOM      2  C   UNL     1      49.194   6.242  17.025  0.00  0.00    +0.000 A 
ATOM      3  C   UNL     1      48.738   6.984  18.124  0.00  0.00    +0.000 A 
ATOM      4  C   UNL     1      48.284   8.296  17.969  0.00  0.00    +0.000 A 
ATOM      5  C   UNL     1      48.296   8.905  16.713  0.00  0.00    +0.000 A 
ATOM      6  C   UNL     1      48.750   8.204  15.590  0.00  0.00    +0.000 A 
ATOM      7  C   UNL     1      49.170   6.874  15.770  0.00  0.00    +0.000 A 
BRANCH   2  11
ATOM      8  C   UNL     1      50.625   2.328  17.336  0.00  0.00    +0.000 A 
ATOM      9  C   UNL     1      49.318   2.598  16.969  0.00  0.00    +0.000 A 
ATOM     10  N   UNL     1      48.837   3.863  16.864  0.00  0.00    +0.000 NA
ATOM     11  C   UNL     1      49.712   4.868  17.145  0.00  0.00    +0.000 A 
ATOM     12  C   UNL     1      51.018   4.572  17.527  0.00  0.00    +0.000 A 
ATOM     13  N   UNL     1      51.504   3.312  17.622  0.00  0.00    +0.000 NA
BRANCH   8  15
ATOM     14  C   UNL     1      52.414   0.882  17.681  0.00  0.00    +0.000 C 
ATOM     15  O   UNL     1      51.018   1.011  17.419  0.00  0.00    +0.000 OA
ENDBRANCH   8  15
ENDBRANCH   2  11
ENDBRANCH   1   6
BRANCH   1  16
ATOM     16  C   UNL     1      48.646   7.955  13.045  0.00  0.00    +0.000 C 
BRANCH  16  17
ATOM     17  N   UNL     1      47.473   8.263  12.220  0.00  0.00    +0.000 N 
ATOM     18  C   UNL     1      46.503   7.235  12.328  0.00  0.00    +0.000 A 
ATOM     19  C   UNL     1      45.306   7.313  11.605  0.00  0.00    +0.000 A 
ATOM     20  N   UNL     1      44.317   6.379  11.657  0.00  0.00    +0.000 NA
ATOM     21  C   UNL     1      44.574   5.334  12.495  0.00  0.00    +0.000 A 
ATOM     22  C   UNL     1      45.743   5.242  13.224  0.00  0.00    +0.000 A 
ATOM     23  N   UNL     1      46.715   6.185  13.155  0.00  0.00    +0.000 NA
ATOM     24  H   UNL     1      47.721   8.369  11.239  0.00  0.00    +0.000 HD
BRANCH  21  25
ATOM     25  C   UNL     1      43.548   4.267  12.624  0.00  0.00    +0.000 C 
ATOM     26  N   UNL     1      42.688   4.134  11.568  0.00  0.00    +0.000 N 
ATOM     27  O   UNL     1      43.464   3.550  13.609  0.00  0.00    +0.000 OA
ATOM     28  H   UNL     1      42.767   4.755  10.769  0.00  0.00    +0.000 HD
ATOM     29  H   UNL     1      41.959   3.438  11.606  0.00  0.00    +0.000 HD
ENDBRANCH  21  25
ENDBRANCH  16  17
ENDBRANCH   1  16
TORSDOF 6
ENDMDL
MODEL 8
REMARK VINA RESULT:    -6.181      2.025      8.864
REMARK INTER + INTRA:          -9.080
REMARK INTER:                  -8.557
REMARK INTRA:                  -0.524
REMARK UNBOUND:                -0.732
REMARK  Name = 
REMARK  7 active torsions:
REMARK  status: ('A' for Active; 'I' for Inactive)
REMARK    1  A    between atoms: C_1  and  O_2
REMARK    2  A    between atoms: O_2  and  C_3
REMARK    3  A    between atoms: C_6  and  C_7
REMARK    4  A    between atoms: C_11  and  C_12
REMARK    5  A    between atoms: C_12  and  C_13
REMARK    6  A    between atoms: C_13  and  N_14
REMARK    7  A    between atoms: C_18  and  C_19
REMARK                            x       y       z     vdW  Elec       q    Type
REMARK                         _______ _______ _______ _____ _____    ______ ____
ROOT
ATOM      1  C   UNL     1      45.371   7.716  11.854  0.00  0.00    +0.000 C 
ENDROOT
BRANCH   1   6
ATOM      2  C   UNL     1      44.720   4.365  10.035  0.00  0.00    +0.000 A 
ATOM      3  C   UNL     1      43.525   3.983  10.661  0.00  0.00    +0.000 A 
ATOM      4  C   UNL     1      42.921   4.802  11.619  0.00  0.00    +0.000 A 
ATOM      5  C   UNL     1      43.511   6.011  11.989  0.00  0.00    +0.000 A 
ATOM      6  C   UNL     1      44.708   6.427  11.394  0.00  0.00    +0.000 A 
ATOM      7  C   UNL     1      45.276   5.600  10.409  0.00  0.00    +0.000 A 
BRANCH   2  11
ATOM      8  C   UNL     1      46.702   2.011   7.207  0.00  0.00    +0.000 A 
ATOM      9  C   UNL     1      46.610   3.386   7.074  0.00  0.00    +0.000 A 
ATOM     10  N   UNL     1      45.971   4.165   7.983  0.00  0.00    +0.000 NA
ATOM     11  C   UNL     1      45.410   3.520   9.044  0.00  0.00    +0.000 A 
ATOM     12  C   UNL     1      45.502   2.134   9.149  0.00  0.00    +0.000 A 
ATOM     13  N   UNL     1      46.149   1.356   8.249  0.00  0.00    +0.000 NA
BRANCH   8  15
ATOM     14  C   UNL     1      47.621   2.102   5.073  0.00  0.00    +0.000 C 
ATOM     15  O   UNL     1      47.369   1.307   6.230  0.00  0.00    +0.000 OA
ENDBRANCH   8  15
ENDBRANCH   2  11
ENDBRANCH   1   6
BRANCH   1  16
ATOM     16  C   UNL     1      46.820   7.533  12.325  0.00  0.00    +0.000 C 
BRANCH  16  17
ATOM     17  N   UNL     1      47.284   8.603  13.215  0.00  0.00    +0.000 N 
ATOM     18  C   UNL     1      47.936   8.061  14.350  0.00  0.00    +0.000 A 
ATOM     19  C   UNL     1      48.442   8.905  15.346  0.00  0.00    +0.000 A 
ATOM     20  N   UNL     1      49.091   8.472  16.462  0.00  0.00    +0.000 NA
ATOM     21  C   UNL     1      49.228   7.118  16.542  0.00  0.00    +0.000 A 
ATOM     22  C   UNL     1      48.745   6.267  15.568  0.00  0.00    +0.000 A 
ATOM     23  N   UNL     1      48.101   6.722  14.464  0.00  0.00    +0.000 NA
ATOM     24  H   UNL     1      46.514   9.186  13.534  0.00  0.00    +0.000 HD
BRANCH  21  25
ATOM     25  C   UNL     1      49.929   6.550  17.723  0.00  0.00    +0.000 C 
ATOM     26  N   UNL     1      49.359   5.438  18.278  0.00  0.00    +0.000 N 
ATOM     27  O   UNL     1      50.949   7.042  18.182  0.00  0.00    +0.000 OA
ATOM     28  H   UNL     1      48.502   5.060  17.890  0.00  0.00    +0.000 HD
ATOM     29  H   UNL     1      49.781   5.019  19.093  0.00  0.00    +0.000 HD
ENDBRANCH  21  25
ENDBRANCH  16  17
ENDBRANCH   1  16
TORSDOF 6
ENDMDL
MODEL 9
REMARK VINA RESULT:    -6.163      3.891      8.059
REMARK INTER + INTRA:          -9.057
REMARK INTER:                  -8.133
REMARK INTRA:                  -0.924
REMARK UNBOUND:                -0.732
REMARK  Name = 
REMARK  7 active torsions:
REMARK  status: ('A' for Active; 'I' for Inactive)
REMARK    1  A    between atoms: C_1  and  O_2
REMARK    2  A    between atoms: O_2  and  C_3
REMARK    3  A    between atoms: C_6  and  C_7
REMARK    4  A    between atoms: C_11  and  C_12
REMARK    5  A    between atoms: C_12  and  C_13
REMARK    6  A    between atoms: C_13  and  N_14
REMARK    7  A    between atoms: C_18  and  C_19
REMARK                            x       y       z     vdW  Elec       q    Type
REMARK                         _______ _______ _______ _____ _____    ______ ____
ROOT
ATOM      1  C   UNL     1      48.849  10.097  15.234  0.00  0.00    +0.000 C 
ENDROOT
BRANCH   1   6
ATOM      2  C   UNL     1      47.483   7.321  12.913  0.00  0.00    +0.000 A 
ATOM      3  C   UNL     1      48.218   7.598  11.752  0.00  0.00    +0.000 A 
ATOM      4  C   UNL     1      49.160   8.631  11.727  0.00  0.00    +0.000 A 
ATOM      5  C   UNL     1      49.372   9.423  12.856  0.00  0.00    +0.000 A 
ATOM      6  C   UNL     1      48.653   9.185  14.034  0.00  0.00    +0.000 A 
ATOM      7  C   UNL     1      47.737   8.119  14.041  0.00  0.00    +0.000 A 
BRANCH   2  11
ATOM      8  C   UNL     1      44.541   4.356  13.070  0.00  0.00    +0.000 A 
ATOM      9  C   UNL     1      44.228   5.680  12.807  0.00  0.00    +0.000 A 
ATOM     10  N   UNL     1      45.171   6.654  12.752  0.00  0.00    +0.000 NA
ATOM     11  C   UNL     1      46.457   6.265  12.978  0.00  0.00    +0.000 A 
ATOM     12  C   UNL     1      46.746   4.931  13.255  0.00  0.00    +0.000 A 
ATOM     13  N   UNL     1      45.808   3.955  13.300  0.00  0.00    +0.000 NA
BRANCH   8  15
ATOM     14  C   UNL     1      43.347   2.767  11.862  0.00  0.00    +0.000 C 
ATOM     15  O   UNL     1      43.513   3.442  13.108  0.00  0.00    +0.000 OA
ENDBRANCH   8  15
ENDBRANCH   2  11
ENDBRANCH   1   6
BRANCH   1  16
ATOM     16  C   UNL     1      49.223   9.352  16.523  0.00  0.00    +0.000 C 
BRANCH  16  17
ATOM     17  N   UNL     1      50.400   8.488  16.377  0.00  0.00    +0.000 N 
ATOM     18  C   UNL     1      50.094   7.157  16.754  0.00  0.00    +0.000 A 
ATOM     19  C   UNL     1      51.080   6.165  16.713  0.00  0.00    +0.000 A 
ATOM     20  N   UNL     1      50.871   4.861  17.046  0.00  0.00    +0.000 NA
ATOM     21  C   UNL     1      49.592   4.576  17.425  0.00  0.00    +0.000 A 
ATOM     22  C   UNL     1      48.601   5.537  17.465  0.00  0.00    +0.000 A 
ATOM     23  N   UNL     1      48.834   6.830  17.128  0.00  0.00    +0.000 NA
ATOM     24  H   UNL     1      51.177   8.814  16.948  0.00  0.00    +0.000 HD
BRANCH  21  25
ATOM     25  C   UNL     1      49.266   3.176  17.801  0.00  0.00    +0.000 C 
ATOM     26  N   UNL     1      50.317   2.301  17.815  0.00  0.00    +0.000 N 
ATOM     27  O   UNL     1      48.131   2.817  18.077  0.00  0.00    +0.000 OA
ATOM     28  H   UNL     1      51.246   2.620  17.564  0.00  0.00    +0.000 HD
ATOM     29  H   UNL     1      50.152   1.333  18.045  0.00  0.00    +0.000 HD
ENDBRANCH  21  25
ENDBRANCH  16  17
ENDBRANCH   1  16
TORSDOF 6
ENDMDL
