MODEL 1
REMARK VINA RESULT:    -8.151      0.000      0.000
REMARK INTER + INTRA:         -10.995
REMARK INTER:                 -10.057
REMARK INTRA:                  -0.939
REMARK UNBOUND:                -0.939
REMARK  Name = 
REMARK  4 active torsions:
REMARK  status: ('A' for Active; 'I' for Inactive)
REMARK    1  A    between atoms: C_5  and  O_6
REMARK    2  A    between atoms: O_6  and  C_7
REMARK    3  A    between atoms: C_7  and  C_8
REMARK    4  A    between atoms: C_12  and  C_13
REMARK                            x       y       z     vdW  Elec       q    Type
REMARK                         _______ _______ _______ _____ _____    ______ ____
ROOT
ATOM      1  C   UNL     1      44.305   3.754  10.654  0.00  0.00    +0.000 A 
ATOM      2  C   UNL     1      43.541   3.377  11.767  0.00  0.00    +0.000 A 
ATOM      3  C   UNL     1      43.559   4.151  12.928  0.00  0.00    +0.000 A 
ATOM      4  C   UNL     1      44.334   5.307  12.985  0.00  0.00    +0.000 A 
ATOM      5  C   UNL     1      45.104   5.721  11.885  0.00  0.00    +0.000 A 
ATOM      6  C   UNL     1      45.075   4.916  10.733  0.00  0.00    +0.000 A 
ATOM      7  F   UNL     1      45.782   5.271   9.647  0.00  0.00    +0.000 F 
ENDROOT
BRANCH   5   8
ATOM      8  C   UNL     1      45.873   6.973  11.935  0.00  0.00    +0.000 A 
ATOM      9  C   UNL     1      45.231   8.218  12.025  0.00  0.00    +0.000 A 
ATOM     10  C   UNL     1      45.958   9.399  12.150  0.00  0.00    +0.000 A 
ATOM     11  C   UNL     1      47.352   9.356  12.168  0.00  0.00    +0.000 A 
ATOM     12  C   UNL     1      48.012   8.139  12.060  0.00  0.00    +0.000 A 
ATOM     13  C   UNL     1      47.280   6.959  11.932  0.00  0.00    +0.000 A 
ENDBRANCH   5   8
BRANCH   1  14
ATOM     14  C   UNL     1      44.320   2.957   9.376  0.00  0.00    +0.000 C 
BRANCH  14  15
ATOM     15  O   UNL     1      45.479   2.124   9.331  0.00  0.00    +0.000 OA
BRANCH  15  20
ATOM     16  F   UNL     1      47.908   2.108   4.405  0.00  0.00    +0.000 F 
ATOM     17  C   UNL     1      47.326   2.081   5.611  0.00  0.00    +0.000 A 
ATOM     18  C   UNL     1      47.407   0.930   6.385  0.00  0.00    +0.000 A 
ATOM     19  C   UNL     1      46.798   0.894   7.651  0.00  0.00    +0.000 A 
ATOM     20  C   UNL     1      46.115   2.019   8.120  0.00  0.00    +0.000 A 
ATOM     21  C   UNL     1      46.044   3.171   7.327  0.00  0.00    +0.000 A 
ATOM     22  C   UNL     1      46.649   3.204   6.070  0.00  0.00    +0.000 A 
ENDBRANCH  15  20
ENDBRANCH  14  15
ENDBRANCH   1  14
TORSDOF 4
ENDMDL
MODEL 2
REMARK VINA RESULT:    -7.974      1.210      1.766
REMARK INTER + INTRA:         -10.777
REMARK INTER:                  -9.710
REMARK INTRA:                  -1.067
REMARK UNBOUND:                -0.939
REMARK  Name = 
REMARK  4 active torsions:
REMARK  status: ('A' for Active; 'I' for Inactive)
REMARK    1  A    between atoms: C_5  and  O_6
REMARK    2  A    between atoms: O_6  and  C_7
REMARK    3  A    between atoms: C_7  and  C_8
REMARK    4  A    between atoms: C_12  and  C_13
REMARK                            x       y       z     vdW  Elec       q    Type
REMARK                         _______ _______ _______ _____ _____    ______ ____
ROOT
ATOM      1  C   UNL     1      45.038   4.302  11.338  0.00  0.00    +0.000 A 
ATOM      2  C   UNL     1      45.367   3.516  12.450  0.00  0.00    +0.000 A 
ATOM      3  C   UNL     1      46.287   3.980  13.392  0.00  0.00    +0.000 A 
ATOM      4  C   UNL     1      46.880   5.229  13.233  0.00  0.00    +0.000 A 
ATOM      5  C   UNL     1      46.565   6.049  12.135  0.00  0.00    +0.000 A 
ATOM      6  C   UNL     1      45.644   5.552  11.197  0.00  0.00    +0.000 A 
ATOM      7  F   UNL     1      45.296   6.298  10.135  0.00  0.00    +0.000 F 
ENDROOT
BRANCH   5   8
ATOM      8  C   UNL     1      47.152   7.391  12.007  0.00  0.00    +0.000 A 
ATOM      9  C   UNL     1      46.388   8.545  12.244  0.00  0.00    +0.000 A 
ATOM     10  C   UNL     1      46.962   9.813  12.198  0.00  0.00    +0.000 A 
ATOM     11  C   UNL     1      48.316   9.951  11.894  0.00  0.00    +0.000 A 
ATOM     12  C   UNL     1      49.089   8.826  11.636  0.00  0.00    +0.000 A 
ATOM     13  C   UNL     1      48.510   7.558  11.679  0.00  0.00    +0.000 A 
ENDBRANCH   5   8
BRANCH   1  14
ATOM     14  C   UNL     1      44.050   3.852  10.293  0.00  0.00    +0.000 C 
BRANCH  14  15
ATOM     15  O   UNL     1      44.456   2.600   9.740  0.00  0.00    +0.000 OA
BRANCH  15  20
ATOM     16  F   UNL     1      48.074   2.369   5.615  0.00  0.00    +0.000 F 
ATOM     17  C   UNL     1      47.186   2.457   6.614  0.00  0.00    +0.000 A 
ATOM     18  C   UNL     1      46.545   3.666   6.857  0.00  0.00    +0.000 A 
ATOM     19  C   UNL     1      45.613   3.766   7.904  0.00  0.00    +0.000 A 
ATOM     20  C   UNL     1      45.340   2.646   8.693  0.00  0.00    +0.000 A 
ATOM     21  C   UNL     1      45.994   1.435   8.433  0.00  0.00    +0.000 A 
ATOM     22  C   UNL     1      46.919   1.339   7.393  0.00  0.00    +0.000 A 
ENDBRANCH  15  20
ENDBRANCH  14  15
ENDBRANCH   1  14
TORSDOF 4
ENDMDL
MODEL 3
REMARK VINA RESULT:    -7.489      2.093      6.734
REMARK INTER + INTRA:         -10.179
REMARK INTER:                  -9.448
REMARK INTRA:                  -0.731
REMARK UNBOUND:                -0.939
REMARK  Name = 
REMARK  4 active torsions:
REMARK  status: ('A' for Active; 'I' for Inactive)
REMARK    1  A    between atoms: C_5  and  O_6
REMARK    2  A    between atoms: O_6  and  C_7
REMARK    3  A    between atoms: C_7  and  C_8
REMARK    4  A    between atoms: C_12  and  C_13
REMARK                            x       y       z     vdW  Elec       q    Type
REMARK                         _______ _______ _______ _____ _____    ______ ____
ROOT
ATOM      1  C   UNL     1      44.696   5.046  10.753  0.00  0.00    +0.000 A 
ATOM      2  C   UNL     1      43.822   4.208  11.458  0.00  0.00    +0.000 A 
ATOM      3  C   UNL     1      43.607   2.897  11.031  0.00  0.00    +0.000 A 
ATOM      4  C   UNL     1      44.264   2.413   9.903  0.00  0.00    +0.000 A 
ATOM      5  C   UNL     1      45.157   3.221   9.179  0.00  0.00    +0.000 A 
ATOM      6  C   UNL     1      45.345   4.541   9.625  0.00  0.00    +0.000 A 
ATOM      7  F   UNL     1      46.197   5.355   8.978  0.00  0.00    +0.000 F 
ENDROOT
BRANCH   5   8
ATOM      8  C   UNL     1      45.891   2.683   8.024  0.00  0.00    +0.000 A 
ATOM      9  C   UNL     1      46.109   3.459   6.875  0.00  0.00    +0.000 A 
ATOM     10  C   UNL     1      46.870   2.977   5.812  0.00  0.00    +0.000 A 
ATOM     11  C   UNL     1      47.414   1.695   5.874  0.00  0.00    +0.000 A 
ATOM     12  C   UNL     1      47.195   0.900   6.991  0.00  0.00    +0.000 A 
ATOM     13  C   UNL     1      46.431   1.384   8.052  0.00  0.00    +0.000 A 
ENDBRANCH   5   8
BRANCH   1  14
ATOM     14  C   UNL     1      44.967   6.468  11.172  0.00  0.00    +0.000 C 
BRANCH  14  15
ATOM     15  O   UNL     1      45.577   6.492  12.462  0.00  0.00    +0.000 OA
BRANCH  15  20
ATOM     16  F   UNL     1      50.856   7.878  13.070  0.00  0.00    +0.000 F 
ATOM     17  C   UNL     1      49.569   7.554  12.892  0.00  0.00    +0.000 A 
ATOM     18  C   UNL     1      48.942   7.874  11.694  0.00  0.00    +0.000 A 
ATOM     19  C   UNL     1      47.591   7.536  11.499  0.00  0.00    +0.000 A 
ATOM     20  C   UNL     1      46.891   6.881  12.515  0.00  0.00    +0.000 A 
ATOM     21  C   UNL     1      47.540   6.566  13.716  0.00  0.00    +0.000 A 
ATOM     22  C   UNL     1      48.881   6.902  13.906  0.00  0.00    +0.000 A 
ENDBRANCH  15  20
ENDBRANCH  14  15
ENDBRANCH   1  14
TORSDOF 4
ENDMDL
MODEL 4
REMARK VINA RESULT:    -7.426      1.561      2.527
REMARK INTER + INTRA:         -10.100
REMARK INTER:                  -9.278
REMARK INTRA:                  -0.822
REMARK UNBOUND:                -0.939
REMARK  Name = 
REMARK  4 active torsions:
REMARK  status: ('A' for Active; 'I' for Inactive)
REMARK    1  A    between atoms: C_5  and  O_6
REMARK    2  A    between atoms: O_6  and  C_7
REMARK    3  A    between atoms: C_7  and  C_8
REMARK    4  A    between atoms: C_12  and  C_13
REMARK                            x       y       z     vdW  Elec       q    Type
REMARK                         _______ _______ _______ _____ _____    ______ ____
ROOT
ATOM      1  C   UNL     1      45.040   4.851  12.033  0.00  0.00    +0.000 A 
ATOM      2  C   UNL     1      45.674   3.989  12.938  0.00  0.00    +0.000 A 
ATOM      3  C   UNL     1      46.857   4.377  13.569  0.00  0.00    +0.000 A 
ATOM      4  C   UNL     1      47.413   5.626  13.305  0.00  0.00    +0.000 A 
ATOM      5  C   UNL     1      46.799   6.521  12.412  0.00  0.00    +0.000 A 
ATOM      6  C   UNL     1      45.614   6.099  11.783  0.00  0.00    +0.000 A 
ATOM      7  F   UNL     1      44.978   6.919  10.929  0.00  0.00    +0.000 F 
ENDROOT
BRANCH   5   8
ATOM      8  C   UNL     1      47.361   7.860  12.185  0.00  0.00    +0.000 A 
ATOM      9  C   UNL     1      48.657   8.027  11.673  0.00  0.00    +0.000 A 
ATOM     10  C   UNL     1      49.162   9.293  11.385  0.00  0.00    +0.000 A 
ATOM     11  C   UNL     1      48.380  10.422  11.623  0.00  0.00    +0.000 A 
ATOM     12  C   UNL     1      47.101  10.285  12.148  0.00  0.00    +0.000 A 
ATOM     13  C   UNL     1      46.600   9.016  12.438  0.00  0.00    +0.000 A 
ENDBRANCH   5   8
BRANCH   1  14
ATOM     14  C   UNL     1      43.761   4.485  11.327  0.00  0.00    +0.000 C 
BRANCH  14  15
ATOM     15  O   UNL     1      43.896   4.702   9.922  0.00  0.00    +0.000 OA
BRANCH  15  20
ATOM     16  F   UNL     1      47.224   1.481   6.972  0.00  0.00    +0.000 F 
ATOM     17  C   UNL     1      46.400   2.240   7.705  0.00  0.00    +0.000 A 
ATOM     18  C   UNL     1      45.521   1.634   8.595  0.00  0.00    +0.000 A 
ATOM     19  C   UNL     1      44.653   2.424   9.368  0.00  0.00    +0.000 A 
ATOM     20  C   UNL     1      44.681   3.813   9.234  0.00  0.00    +0.000 A 
ATOM     21  C   UNL     1      45.574   4.408   8.332  0.00  0.00    +0.000 A 
ATOM     22  C   UNL     1      46.435   3.621   7.566  0.00  0.00    +0.000 A 
ENDBRANCH  15  20
ENDBRANCH  14  15
ENDBRANCH   1  14
TORSDOF 4
ENDMDL
MODEL 5
REMARK VINA RESULT:    -7.027      2.527      7.444
REMARK INTER + INTRA:          -9.609
REMARK INTER:                  -9.122
REMARK INTRA:                  -0.487
REMARK UNBOUND:                -0.939
REMARK  Name = 
REMARK  4 active torsions:
REMARK  status: ('A' for Active; 'I' for Inactive)
REMARK    1  A    between atoms: C_5  and  O_6
REMARK    2  A    between atoms: O_6  and  C_7
REMARK    3  A    between atoms: C_7  and  C_8
REMARK    4  A    between atoms: C_12  and  C_13
REMARK                            x       y       z     vdW  Elec       q    Type
REMARK                         _______ _______ _______ _____ _____    ______ ____
ROOT
ATOM      1  C   UNL     1      44.906   5.268  10.697  0.00  0.00    +0.000 A 
ATOM      2  C   UNL     1      43.969   4.513  11.415  0.00  0.00    +0.000 A 
ATOM      3  C   UNL     1      43.653   3.215  11.011  0.00  0.00    +0.000 A 
ATOM      4  C   UNL     1      44.271   2.661   9.893  0.00  0.00    +0.000 A 
ATOM      5  C   UNL     1      45.224   3.385   9.155  0.00  0.00    +0.000 A 
ATOM      6  C   UNL     1      45.514   4.693   9.579  0.00  0.00    +0.000 A 
ATOM      7  F   UNL     1      46.427   5.427   8.919  0.00  0.00    +0.000 F 
ENDROOT
BRANCH   5   8
ATOM      8  C   UNL     1      45.914   2.770   8.011  0.00  0.00    +0.000 A 
ATOM      9  C   UNL     1      46.148   3.492   6.830  0.00  0.00    +0.000 A 
ATOM     10  C   UNL     1      46.869   2.937   5.776  0.00  0.00    +0.000 A 
ATOM     11  C   UNL     1      47.356   1.634   5.878  0.00  0.00    +0.000 A 
ATOM     12  C   UNL     1      47.120   0.892   7.029  0.00  0.00    +0.000 A 
ATOM     13  C   UNL     1      46.395   1.450   8.081  0.00  0.00    +0.000 A 
ENDBRANCH   5   8
BRANCH   1  14
ATOM     14  C   UNL     1      45.287   6.671  11.090  0.00  0.00    +0.000 C 
BRANCH  14  15
ATOM     15  O   UNL     1      44.116   7.436  11.375  0.00  0.00    +0.000 OA
BRANCH  15  20
ATOM     16  F   UNL     1      44.235  12.903  10.872  0.00  0.00    +0.000 F 
ATOM     17  C   UNL     1      44.234  11.571  11.011  0.00  0.00    +0.000 A 
ATOM     18  C   UNL     1      45.268  10.955  11.706  0.00  0.00    +0.000 A 
ATOM     19  C   UNL     1      45.273   9.557  11.857  0.00  0.00    +0.000 A 
ATOM     20  C   UNL     1      44.238   8.800  11.304  0.00  0.00    +0.000 A 
ATOM     21  C   UNL     1      43.204   9.438  10.607  0.00  0.00    +0.000 A 
ATOM     22  C   UNL     1      43.201  10.826  10.459  0.00  0.00    +0.000 A 
ENDBRANCH  15  20
ENDBRANCH  14  15
ENDBRANCH   1  14
TORSDOF 4
ENDMDL
MODEL 6
REMARK VINA RESULT:    -6.293      4.335      7.736
REMARK INTER + INTRA:          -8.704
REMARK INTER:                  -7.635
REMARK INTRA:                  -1.068
REMARK UNBOUND:                -0.939
REMARK  Name = 
REMARK  4 active torsions:
REMARK  status: ('A' for Active; 'I' for Inactive)
REMARK    1  A    between atoms: C_5  and  O_6
REMARK    2  A    between atoms: O_6  and  C_7
REMARK    3  A    between atoms: C_7  and  C_8
REMARK    4  A    between atoms: C_12  and  C_13
REMARK                            x       y       z     vdW  Elec       q    Type
REMARK                         _______ _______ _______ _____ _____    ______ ____
ROOT
ATOM      1  C   UNL     1      47.594   7.461  13.628  0.00  0.00    +0.000 A 
ATOM      2  C   UNL     1      46.895   8.675  13.581  0.00  0.00    +0.000 A 
ATOM      3  C   UNL     1      45.761   8.803  12.778  0.00  0.00    +0.000 A 
ATOM      4  C   UNL     1      45.314   7.723  12.021  0.00  0.00    +0.000 A 
ATOM      5  C   UNL     1      45.984   6.488  12.052  0.00  0.00    +0.000 A 
ATOM      6  C   UNL     1      47.130   6.391  12.861  0.00  0.00    +0.000 A 
ATOM      7  F   UNL     1      47.802   5.230  12.938  0.00  0.00    +0.000 F 
ENDROOT
BRANCH   5   8
ATOM      8  C   UNL     1      45.472   5.336  11.295  0.00  0.00    +0.000 A 
ATOM      9  C   UNL     1      44.874   4.246  11.946  0.00  0.00    +0.000 A 
ATOM     10  C   UNL     1      44.319   3.190  11.226  0.00  0.00    +0.000 A 
ATOM     11  C   UNL     1      44.369   3.199   9.833  0.00  0.00    +0.000 A 
ATOM     12  C   UNL     1      44.974   4.256   9.166  0.00  0.00    +0.000 A 
ATOM     13  C   UNL     1      45.531   5.310   9.890  0.00  0.00    +0.000 A 
ENDBRANCH   5   8
BRANCH   1  14
ATOM     14  C   UNL     1      48.822   7.267  14.479  0.00  0.00    +0.000 C 
BRANCH  14  15
ATOM     15  O   UNL     1      48.446   7.029  15.835  0.00  0.00    +0.000 OA
BRANCH  15  20
ATOM     16  F   UNL     1      49.742   2.124  17.939  0.00  0.00    +0.000 F 
ATOM     17  C   UNL     1      49.397   3.308  17.416  0.00  0.00    +0.000 A 
ATOM     18  C   UNL     1      48.159   3.451  16.802  0.00  0.00    +0.000 A 
ATOM     19  C   UNL     1      47.790   4.690  16.251  0.00  0.00    +0.000 A 
ATOM     20  C   UNL     1      48.674   5.769  16.326  0.00  0.00    +0.000 A 
ATOM     21  C   UNL     1      49.918   5.607  16.949  0.00  0.00    +0.000 A 
ATOM     22  C   UNL     1      50.282   4.375  17.495  0.00  0.00    +0.000 A 
ENDBRANCH  15  20
ENDBRANCH  14  15
ENDBRANCH   1  14
TORSDOF 4
ENDMDL
MODEL 7
REMARK VINA RESULT:    -6.137      4.294      7.802
REMARK INTER + INTRA:          -8.511
REMARK INTER:                  -7.422
REMARK INTRA:                  -1.089
REMARK UNBOUND:                -0.939
REMARK  Name = 
REMARK  4 active torsions:
REMARK  status: ('A' for Active; 'I' for Inactive)
REMARK    1  A    between atoms: C_5  and  O_6
REMARK    2  A    between atoms: O_6  and  C_7
REMARK    3  A    between atoms: C_7  and  C_8
REMARK    4  A    between atoms: C_12  and  C_13
REMARK                            x       y       z     vdW  Elec       q    Type
REMARK                         _______ _______ _______ _____ _____    ______ ____
ROOT
ATOM      1  C   UNL     1      47.609   7.454  13.562  0.00  0.00    +0.000 A 
ATOM      2  C   UNL     1      46.938   8.683  13.532  0.00  0.00    +0.000 A 
ATOM      3  C   UNL     1      45.700   8.793  12.896  0.00  0.00    +0.000 A 
ATOM      4  C   UNL     1      45.123   7.680  12.292  0.00  0.00    +0.000 A 
ATOM      5  C   UNL     1      45.762   6.428  12.313  0.00  0.00    +0.000 A 
ATOM      6  C   UNL     1      47.013   6.349  12.951  0.00  0.00    +0.000 A 
ATOM      7  F   UNL     1      47.663   5.175  13.012  0.00  0.00    +0.000 F 
ENDROOT
BRANCH   5   8
ATOM      8  C   UNL     1      45.118   5.245  11.724  0.00  0.00    +0.000 A 
ATOM      9  C   UNL     1      45.159   5.007  10.341  0.00  0.00    +0.000 A 
ATOM     10  C   UNL     1      44.616   3.849   9.791  0.00  0.00    +0.000 A 
ATOM     11  C   UNL     1      44.003   2.909  10.619  0.00  0.00    +0.000 A 
ATOM     12  C   UNL     1      43.933   3.130  11.989  0.00  0.00    +0.000 A 
ATOM     13  C   UNL     1      44.474   4.293  12.535  0.00  0.00    +0.000 A 
ENDBRANCH   5   8
BRANCH   1  14
ATOM     14  C   UNL     1      48.945   7.278  14.236  0.00  0.00    +0.000 C 
BRANCH  14  15
ATOM     15  O   UNL     1      48.776   7.221  15.653  0.00  0.00    +0.000 OA
BRANCH  15  20
ATOM     16  F   UNL     1      49.484   2.356  18.102  0.00  0.00    +0.000 F 
ATOM     17  C   UNL     1      49.281   3.533  17.496  0.00  0.00    +0.000 A 
ATOM     18  C   UNL     1      48.060   3.787  16.883  0.00  0.00    +0.000 A 
ATOM     19  C   UNL     1      47.839   5.020  16.245  0.00  0.00    +0.000 A 
ATOM     20  C   UNL     1      48.853   5.980  16.233  0.00  0.00    +0.000 A 
ATOM     21  C   UNL     1      50.078   5.708  16.857  0.00  0.00    +0.000 A 
ATOM     22  C   UNL     1      50.294   4.483  17.489  0.00  0.00    +0.000 A 
ENDBRANCH  15  20
ENDBRANCH  14  15
ENDBRANCH   1  14
TORSDOF 4
ENDMDL
MODEL 8
REMARK VINA RESULT:    -6.069      4.534      7.097
REMARK INTER + INTRA:          -8.426
REMARK INTER:                  -7.547
REMARK INTRA:                  -0.879
REMARK UNBOUND:                -0.939
REMARK  Name = 
REMARK  4 active torsions:
REMARK  status: ('A' for Active; 'I' for Inactive)
REMARK    1  A    between atoms: C_5  and  O_6
REMARK    2  A    between atoms: O_6  and  C_7
REMARK    3  A    between atoms: C_7  and  C_8
REMARK    4  A    between atoms: C_12  and  C_13
REMARK                            x       y       z     vdW  Elec       q    Type
REMARK                         _______ _______ _______ _____ _____    ______ ____
ROOT
ATOM      1  C   UNL     1      46.408   4.552  13.132  0.00  0.00    +0.000 A 
ATOM      2  C   UNL     1      45.271   4.310  12.349  0.00  0.00    +0.000 A 
ATOM      3  C   UNL     1      44.782   5.298  11.494  0.00  0.00    +0.000 A 
ATOM      4  C   UNL     1      45.426   6.530  11.409  0.00  0.00    +0.000 A 
ATOM      5  C   UNL     1      46.575   6.804  12.171  0.00  0.00    +0.000 A 
ATOM      6  C   UNL     1      47.038   5.794  13.032  0.00  0.00    +0.000 A 
ATOM      7  F   UNL     1      48.140   5.996  13.774  0.00  0.00    +0.000 F 
ENDROOT
BRANCH   5   8
ATOM      8  C   UNL     1      47.282   8.086  12.031  0.00  0.00    +0.000 A 
ATOM      9  C   UNL     1      48.644   8.133  11.696  0.00  0.00    +0.000 A 
ATOM     10  C   UNL     1      49.295   9.346  11.488  0.00  0.00    +0.000 A 
ATOM     11  C   UNL     1      48.594  10.543  11.631  0.00  0.00    +0.000 A 
ATOM     12  C   UNL     1      47.250  10.524  11.982  0.00  0.00    +0.000 A 
ATOM     13  C   UNL     1      46.602   9.307  12.193  0.00  0.00    +0.000 A 
ENDBRANCH   5   8
BRANCH   1  14
ATOM     14  C   UNL     1      46.979   3.520  14.069  0.00  0.00    +0.000 C 
BRANCH  14  15
ATOM     15  O   UNL     1      46.695   3.876  15.422  0.00  0.00    +0.000 OA
BRANCH  15  20
ATOM     16  F   UNL     1      50.833   4.091  19.028  0.00  0.00    +0.000 F 
ATOM     17  C   UNL     1      49.829   4.006  18.144  0.00  0.00    +0.000 A 
ATOM     18  C   UNL     1      49.528   2.779  17.566  0.00  0.00    +0.000 A 
ATOM     19  C   UNL     1      48.476   2.683  16.638  0.00  0.00    +0.000 A 
ATOM     20  C   UNL     1      47.743   3.825  16.306  0.00  0.00    +0.000 A 
ATOM     21  C   UNL     1      48.061   5.053  16.899  0.00  0.00    +0.000 A 
ATOM     22  C   UNL     1      49.105   5.146  17.820  0.00  0.00    +0.000 A 
ENDBRANCH  15  20
ENDBRANCH  14  15
ENDBRANCH   1  14
TORSDOF 4
ENDMDL
MODEL 9
REMARK VINA RESULT:    -5.950      4.357      8.475
REMARK INTER + INTRA:          -8.279
REMARK INTER:                  -7.415
REMARK INTRA:                  -0.865
REMARK UNBOUND:                -0.939
REMARK  Name = 
REMARK  4 active torsions:
REMARK  status: ('A' for Active; 'I' for Inactive)
REMARK    1  A    between atoms: C_5  and  O_6
REMARK    2  A    between atoms: O_6  and  C_7
REMARK    3  A    between atoms: C_7  and  C_8
REMARK    4  A    between atoms: C_12  and  C_13
REMARK                            x       y       z     vdW  Elec       q    Type
REMARK                         _______ _______ _______ _____ _____    ______ ____
ROOT
ATOM      1  C   UNL     1      47.764   7.407  13.578  0.00  0.00    +0.000 A 
ATOM      2  C   UNL     1      47.109   8.646  13.584  0.00  0.00    +0.000 A 
ATOM      3  C   UNL     1      45.824   8.766  13.052  0.00  0.00    +0.000 A 
ATOM      4  C   UNL     1      45.183   7.652  12.516  0.00  0.00    +0.000 A 
ATOM      5  C   UNL     1      45.805   6.391  12.503  0.00  0.00    +0.000 A 
ATOM      6  C   UNL     1      47.103   6.303  13.035  0.00  0.00    +0.000 A 
ATOM      7  F   UNL     1      47.741   5.120  13.061  0.00  0.00    +0.000 F 
ENDROOT
BRANCH   5   8
ATOM      8  C   UNL     1      45.098   5.209  11.988  0.00  0.00    +0.000 A 
ATOM      9  C   UNL     1      44.422   4.333  12.851  0.00  0.00    +0.000 A 
ATOM     10  C   UNL     1      43.687   3.257  12.359  0.00  0.00    +0.000 A 
ATOM     11  C   UNL     1      43.631   3.027  10.985  0.00  0.00    +0.000 A 
ATOM     12  C   UNL     1      44.309   3.868  10.111  0.00  0.00    +0.000 A 
ATOM     13  C   UNL     1      45.046   4.942  10.608  0.00  0.00    +0.000 A 
ENDBRANCH   5   8
BRANCH   1  14
ATOM     14  C   UNL     1      49.148   7.222  14.141  0.00  0.00    +0.000 C 
BRANCH  14  15
ATOM     15  O   UNL     1      49.161   6.133  15.064  0.00  0.00    +0.000 OA
BRANCH  15  20
ATOM     16  F   UNL     1      47.343   6.799  20.204  0.00  0.00    +0.000 F 
ATOM     17  C   UNL     1      47.795   6.668  18.950  0.00  0.00    +0.000 A 
ATOM     18  C   UNL     1      48.357   7.764  18.307  0.00  0.00    +0.000 A 
ATOM     19  C   UNL     1      48.834   7.634  16.991  0.00  0.00    +0.000 A 
ATOM     20  C   UNL     1      48.737   6.402  16.341  0.00  0.00    +0.000 A 
ATOM     21  C   UNL     1      48.168   5.307  17.005  0.00  0.00    +0.000 A 
ATOM     22  C   UNL     1      47.696   5.439  18.311  0.00  0.00    +0.000 A 
ENDBRANCH  15  20
ENDBRANCH  14  15
ENDBRANCH   1  14
TORSDOF 4
ENDMDL
