MODEL 1
REMARK VINA RESULT:    -7.234      0.000      0.000
REMARK INTER + INTRA:         -10.880
REMARK INTER:                  -9.772
REMARK INTRA:                  -1.109
REMARK UNBOUND:                -1.109
REMARK  Name = 
REMARK  6 active torsions:
REMARK  status: ('A' for Active; 'I' for Inactive)
REMARK    1  A    between atoms: C_2  and  C_19
REMARK    2  A    between atoms: N_3  and  C_4
REMARK    3  A    between atoms: C_4  and  C_5
REMARK    4  A    between atoms: C_8  and  O_9
REMARK    5  A    between atoms: O_9  and  C_10
REMARK    6  A    between atoms: C_10  and  C_11
REMARK                            x       y       z     vdW  Elec       q    Type
REMARK                         _______ _______ _______ _____ _____    ______ ____
ROOT
ATOM      1  C   UNL     1      44.224   5.363  12.787  0.00  0.00    +0.000 C 
ENDROOT
BRANCH   1   2
ATOM      2  C   UNL     1      44.490   4.555  11.554  0.00  0.00    +0.000 A 
ATOM      3  C   UNL     1      44.120   3.210  11.464  0.00  0.00    +0.000 A 
ATOM      4  C   UNL     1      44.401   2.491  10.305  0.00  0.00    +0.000 A 
ATOM      5  C   UNL     1      45.016   3.154   9.256  0.00  0.00    +0.000 A 
ATOM      6  N   UNL     1      45.374   4.454   9.303  0.00  0.00    +0.000 NA
ATOM      7  C   UNL     1      45.104   5.123  10.442  0.00  0.00    +0.000 A 
BRANCH   5   8
ATOM      8  O   UNL     1      45.304   2.408   8.127  0.00  0.00    +0.000 OA
BRANCH   8   9
ATOM      9  C   UNL     1      45.684   3.237   7.021  0.00  0.00    +0.000 C 
BRANCH   9  10
ATOM     10  C   UNL     1      47.154   2.975   6.653  0.00  0.00    +0.000 C 
ATOM     11  C   UNL     1      47.377   2.908   5.132  0.00  0.00    +0.000 C 
ATOM     12  C   UNL     1      46.777   1.638   4.531  0.00  0.00    +0.000 C 
ATOM     13  C   UNL     1      47.231   0.389   5.286  0.00  0.00    +0.000 C 
ATOM     14  N   UNL     1      46.988   0.492   6.726  0.00  0.00    +0.000 NA
ATOM     15  C   UNL     1      47.644   1.669   7.298  0.00  0.00    +0.000 C 
ATOM     16  H   UNL     1      47.334  -0.348   7.187  0.00  0.00    +0.000 HD
ENDBRANCH   9  10
ENDBRANCH   8   9
ENDBRANCH   5   8
ENDBRANCH   1   2
BRANCH   1  19
ATOM     17  O   UNL     1      46.283   3.962  14.103  0.00  0.00    +0.000 OA
ATOM     18  C   UNL     1      46.405   5.169  13.922  0.00  0.00    +0.000 C 
ATOM     19  N   UNL     1      45.429   5.931  13.335  0.00  0.00    +0.000 N 
ATOM     20  H   UNL     1      45.626   6.897  13.101  0.00  0.00    +0.000 HD
BRANCH  18  21
ATOM     21  C   UNL     1      47.604   5.890  14.361  0.00  0.00    +0.000 A 
ATOM     22  C   UNL     1      48.072   5.735  15.658  0.00  0.00    +0.000 A 
ATOM     23  S   UNL     1      49.465   6.660  15.996  0.00  0.00    +0.000 S 
ATOM     24  C   UNL     1      49.517   7.264  14.406  0.00  0.00    +0.000 A 
ATOM     25  N   UNL     1      50.504   8.113  14.010  0.00  0.00    +0.000 NA
ATOM     26  C   UNL     1      50.446   8.457  12.767  0.00  0.00    +0.000 A 
ATOM     27  N   UNL     1      49.487   8.034  11.884  0.00  0.00    +0.000 N 
ATOM     28  C   UNL     1      48.438   7.226  12.252  0.00  0.00    +0.000 A 
ATOM     29  O   UNL     1      47.540   6.949  11.463  0.00  0.00    +0.000 OA
ATOM     30  C   UNL     1      48.475   6.784  13.634  0.00  0.00    +0.000 A 
ATOM     31  H   UNL     1      49.486   8.358  10.927  0.00  0.00    +0.000 HD
ENDBRANCH  18  21
ENDBRANCH   1  19
TORSDOF 6
ENDMDL
MODEL 2
REMARK VINA RESULT:    -7.170      4.274      6.849
REMARK INTER + INTRA:         -10.794
REMARK INTER:                  -9.917
REMARK INTRA:                  -0.877
REMARK UNBOUND:                -1.109
REMARK  Name = 
REMARK  6 active torsions:
REMARK  status: ('A' for Active; 'I' for Inactive)
REMARK    1  A    between atoms: C_2  and  C_19
REMARK    2  A    between atoms: N_3  and  C_4
REMARK    3  A    between atoms: C_4  and  C_5
REMARK    4  A    between atoms: C_8  and  O_9
REMARK    5  A    between atoms: O_9  and  C_10
REMARK    6  A    between atoms: C_10  and  C_11
REMARK                            x       y       z     vdW  Elec       q    Type
REMARK                         _______ _______ _______ _____ _____    ______ ____
ROOT
ATOM      1  C   UNL     1      49.580   6.727  16.358  0.00  0.00    +0.000 C 
ENDROOT
BRANCH   1   2
ATOM      2  C   UNL     1      48.513   6.017  15.582  0.00  0.00    +0.000 A 
ATOM      3  C   UNL     1      48.163   6.409  14.286  0.00  0.00    +0.000 A 
ATOM      4  C   UNL     1      47.154   5.733  13.607  0.00  0.00    +0.000 A 
ATOM      5  C   UNL     1      46.546   4.660  14.236  0.00  0.00    +0.000 A 
ATOM      6  N   UNL     1      46.868   4.245  15.480  0.00  0.00    +0.000 NA
ATOM      7  C   UNL     1      47.838   4.927  16.121  0.00  0.00    +0.000 A 
BRANCH   5   8
ATOM      8  O   UNL     1      45.531   4.022  13.547  0.00  0.00    +0.000 OA
BRANCH   8   9
ATOM      9  C   UNL     1      44.485   4.928  13.174  0.00  0.00    +0.000 C 
BRANCH   9  10
ATOM     10  C   UNL     1      43.361   4.162  12.456  0.00  0.00    +0.000 C 
ATOM     11  C   UNL     1      43.883   2.939  11.682  0.00  0.00    +0.000 C 
ATOM     12  C   UNL     1      44.682   3.353  10.447  0.00  0.00    +0.000 C 
ATOM     13  C   UNL     1      43.911   4.355   9.588  0.00  0.00    +0.000 C 
ATOM     14  N   UNL     1      43.445   5.507  10.363  0.00  0.00    +0.000 NA
ATOM     15  C   UNL     1      42.610   5.092  11.491  0.00  0.00    +0.000 C 
ATOM     16  H   UNL     1      42.913   6.128   9.755  0.00  0.00    +0.000 HD
ENDBRANCH   9  10
ENDBRANCH   8   9
ENDBRANCH   5   8
ENDBRANCH   1   2
BRANCH   1  19
ATOM     17  O   UNL     1      50.136   6.074  19.041  0.00  0.00    +0.000 OA
ATOM     18  C   UNL     1      50.778   5.528  18.149  0.00  0.00    +0.000 C 
ATOM     19  N   UNL     1      50.603   5.827  16.823  0.00  0.00    +0.000 N 
ATOM     20  H   UNL     1      51.071   5.265  16.120  0.00  0.00    +0.000 HD
BRANCH  18  21
ATOM     21  C   UNL     1      51.814   4.535  18.451  0.00  0.00    +0.000 A 
ATOM     22  C   UNL     1      52.911   4.888  19.224  0.00  0.00    +0.000 A 
ATOM     23  S   UNL     1      54.019   3.613  19.459  0.00  0.00    +0.000 S 
ATOM     24  C   UNL     1      53.048   2.531  18.574  0.00  0.00    +0.000 A 
ATOM     25  N   UNL     1      53.414   1.231  18.410  0.00  0.00    +0.000 NA
ATOM     26  C   UNL     1      52.563   0.514  17.756  0.00  0.00    +0.000 A 
ATOM     27  N   UNL     1      51.379   0.981  17.245  0.00  0.00    +0.000 N 
ATOM     28  C   UNL     1      50.997   2.297  17.333  0.00  0.00    +0.000 A 
ATOM     29  O   UNL     1      49.981   2.703  16.775  0.00  0.00    +0.000 OA
ATOM     30  C   UNL     1      51.904   3.140  18.088  0.00  0.00    +0.000 A 
ATOM     31  H   UNL     1      50.766   0.371  16.723  0.00  0.00    +0.000 HD
ENDBRANCH  18  21
ENDBRANCH   1  19
TORSDOF 6
ENDMDL
MODEL 3
REMARK VINA RESULT:    -7.167      5.174      9.280
REMARK INTER + INTRA:         -10.789
REMARK INTER:                  -9.801
REMARK INTRA:                  -0.988
REMARK UNBOUND:                -1.109
REMARK  Name = 
REMARK  6 active torsions:
REMARK  status: ('A' for Active; 'I' for Inactive)
REMARK    1  A    between atoms: C_2  and  C_19
REMARK    2  A    between atoms: N_3  and  C_4
REMARK    3  A    between atoms: C_4  and  C_5
REMARK    4  A    between atoms: C_8  and  O_9
REMARK    5  A    between atoms: O_9  and  C_10
REMARK    6  A    between atoms: C_10  and  C_11
REMARK                            x       y       z     vdW  Elec       q    Type
REMARK                         _______ _______ _______ _____ _____    ______ ____
ROOT
ATOM      1  C   UNL     1      47.321   3.530  16.821  0.00  0.00    +0.000 C 
ENDROOT
BRANCH   1   2
ATOM      2  C   UNL     1      48.794   3.572  17.088  0.00  0.00    +0.000 A 
ATOM      3  C   UNL     1      49.569   2.409  17.113  0.00  0.00    +0.000 A 
ATOM      4  C   UNL     1      50.933   2.491  17.382  0.00  0.00    +0.000 A 
ATOM      5  C   UNL     1      51.486   3.744  17.586  0.00  0.00    +0.000 A 
ATOM      6  N   UNL     1      50.771   4.888  17.555  0.00  0.00    +0.000 NA
ATOM      7  C   UNL     1      49.450   4.779  17.307  0.00  0.00    +0.000 A 
BRANCH   5   8
ATOM      8  O   UNL     1      52.838   3.793  17.875  0.00  0.00    +0.000 OA
BRANCH   8   9
ATOM      9  C   UNL     1      53.241   2.720  18.735  0.00  0.00    +0.000 C 
BRANCH   9  10
ATOM     10  C   UNL     1      54.664   2.264  18.370  0.00  0.00    +0.000 C 
ATOM     11  C   UNL     1      54.732   1.598  16.985  0.00  0.00    +0.000 C 
ATOM     12  C   UNL     1      54.061   0.224  16.988  0.00  0.00    +0.000 C 
ATOM     13  C   UNL     1      54.577  -0.651  18.130  0.00  0.00    +0.000 C 
ATOM     14  N   UNL     1      54.481   0.018  19.428  0.00  0.00    +0.000 NA
ATOM     15  C   UNL     1      55.204   1.292  19.430  0.00  0.00    +0.000 C 
ATOM     16  H   UNL     1      54.864  -0.591  20.150  0.00  0.00    +0.000 HD
ENDBRANCH   9  10
ENDBRANCH   8   9
ENDBRANCH   5   8
ENDBRANCH   1   2
BRANCH   1  19
ATOM     17  O   UNL     1      47.302   3.113  14.035  0.00  0.00    +0.000 OA
ATOM     18  C   UNL     1      46.900   4.183  14.480  0.00  0.00    +0.000 C 
ATOM     19  N   UNL     1      46.923   4.484  15.817  0.00  0.00    +0.000 N 
ATOM     20  H   UNL     1      46.471   5.330  16.145  0.00  0.00    +0.000 HD
BRANCH  18  21
ATOM     21  C   UNL     1      46.397   5.239  13.595  0.00  0.00    +0.000 A 
ATOM     22  C   UNL     1      47.202   6.325  13.283  0.00  0.00    +0.000 A 
ATOM     23  S   UNL     1      46.449   7.459  12.255  0.00  0.00    +0.000 S 
ATOM     24  C   UNL     1      45.036   6.515  12.156  0.00  0.00    +0.000 A 
ATOM     25  N   UNL     1      43.980   6.910  11.396  0.00  0.00    +0.000 NA
ATOM     26  C   UNL     1      42.994   6.077  11.377  0.00  0.00    +0.000 A 
ATOM     27  N   UNL     1      42.965   4.886  12.055  0.00  0.00    +0.000 N 
ATOM     28  C   UNL     1      43.982   4.475  12.882  0.00  0.00    +0.000 A 
ATOM     29  O   UNL     1      43.881   3.453  13.555  0.00  0.00    +0.000 OA
ATOM     30  C   UNL     1      45.130   5.361  12.913  0.00  0.00    +0.000 A 
ATOM     31  H   UNL     1      42.152   4.289  12.015  0.00  0.00    +0.000 HD
ENDBRANCH  18  21
ENDBRANCH   1  19
TORSDOF 6
ENDMDL
MODEL 4
REMARK VINA RESULT:    -7.095      3.558      5.436
REMARK INTER + INTRA:         -10.692
REMARK INTER:                  -9.913
REMARK INTRA:                  -0.779
REMARK UNBOUND:                -1.109
REMARK  Name = 
REMARK  6 active torsions:
REMARK  status: ('A' for Active; 'I' for Inactive)
REMARK    1  A    between atoms: C_2  and  C_19
REMARK    2  A    between atoms: N_3  and  C_4
REMARK    3  A    between atoms: C_4  and  C_5
REMARK    4  A    between atoms: C_8  and  O_9
REMARK    5  A    between atoms: O_9  and  C_10
REMARK    6  A    between atoms: C_10  and  C_11
REMARK                            x       y       z     vdW  Elec       q    Type
REMARK                         _______ _______ _______ _____ _____    ______ ____
ROOT
ATOM      1  C   UNL     1      48.825   6.923  14.276  0.00  0.00    +0.000 C 
ENDROOT
BRANCH   1   2
ATOM      2  C   UNL     1      47.712   6.279  13.508  0.00  0.00    +0.000 A 
ATOM      3  C   UNL     1      47.271   6.791  12.285  0.00  0.00    +0.000 A 
ATOM      4  C   UNL     1      46.222   6.171  11.612  0.00  0.00    +0.000 A 
ATOM      5  C   UNL     1      45.667   5.032  12.172  0.00  0.00    +0.000 A 
ATOM      6  N   UNL     1      46.077   4.502  13.344  0.00  0.00    +0.000 NA
ATOM      7  C   UNL     1      47.084   5.131  13.982  0.00  0.00    +0.000 A 
BRANCH   5   8
ATOM      8  O   UNL     1      44.611   4.451  11.494  0.00  0.00    +0.000 OA
BRANCH   8   9
ATOM      9  C   UNL     1      44.948   3.154  10.988  0.00  0.00    +0.000 C 
BRANCH   9  10
ATOM     10  C   UNL     1      44.225   2.910   9.652  0.00  0.00    +0.000 C 
ATOM     11  C   UNL     1      44.877   1.788   8.826  0.00  0.00    +0.000 C 
ATOM     12  C   UNL     1      46.230   2.217   8.262  0.00  0.00    +0.000 C 
ATOM     13  C   UNL     1      46.136   3.557   7.532  0.00  0.00    +0.000 C 
ATOM     14  N   UNL     1      45.522   4.597   8.359  0.00  0.00    +0.000 NA
ATOM     15  C   UNL     1      44.190   4.201   8.819  0.00  0.00    +0.000 C 
ATOM     16  H   UNL     1      45.454   5.459   7.821  0.00  0.00    +0.000 HD
ENDBRANCH   9  10
ENDBRANCH   8   9
ENDBRANCH   5   8
ENDBRANCH   1   2
BRANCH   1  19
ATOM     17  O   UNL     1      50.153   5.711  16.444  0.00  0.00    +0.000 OA
ATOM     18  C   UNL     1      49.232   6.489  16.669  0.00  0.00    +0.000 C 
ATOM     19  N   UNL     1      48.504   7.082  15.671  0.00  0.00    +0.000 N 
ATOM     20  H   UNL     1      47.835   7.806  15.905  0.00  0.00    +0.000 HD
BRANCH  18  21
ATOM     21  C   UNL     1      48.821   6.813  18.040  0.00  0.00    +0.000 A 
ATOM     22  C   UNL     1      48.459   8.112  18.367  0.00  0.00    +0.000 A 
ATOM     23  S   UNL     1      48.025   8.306  20.006  0.00  0.00    +0.000 S 
ATOM     24  C   UNL     1      48.263   6.650  20.323  0.00  0.00    +0.000 A 
ATOM     25  N   UNL     1      48.036   6.133  21.560  0.00  0.00    +0.000 NA
ATOM     26  C   UNL     1      48.213   4.857  21.647  0.00  0.00    +0.000 A 
ATOM     27  N   UNL     1      48.603   4.051  20.609  0.00  0.00    +0.000 N 
ATOM     28  C   UNL     1      48.901   4.537  19.359  0.00  0.00    +0.000 A 
ATOM     29  O   UNL     1      49.347   3.804  18.481  0.00  0.00    +0.000 OA
ATOM     30  C   UNL     1      48.687   5.963  19.199  0.00  0.00    +0.000 A 
ATOM     31  H   UNL     1      48.744   3.061  20.749  0.00  0.00    +0.000 HD
ENDBRANCH  18  21
ENDBRANCH   1  19
TORSDOF 6
ENDMDL
MODEL 5
REMARK VINA RESULT:    -6.995      3.644      8.774
REMARK INTER + INTRA:         -10.557
REMARK INTER:                  -9.167
REMARK INTRA:                  -1.390
REMARK UNBOUND:                -1.109
REMARK  Name = 
REMARK  6 active torsions:
REMARK  status: ('A' for Active; 'I' for Inactive)
REMARK    1  A    between atoms: C_2  and  C_19
REMARK    2  A    between atoms: N_3  and  C_4
REMARK    3  A    between atoms: C_4  and  C_5
REMARK    4  A    between atoms: C_8  and  O_9
REMARK    5  A    between atoms: O_9  and  C_10
REMARK    6  A    between atoms: C_10  and  C_11
REMARK                            x       y       z     vdW  Elec       q    Type
REMARK                         _______ _______ _______ _____ _____    ______ ____
ROOT
ATOM      1  C   UNL     1      48.281   8.021  12.130  0.00  0.00    +0.000 C 
ENDROOT
BRANCH   1   2
ATOM      2  C   UNL     1      48.461   7.898  13.612  0.00  0.00    +0.000 A 
ATOM      3  C   UNL     1      48.274   8.987  14.467  0.00  0.00    +0.000 A 
ATOM      4  C   UNL     1      48.469   8.833  15.837  0.00  0.00    +0.000 A 
ATOM      5  C   UNL     1      48.813   7.579  16.313  0.00  0.00    +0.000 A 
ATOM      6  N   UNL     1      48.988   6.503  15.517  0.00  0.00    +0.000 NA
ATOM      7  C   UNL     1      48.809   6.683  14.194  0.00  0.00    +0.000 A 
BRANCH   5   8
ATOM      8  O   UNL     1      49.023   7.461  17.675  0.00  0.00    +0.000 OA
BRANCH   8   9
ATOM      9  C   UNL     1      49.727   6.258  18.006  0.00  0.00    +0.000 C 
BRANCH   9  10
ATOM     10  C   UNL     1      48.902   5.429  19.006  0.00  0.00    +0.000 C 
ATOM     11  C   UNL     1      49.266   3.935  18.974  0.00  0.00    +0.000 C 
ATOM     12  C   UNL     1      48.779   3.265  17.689  0.00  0.00    +0.000 C 
ATOM     13  C   UNL     1      47.301   3.557  17.428  0.00  0.00    +0.000 C 
ATOM     14  N   UNL     1      47.005   4.989  17.456  0.00  0.00    +0.000 NA
ATOM     15  C   UNL     1      47.400   5.595  18.729  0.00  0.00    +0.000 C 
ATOM     16  H   UNL     1      46.006   5.130  17.307  0.00  0.00    +0.000 HD
ENDBRANCH   9  10
ENDBRANCH   8   9
ENDBRANCH   5   8
ENDBRANCH   1   2
BRANCH   1  19
ATOM     17  O   UNL     1      45.486   7.833  11.842  0.00  0.00    +0.000 OA
ATOM     18  C   UNL     1      46.190   6.917  11.430  0.00  0.00    +0.000 C 
ATOM     19  N   UNL     1      47.553   6.909  11.576  0.00  0.00    +0.000 N 
ATOM     20  H   UNL     1      48.099   6.191  11.114  0.00  0.00    +0.000 HD
BRANCH  18  21
ATOM     21  C   UNL     1      45.609   5.738  10.778  0.00  0.00    +0.000 A 
ATOM     22  C   UNL     1      45.842   5.506   9.429  0.00  0.00    +0.000 A 
ATOM     23  S   UNL     1      45.078   4.100   8.838  0.00  0.00    +0.000 S 
ATOM     24  C   UNL     1      44.446   3.730  10.375  0.00  0.00    +0.000 A 
ATOM     25  N   UNL     1      43.697   2.612  10.575  0.00  0.00    +0.000 NA
ATOM     26  C   UNL     1      43.322   2.432  11.797  0.00  0.00    +0.000 A 
ATOM     27  N   UNL     1      43.621   3.273  12.837  0.00  0.00    +0.000 N 
ATOM     28  C   UNL     1      44.322   4.443  12.672  0.00  0.00    +0.000 A 
ATOM     29  O   UNL     1      44.484   5.225  13.605  0.00  0.00    +0.000 OA
ATOM     30  C   UNL     1      44.797   4.676  11.321  0.00  0.00    +0.000 A 
ATOM     31  H   UNL     1      43.277   3.086  13.768  0.00  0.00    +0.000 HD
ENDBRANCH  18  21
ENDBRANCH   1  19
TORSDOF 6
ENDMDL
MODEL 6
REMARK VINA RESULT:    -6.994      3.425      4.878
REMARK INTER + INTRA:         -10.556
REMARK INTER:                  -9.335
REMARK INTRA:                  -1.221
REMARK UNBOUND:                -1.109
REMARK  Name = 
REMARK  6 active torsions:
REMARK  status: ('A' for Active; 'I' for Inactive)
REMARK    1  A    between atoms: C_2  and  C_19
REMARK    2  A    between atoms: N_3  and  C_4
REMARK    3  A    between atoms: C_4  and  C_5
REMARK    4  A    between atoms: C_8  and  O_9
REMARK    5  A    between atoms: O_9  and  C_10
REMARK    6  A    between atoms: C_10  and  C_11
REMARK                            x       y       z     vdW  Elec       q    Type
REMARK                         _______ _______ _______ _____ _____    ______ ____
ROOT
ATOM      1  C   UNL     1      48.335   7.094  14.068  0.00  0.00    +0.000 C 
ENDROOT
BRANCH   1   2
ATOM      2  C   UNL     1      47.337   6.375  13.214  0.00  0.00    +0.000 A 
ATOM      3  C   UNL     1      47.003   6.829  11.934  0.00  0.00    +0.000 A 
ATOM      4  C   UNL     1      46.057   6.140  11.180  0.00  0.00    +0.000 A 
ATOM      5  C   UNL     1      45.497   4.994  11.720  0.00  0.00    +0.000 A 
ATOM      6  N   UNL     1      45.806   4.520  12.945  0.00  0.00    +0.000 NA
ATOM      7  C   UNL     1      46.713   5.214  13.660  0.00  0.00    +0.000 A 
BRANCH   5   8
ATOM      8  O   UNL     1      44.543   4.344  10.958  0.00  0.00    +0.000 OA
BRANCH   8   9
ATOM      9  C   UNL     1      44.967   3.030  10.577  0.00  0.00    +0.000 C 
BRANCH   9  10
ATOM     10  C   UNL     1      44.406   2.682   9.187  0.00  0.00    +0.000 C 
ATOM     11  C   UNL     1      45.212   1.575   8.487  0.00  0.00    +0.000 C 
ATOM     12  C   UNL     1      46.587   2.074   8.044  0.00  0.00    +0.000 C 
ATOM     13  C   UNL     1      46.483   3.374   7.246  0.00  0.00    +0.000 C 
ATOM     14  N   UNL     1      45.719   4.401   7.956  0.00  0.00    +0.000 NA
ATOM     15  C   UNL     1      44.374   3.932   8.295  0.00  0.00    +0.000 C 
ATOM     16  H   UNL     1      45.652   5.235   7.372  0.00  0.00    +0.000 HD
ENDBRANCH   9  10
ENDBRANCH   8   9
ENDBRANCH   5   8
ENDBRANCH   1   2
BRANCH   1  19
ATOM     17  O   UNL     1      50.395   6.429  15.870  0.00  0.00    +0.000 OA
ATOM     18  C   UNL     1      49.244   6.513  16.286  0.00  0.00    +0.000 C 
ATOM     19  N   UNL     1      48.180   6.783  15.465  0.00  0.00    +0.000 N 
ATOM     20  H   UNL     1      47.269   6.960  15.873  0.00  0.00    +0.000 HD
BRANCH  18  21
ATOM     21  C   UNL     1      48.923   6.292  17.700  0.00  0.00    +0.000 A 
ATOM     22  C   UNL     1      49.220   5.075  18.296  0.00  0.00    +0.000 A 
ATOM     23  S   UNL     1      48.764   4.991  19.938  0.00  0.00    +0.000 S 
ATOM     24  C   UNL     1      48.195   6.594  19.920  0.00  0.00    +0.000 A 
ATOM     25  N   UNL     1      47.683   7.171  21.041  0.00  0.00    +0.000 NA
ATOM     26  C   UNL     1      47.331   8.404  20.895  0.00  0.00    +0.000 A 
ATOM     27  N   UNL     1      47.438   9.113  19.727  0.00  0.00    +0.000 N 
ATOM     28  C   UNL     1      47.892   8.556  18.555  0.00  0.00    +0.000 A 
ATOM     29  O   UNL     1      47.878   9.189  17.503  0.00  0.00    +0.000 OA
ATOM     30  C   UNL     1      48.332   7.179  18.673  0.00  0.00    +0.000 A 
ATOM     31  H   UNL     1      47.124  10.072  19.674  0.00  0.00    +0.000 HD
ENDBRANCH  18  21
ENDBRANCH   1  19
TORSDOF 6
ENDMDL
MODEL 7
REMARK VINA RESULT:    -6.967      2.365      4.087
REMARK INTER + INTRA:         -10.519
REMARK INTER:                  -9.590
REMARK INTRA:                  -0.929
REMARK UNBOUND:                -1.109
REMARK  Name = 
REMARK  6 active torsions:
REMARK  status: ('A' for Active; 'I' for Inactive)
REMARK    1  A    between atoms: C_2  and  C_19
REMARK    2  A    between atoms: N_3  and  C_4
REMARK    3  A    between atoms: C_4  and  C_5
REMARK    4  A    between atoms: C_8  and  O_9
REMARK    5  A    between atoms: O_9  and  C_10
REMARK    6  A    between atoms: C_10  and  C_11
REMARK                            x       y       z     vdW  Elec       q    Type
REMARK                         _______ _______ _______ _____ _____    ______ ____
ROOT
ATOM      1  C   UNL     1      44.757   3.761   9.325  0.00  0.00    +0.000 C 
ENDROOT
BRANCH   1   2
ATOM      2  C   UNL     1      45.580   3.060   8.288  0.00  0.00    +0.000 A 
ATOM      3  C   UNL     1      46.058   3.726   7.156  0.00  0.00    +0.000 A 
ATOM      4  C   UNL     1      46.805   3.032   6.208  0.00  0.00    +0.000 A 
ATOM      5  C   UNL     1      47.080   1.695   6.442  0.00  0.00    +0.000 A 
ATOM      6  N   UNL     1      46.647   1.025   7.530  0.00  0.00    +0.000 NA
ATOM      7  C   UNL     1      45.913   1.716   8.425  0.00  0.00    +0.000 A 
BRANCH   5   8
ATOM      8  O   UNL     1      47.804   1.025   5.472  0.00  0.00    +0.000 OA
BRANCH   8   9
ATOM      9  C   UNL     1      47.019   0.022   4.816  0.00  0.00    +0.000 C 
BRANCH   9  10
ATOM     10  C   UNL     1      47.300   0.045   3.304  0.00  0.00    +0.000 C 
ATOM     11  C   UNL     1      46.170   0.717   2.505  0.00  0.00    +0.000 C 
ATOM     12  C   UNL     1      44.910  -0.148   2.476  0.00  0.00    +0.000 C 
ATOM     13  C   UNL     1      45.221  -1.580   2.038  0.00  0.00    +0.000 C 
ATOM     14  N   UNL     1      46.292  -2.182   2.833  0.00  0.00    +0.000 NA
ATOM     15  C   UNL     1      47.517  -1.382   2.777  0.00  0.00    +0.000 C 
ATOM     16  H   UNL     1      46.483  -3.121   2.484  0.00  0.00    +0.000 HD
ENDBRANCH   9  10
ENDBRANCH   8   9
ENDBRANCH   5   8
ENDBRANCH   1   2
BRANCH   1  19
ATOM     17  O   UNL     1      43.974   5.936  10.935  0.00  0.00    +0.000 OA
ATOM     18  C   UNL     1      45.098   5.465  11.075  0.00  0.00    +0.000 C 
ATOM     19  N   UNL     1      45.573   4.441  10.299  0.00  0.00    +0.000 N 
ATOM     20  H   UNL     1      46.459   4.009  10.532  0.00  0.00    +0.000 HD
BRANCH  18  21
ATOM     21  C   UNL     1      46.032   5.999  12.073  0.00  0.00    +0.000 A 
ATOM     22  C   UNL     1      46.446   7.321  11.997  0.00  0.00    +0.000 A 
ATOM     23  S   UNL     1      47.541   7.764  13.228  0.00  0.00    +0.000 S 
ATOM     24  C   UNL     1      47.464   6.215  13.930  0.00  0.00    +0.000 A 
ATOM     25  N   UNL     1      48.164   5.921  15.059  0.00  0.00    +0.000 NA
ATOM     26  C   UNL     1      47.978   4.724  15.506  0.00  0.00    +0.000 A 
ATOM     27  N   UNL     1      47.160   3.792  14.924  0.00  0.00    +0.000 N 
ATOM     28  C   UNL     1      46.481   4.023  13.752  0.00  0.00    +0.000 A 
ATOM     29  O   UNL     1      45.839   3.133  13.202  0.00  0.00    +0.000 OA
ATOM     30  C   UNL     1      46.631   5.367  13.224  0.00  0.00    +0.000 A 
ATOM     31  H   UNL     1      47.075   2.864  15.313  0.00  0.00    +0.000 HD
ENDBRANCH  18  21
ENDBRANCH   1  19
TORSDOF 6
ENDMDL
MODEL 8
REMARK VINA RESULT:    -6.935      1.472      2.380
REMARK INTER + INTRA:         -10.476
REMARK INTER:                  -9.774
REMARK INTRA:                  -0.702
REMARK UNBOUND:                -1.109
REMARK  Name = 
REMARK  6 active torsions:
REMARK  status: ('A' for Active; 'I' for Inactive)
REMARK    1  A    between atoms: C_2  and  C_19
REMARK    2  A    between atoms: N_3  and  C_4
REMARK    3  A    between atoms: C_4  and  C_5
REMARK    4  A    between atoms: C_8  and  O_9
REMARK    5  A    between atoms: O_9  and  C_10
REMARK    6  A    between atoms: C_10  and  C_11
REMARK                            x       y       z     vdW  Elec       q    Type
REMARK                         _______ _______ _______ _____ _____    ______ ____
ROOT
ATOM      1  C   UNL     1      44.383   5.629  12.802  0.00  0.00    +0.000 C 
ENDROOT
BRANCH   1   2
ATOM      2  C   UNL     1      44.620   4.760  11.604  0.00  0.00    +0.000 A 
ATOM      3  C   UNL     1      44.269   3.407  11.599  0.00  0.00    +0.000 A 
ATOM      4  C   UNL     1      44.522   2.631  10.471  0.00  0.00    +0.000 A 
ATOM      5  C   UNL     1      45.089   3.245   9.367  0.00  0.00    +0.000 A 
ATOM      6  N   UNL     1      45.427   4.551   9.333  0.00  0.00    +0.000 NA
ATOM      7  C   UNL     1      45.186   5.276  10.444  0.00  0.00    +0.000 A 
BRANCH   5   8
ATOM      8  O   UNL     1      45.351   2.444   8.270  0.00  0.00    +0.000 OA
BRANCH   8   9
ATOM      9  C   UNL     1      45.696   3.217   7.114  0.00  0.00    +0.000 C 
BRANCH   9  10
ATOM     10  C   UNL     1      47.165   2.963   6.736  0.00  0.00    +0.000 C 
ATOM     11  C   UNL     1      47.395   2.989   5.215  0.00  0.00    +0.000 C 
ATOM     12  C   UNL     1      46.784   1.765   4.533  0.00  0.00    +0.000 C 
ATOM     13  C   UNL     1      47.222   0.467   5.211  0.00  0.00    +0.000 C 
ATOM     14  N   UNL     1      46.973   0.483   6.653  0.00  0.00    +0.000 NA
ATOM     15  C   UNL     1      47.639   1.615   7.300  0.00  0.00    +0.000 C 
ATOM     16  H   UNL     1      47.309  -0.388   7.063  0.00  0.00    +0.000 HD
ENDBRANCH   9  10
ENDBRANCH   8   9
ENDBRANCH   5   8
ENDBRANCH   1   2
BRANCH   1  19
ATOM     17  O   UNL     1      46.406   4.165  14.105  0.00  0.00    +0.000 OA
ATOM     18  C   UNL     1      46.565   5.367  13.920  0.00  0.00    +0.000 C 
ATOM     19  N   UNL     1      45.609   6.159  13.339  0.00  0.00    +0.000 N 
ATOM     20  H   UNL     1      45.835   7.118  13.101  0.00  0.00    +0.000 HD
BRANCH  18  21
ATOM     21  C   UNL     1      47.790   6.051  14.348  0.00  0.00    +0.000 A 
ATOM     22  C   UNL     1      48.445   6.911  13.477  0.00  0.00    +0.000 A 
ATOM     23  S   UNL     1      49.857   7.604  14.138  0.00  0.00    +0.000 S 
ATOM     24  C   UNL     1      49.616   6.815  15.626  0.00  0.00    +0.000 A 
ATOM     25  N   UNL     1      50.473   7.000  16.666  0.00  0.00    +0.000 NA
ATOM     26  C   UNL     1      50.144   6.376  17.748  0.00  0.00    +0.000 A 
ATOM     27  N   UNL     1      49.039   5.578  17.882  0.00  0.00    +0.000 N 
ATOM     28  C   UNL     1      48.179   5.313  16.844  0.00  0.00    +0.000 A 
ATOM     29  O   UNL     1      47.257   4.512  16.969  0.00  0.00    +0.000 OA
ATOM     30  C   UNL     1      48.485   6.018  15.613  0.00  0.00    +0.000 A 
ATOM     31  H   UNL     1      48.850   5.100  18.752  0.00  0.00    +0.000 HD
ENDBRANCH  18  21
ENDBRANCH   1  19
TORSDOF 6
ENDMDL
MODEL 9
REMARK VINA RESULT:    -6.861      4.799      9.465
REMARK INTER + INTRA:         -10.376
REMARK INTER:                  -9.038
REMARK INTRA:                  -1.339
REMARK UNBOUND:                -1.109
REMARK  Name = 
REMARK  6 active torsions:
REMARK  status: ('A' for Active; 'I' for Inactive)
REMARK    1  A    between atoms: C_2  and  C_19
REMARK    2  A    between atoms: N_3  and  C_4
REMARK    3  A    between atoms: C_4  and  C_5
REMARK    4  A    between atoms: C_8  and  O_9
REMARK    5  A    between atoms: O_9  and  C_10
REMARK    6  A    between atoms: C_10  and  C_11
REMARK                            x       y       z     vdW  Elec       q    Type
REMARK                         _______ _______ _______ _____ _____    ______ ____
ROOT
ATOM      1  C   UNL     1      47.213   3.451  16.926  0.00  0.00    +0.000 C 
ENDROOT
BRANCH   1   2
ATOM      2  C   UNL     1      48.689   3.317  17.141  0.00  0.00    +0.000 A 
ATOM      3  C   UNL     1      49.348   2.095  16.974  0.00  0.00    +0.000 A 
ATOM      4  C   UNL     1      50.719   2.012  17.200  0.00  0.00    +0.000 A 
ATOM      5  C   UNL     1      51.396   3.166  17.556  0.00  0.00    +0.000 A 
ATOM      6  N   UNL     1      50.795   4.364  17.713  0.00  0.00    +0.000 NA
ATOM      7  C   UNL     1      49.464   4.414  17.502  0.00  0.00    +0.000 A 
BRANCH   5   8
ATOM      8  O   UNL     1      52.753   3.047  17.798  0.00  0.00    +0.000 OA
BRANCH   8   9
ATOM      9  C   UNL     1      53.111   3.543  19.094  0.00  0.00    +0.000 C 
BRANCH   9  10
ATOM     10  C   UNL     1      54.398   4.380  18.996  0.00  0.00    +0.000 C 
ATOM     11  C   UNL     1      54.377   5.604  19.927  0.00  0.00    +0.000 C 
ATOM     12  C   UNL     1      53.393   6.666  19.438  0.00  0.00    +0.000 C 
ATOM     13  C   UNL     1      53.617   7.004  17.964  0.00  0.00    +0.000 C 
ATOM     14  N   UNL     1      53.617   5.812  17.115  0.00  0.00    +0.000 NA
ATOM     15  C   UNL     1      54.626   4.844  17.549  0.00  0.00    +0.000 C 
ATOM     16  H   UNL     1      53.799   6.085  16.151  0.00  0.00    +0.000 HD
ENDBRANCH   9  10
ENDBRANCH   8   9
ENDBRANCH   5   8
ENDBRANCH   1   2
BRANCH   1  19
ATOM     17  O   UNL     1      47.290   3.077  14.135  0.00  0.00    +0.000 OA
ATOM     18  C   UNL     1      46.915   4.157  14.582  0.00  0.00    +0.000 C 
ATOM     19  N   UNL     1      46.896   4.435  15.923  0.00  0.00    +0.000 N 
ATOM     20  H   UNL     1      46.466   5.294  16.247  0.00  0.00    +0.000 HD
BRANCH  18  21
ATOM     21  C   UNL     1      46.493   5.246  13.695  0.00  0.00    +0.000 A 
ATOM     22  C   UNL     1      47.346   6.314  13.452  0.00  0.00    +0.000 A 
ATOM     23  S   UNL     1      46.684   7.492  12.411  0.00  0.00    +0.000 S 
ATOM     24  C   UNL     1      45.252   6.593  12.213  0.00  0.00    +0.000 A 
ATOM     25  N   UNL     1      44.251   7.036  11.406  0.00  0.00    +0.000 NA
ATOM     26  C   UNL     1      43.243   6.234  11.314  0.00  0.00    +0.000 A 
ATOM     27  N   UNL     1      43.143   5.031  11.962  0.00  0.00    +0.000 N 
ATOM     28  C   UNL     1      44.100   4.570  12.833  0.00  0.00    +0.000 A 
ATOM     29  O   UNL     1      43.932   3.538  13.476  0.00  0.00    +0.000 OA
ATOM     30  C   UNL     1      45.270   5.421  12.947  0.00  0.00    +0.000 A 
ATOM     31  H   UNL     1      42.316   4.459  11.863  0.00  0.00    +0.000 HD
ENDBRANCH  18  21
ENDBRANCH   1  19
TORSDOF 6
ENDMDL
