MODEL 1
REMARK VINA RESULT:    -7.236      0.000      0.000
REMARK INTER + INTRA:         -11.604
REMARK INTER:                 -10.832
REMARK INTRA:                  -0.772
REMARK UNBOUND:                -0.772
REMARK  Name = 
REMARK  10 active torsions:
REMARK  status: ('A' for Active; 'I' for Inactive)
REMARK    1  A    between atoms: C_1  and  C_2
REMARK    2  A    between atoms: C_2  and  O_3
REMARK    3  A    between atoms: O_3  and  C_4
REMARK    4  A    between atoms: C_6  and  C_7
REMARK    5  A    between atoms: C_12  and  N_13
REMARK    6  A    between atoms: N_13  and  C_14
REMARK    7  A    between atoms: C_14  and  C_15
REMARK    8  A    between atoms: C_15  and  C_16
REMARK    9  A    between atoms: C_20  and  C_21
REMARK   10  A    between atoms: C_21  and  N_22
REMARK                            x       y       z     vdW  Elec       q    Type
REMARK                         _______ _______ _______ _____ _____    ______ ____
ROOT
ATOM      1  C   UNL     1      47.111   4.263  14.170  0.00  0.00    +0.000 A 
ATOM      2  N   UNL     1      47.784   5.378  14.552  0.00  0.00    +0.000 NA
ATOM      3  C   UNL     1      47.508   6.484  13.818  0.00  0.00    +0.000 A 
ATOM      4  C   UNL     1      46.621   6.471  12.755  0.00  0.00    +0.000 A 
ATOM      5  N   UNL     1      45.950   5.351  12.376  0.00  0.00    +0.000 NA
ATOM      6  C   UNL     1      46.194   4.222  13.087  0.00  0.00    +0.000 A 
ENDROOT
BRANCH   3   7
ATOM      7  C   UNL     1      48.209   7.739  14.203  0.00  0.00    +0.000 C 
ATOM      8  N   UNL     1      47.416   8.723  14.736  0.00  0.00    +0.000 N 
ATOM      9  O   UNL     1      49.415   7.894  14.057  0.00  0.00    +0.000 OA
ATOM     10  H   UNL     1      46.422   8.567  14.849  0.00  0.00    +0.000 HD
ATOM     11  H   UNL     1      47.831   9.596  15.025  0.00  0.00    +0.000 HD
ENDBRANCH   3   7
BRANCH   6  12
ATOM     12  N   UNL     1      45.424   3.127  12.703  0.00  0.00    +0.000 N 
ATOM     13  H   UNL     1      45.475   2.446  13.456  0.00  0.00    +0.000 HD
BRANCH  12  14
ATOM     14  C   UNL     1      44.099   3.354  12.134  0.00  0.00    +0.000 C 
BRANCH  14  15
ATOM     15  C   UNL     1      43.802   2.396  10.974  0.00  0.00    +0.000 C 
BRANCH  15  16
ATOM     16  C   UNL     1      44.611   2.779   9.753  0.00  0.00    +0.000 A 
ATOM     17  C   UNL     1      44.656   4.109   9.321  0.00  0.00    +0.000 A 
ATOM     18  C   UNL     1      45.455   4.472   8.235  0.00  0.00    +0.000 A 
ATOM     19  C   UNL     1      46.224   3.512   7.574  0.00  0.00    +0.000 A 
ATOM     20  C   UNL     1      46.204   2.176   7.993  0.00  0.00    +0.000 A 
ATOM     21  C   UNL     1      45.391   1.821   9.083  0.00  0.00    +0.000 A 
BRANCH  20  22
ATOM     22  C   UNL     1      47.021   1.131   7.273  0.00  0.00    +0.000 C 
BRANCH  22  23
ATOM     23  N   UNL     1      46.787  -0.207   7.807  0.00  0.00    +0.000 NA
ATOM     24  H   UNL     1      46.157  -0.702   7.177  0.00  0.00    +0.000 HD
ATOM     25  H   UNL     1      46.302  -0.129   8.697  0.00  0.00    +0.000 HD
ENDBRANCH  22  23
ENDBRANCH  20  22
ENDBRANCH  15  16
ENDBRANCH  14  15
ENDBRANCH  12  14
ENDBRANCH   6  12
BRANCH   1  26
ATOM     26  O   UNL     1      47.412   3.091  14.825  0.00  0.00    +0.000 OA
BRANCH  26  28
ATOM     27  C   UNL     1      48.867   2.367  16.542  0.00  0.00    +0.000 C 
ATOM     28  C   UNL     1      47.664   3.234  16.217  0.00  0.00    +0.000 C 
ENDBRANCH  26  28
ENDBRANCH   1  26
TORSDOF 9
ENDMDL
MODEL 2
REMARK VINA RESULT:    -6.554      1.738      2.829
REMARK INTER + INTRA:         -10.582
REMARK INTER:                  -9.720
REMARK INTRA:                  -0.863
REMARK UNBOUND:                -0.772
REMARK  Name = 
REMARK  10 active torsions:
REMARK  status: ('A' for Active; 'I' for Inactive)
REMARK    1  A    between atoms: C_1  and  C_2
REMARK    2  A    between atoms: C_2  and  O_3
REMARK    3  A    between atoms: O_3  and  C_4
REMARK    4  A    between atoms: C_6  and  C_7
REMARK    5  A    between atoms: C_12  and  N_13
REMARK    6  A    between atoms: N_13  and  C_14
REMARK    7  A    between atoms: C_14  and  C_15
REMARK    8  A    between atoms: C_15  and  C_16
REMARK    9  A    between atoms: C_20  and  C_21
REMARK   10  A    between atoms: C_21  and  N_22
REMARK                            x       y       z     vdW  Elec       q    Type
REMARK                         _______ _______ _______ _____ _____    ______ ____
ROOT
ATOM      1  C   UNL     1      47.235   5.420  13.473  0.00  0.00    +0.000 A 
ATOM      2  N   UNL     1      47.986   6.057  14.407  0.00  0.00    +0.000 NA
ATOM      3  C   UNL     1      48.065   5.417  15.600  0.00  0.00    +0.000 A 
ATOM      4  C   UNL     1      47.419   4.218  15.847  0.00  0.00    +0.000 A 
ATOM      5  N   UNL     1      46.666   3.586  14.908  0.00  0.00    +0.000 NA
ATOM      6  C   UNL     1      46.564   4.190  13.698  0.00  0.00    +0.000 A 
ENDROOT
BRANCH   3   7
ATOM      7  C   UNL     1      48.888   6.065  16.658  0.00  0.00    +0.000 C 
ATOM      8  N   UNL     1      48.398   7.245  17.154  0.00  0.00    +0.000 N 
ATOM      9  O   UNL     1      49.939   5.583  17.064  0.00  0.00    +0.000 OA
ATOM     10  H   UNL     1      47.524   7.618  16.802  0.00  0.00    +0.000 HD
ATOM     11  H   UNL     1      48.905   7.730  17.879  0.00  0.00    +0.000 HD
ENDBRANCH   3   7
BRANCH   6  12
ATOM     12  N   UNL     1      45.846   3.460  12.753  0.00  0.00    +0.000 N 
ATOM     13  H   UNL     1      45.989   2.475  12.963  0.00  0.00    +0.000 HD
BRANCH  12  14
ATOM     14  C   UNL     1      44.476   3.854  12.442  0.00  0.00    +0.000 C 
BRANCH  14  15
ATOM     15  C   UNL     1      43.874   2.999  11.321  0.00  0.00    +0.000 C 
BRANCH  15  16
ATOM     16  C   UNL     1      44.663   3.176  10.041  0.00  0.00    +0.000 A 
ATOM     17  C   UNL     1      44.865   4.452   9.503  0.00  0.00    +0.000 A 
ATOM     18  C   UNL     1      45.648   4.621   8.360  0.00  0.00    +0.000 A 
ATOM     19  C   UNL     1      46.243   3.517   7.745  0.00  0.00    +0.000 A 
ATOM     20  C   UNL     1      46.064   2.231   8.268  0.00  0.00    +0.000 A 
ATOM     21  C   UNL     1      45.268   2.073   9.416  0.00  0.00    +0.000 A 
BRANCH  20  22
ATOM     22  C   UNL     1      46.692   1.034   7.599  0.00  0.00    +0.000 C 
BRANCH  22  23
ATOM     23  N   UNL     1      47.923   1.383   6.899  0.00  0.00    +0.000 NA
ATOM     24  H   UNL     1      48.714   1.146   7.496  0.00  0.00    +0.000 HD
ATOM     25  H   UNL     1      47.954   2.391   6.766  0.00  0.00    +0.000 HD
ENDBRANCH  22  23
ENDBRANCH  20  22
ENDBRANCH  15  16
ENDBRANCH  14  15
ENDBRANCH  12  14
ENDBRANCH   6  12
BRANCH   1  26
ATOM     26  O   UNL     1      47.051   6.062  12.269  0.00  0.00    +0.000 OA
BRANCH  26  28
ATOM     27  C   UNL     1      45.201   7.407  11.670  0.00  0.00    +0.000 C 
ATOM     28  C   UNL     1      46.547   7.388  12.373  0.00  0.00    +0.000 C 
ENDBRANCH  26  28
ENDBRANCH   1  26
TORSDOF 9
ENDMDL
MODEL 3
REMARK VINA RESULT:    -6.387      2.942      7.427
REMARK INTER + INTRA:         -10.333
REMARK INTER:                  -9.784
REMARK INTRA:                  -0.549
REMARK UNBOUND:                -0.772
REMARK  Name = 
REMARK  10 active torsions:
REMARK  status: ('A' for Active; 'I' for Inactive)
REMARK    1  A    between atoms: C_1  and  C_2
REMARK    2  A    between atoms: C_2  and  O_3
REMARK    3  A    between atoms: O_3  and  C_4
REMARK    4  A    between atoms: C_6  and  C_7
REMARK    5  A    between atoms: C_12  and  N_13
REMARK    6  A    between atoms: N_13  and  C_14
REMARK    7  A    between atoms: C_14  and  C_15
REMARK    8  A    between atoms: C_15  and  C_16
REMARK    9  A    between atoms: C_20  and  C_21
REMARK   10  A    between atoms: C_21  and  N_22
REMARK                            x       y       z     vdW  Elec       q    Type
REMARK                         _______ _______ _______ _____ _____    ______ ____
ROOT
ATOM      1  C   UNL     1      46.360   5.495  13.115  0.00  0.00    +0.000 A 
ATOM      2  N   UNL     1      45.453   5.823  12.160  0.00  0.00    +0.000 NA
ATOM      3  C   UNL     1      44.691   4.788  11.726  0.00  0.00    +0.000 A 
ATOM      4  C   UNL     1      44.837   3.500  12.211  0.00  0.00    +0.000 A 
ATOM      5  N   UNL     1      45.748   3.178  13.168  0.00  0.00    +0.000 NA
ATOM      6  C   UNL     1      46.529   4.184  13.632  0.00  0.00    +0.000 A 
ENDROOT
BRANCH   3   7
ATOM      7  C   UNL     1      43.669   5.095  10.687  0.00  0.00    +0.000 C 
ATOM      8  N   UNL     1      43.985   4.708   9.411  0.00  0.00    +0.000 N 
ATOM      9  O   UNL     1      42.613   5.657  10.946  0.00  0.00    +0.000 OA
ATOM     10  H   UNL     1      44.865   4.240   9.226  0.00  0.00    +0.000 HD
ATOM     11  H   UNL     1      43.331   4.879   8.662  0.00  0.00    +0.000 HD
ENDBRANCH   3   7
BRANCH   6  12
ATOM     12  N   UNL     1      47.389   3.811  14.663  0.00  0.00    +0.000 N 
ATOM     13  H   UNL     1      48.326   4.094  14.388  0.00  0.00    +0.000 HD
BRANCH  12  14
ATOM     14  C   UNL     1      47.012   4.101  16.043  0.00  0.00    +0.000 C 
BRANCH  14  15
ATOM     15  C   UNL     1      47.622   3.095  17.026  0.00  0.00    +0.000 C 
BRANCH  15  16
ATOM     16  C   UNL     1      49.101   3.362  17.205  0.00  0.00    +0.000 A 
ATOM     17  C   UNL     1      49.576   4.672  17.330  0.00  0.00    +0.000 A 
ATOM     18  C   UNL     1      50.932   4.913  17.561  0.00  0.00    +0.000 A 
ATOM     19  C   UNL     1      51.827   3.848  17.675  0.00  0.00    +0.000 A 
ATOM     20  C   UNL     1      51.376   2.527  17.562  0.00  0.00    +0.000 A 
ATOM     21  C   UNL     1      50.010   2.297  17.324  0.00  0.00    +0.000 A 
BRANCH  20  22
ATOM     22  C   UNL     1      52.342   1.372  17.669  0.00  0.00    +0.000 C 
BRANCH  22  23
ATOM     23  N   UNL     1      51.692   0.163  18.163  0.00  0.00    +0.000 NA
ATOM     24  H   UNL     1      52.305  -0.278  18.848  0.00  0.00    +0.000 HD
ATOM     25  H   UNL     1      51.595  -0.498  17.396  0.00  0.00    +0.000 HD
ENDBRANCH  22  23
ENDBRANCH  20  22
ENDBRANCH  15  16
ENDBRANCH  14  15
ENDBRANCH  12  14
ENDBRANCH   6  12
BRANCH   1  26
ATOM     26  O   UNL     1      47.218   6.486  13.535  0.00  0.00    +0.000 OA
BRANCH  26  28
ATOM     27  C   UNL     1      48.345   7.908  12.019  0.00  0.00    +0.000 C 
ATOM     28  C   UNL     1      48.417   6.595  12.777  0.00  0.00    +0.000 C 
ENDBRANCH  26  28
ENDBRANCH   1  26
TORSDOF 9
ENDMDL
MODEL 4
REMARK VINA RESULT:    -6.297      1.807      3.493
REMARK INTER + INTRA:         -10.198
REMARK INTER:                  -9.629
REMARK INTRA:                  -0.569
REMARK UNBOUND:                -0.772
REMARK  Name = 
REMARK  10 active torsions:
REMARK  status: ('A' for Active; 'I' for Inactive)
REMARK    1  A    between atoms: C_1  and  C_2
REMARK    2  A    between atoms: C_2  and  O_3
REMARK    3  A    between atoms: O_3  and  C_4
REMARK    4  A    between atoms: C_6  and  C_7
REMARK    5  A    between atoms: C_12  and  N_13
REMARK    6  A    between atoms: N_13  and  C_14
REMARK    7  A    between atoms: C_14  and  C_15
REMARK    8  A    between atoms: C_15  and  C_16
REMARK    9  A    between atoms: C_20  and  C_21
REMARK   10  A    between atoms: C_21  and  N_22
REMARK                            x       y       z     vdW  Elec       q    Type
REMARK                         _______ _______ _______ _____ _____    ______ ____
ROOT
ATOM      1  C   UNL     1      47.468   6.159  12.878  0.00  0.00    +0.000 A 
ATOM      2  N   UNL     1      48.028   6.014  14.106  0.00  0.00    +0.000 NA
ATOM      3  C   UNL     1      47.436   5.080  14.891  0.00  0.00    +0.000 A 
ATOM      4  C   UNL     1      46.339   4.344  14.476  0.00  0.00    +0.000 A 
ATOM      5  N   UNL     1      45.781   4.495  13.246  0.00  0.00    +0.000 NA
ATOM      6  C   UNL     1      46.345   5.416  12.426  0.00  0.00    +0.000 A 
ENDROOT
BRANCH   3   7
ATOM      7  C   UNL     1      48.020   4.871  16.244  0.00  0.00    +0.000 C 
ATOM      8  N   UNL     1      47.121   4.815  17.278  0.00  0.00    +0.000 N 
ATOM      9  O   UNL     1      49.224   4.756  16.433  0.00  0.00    +0.000 OA
ATOM     10  H   UNL     1      46.129   4.910  17.092  0.00  0.00    +0.000 HD
ATOM     11  H   UNL     1      47.451   4.667  18.219  0.00  0.00    +0.000 HD
ENDBRANCH   3   7
BRANCH   6  12
ATOM     12  N   UNL     1      45.781   5.472  11.154  0.00  0.00    +0.000 N 
ATOM     13  H   UNL     1      46.547   5.557  10.490  0.00  0.00    +0.000 HD
BRANCH  12  14
ATOM     14  C   UNL     1      44.730   4.523  10.800  0.00  0.00    +0.000 C 
BRANCH  14  15
ATOM     15  C   UNL     1      44.440   4.525   9.294  0.00  0.00    +0.000 C 
BRANCH  15  16
ATOM     16  C   UNL     1      45.233   3.436   8.603  0.00  0.00    +0.000 A 
ATOM     17  C   UNL     1      45.275   2.143   9.135  0.00  0.00    +0.000 A 
ATOM     18  C   UNL     1      45.951   1.124   8.462  0.00  0.00    +0.000 A 
ATOM     19  C   UNL     1      46.587   1.383   7.246  0.00  0.00    +0.000 A 
ATOM     20  C   UNL     1      46.552   2.667   6.687  0.00  0.00    +0.000 A 
ATOM     21  C   UNL     1      45.873   3.686   7.378  0.00  0.00    +0.000 A 
BRANCH  20  22
ATOM     22  C   UNL     1      47.250   2.957   5.382  0.00  0.00    +0.000 C 
BRANCH  22  23
ATOM     23  N   UNL     1      48.370   2.052   5.149  0.00  0.00    +0.000 NA
ATOM     24  H   UNL     1      48.220   1.204   5.694  0.00  0.00    +0.000 HD
ATOM     25  H   UNL     1      49.221   2.478   5.507  0.00  0.00    +0.000 HD
ENDBRANCH  22  23
ENDBRANCH  20  22
ENDBRANCH  15  16
ENDBRANCH  14  15
ENDBRANCH  12  14
ENDBRANCH   6  12
BRANCH   1  26
ATOM     26  O   UNL     1      47.974   7.149  12.068  0.00  0.00    +0.000 OA
BRANCH  26  28
ATOM     27  C   UNL     1      48.441   9.466  12.018  0.00  0.00    +0.000 C 
ATOM     28  C   UNL     1      47.359   8.421  12.228  0.00  0.00    +0.000 C 
ENDBRANCH  26  28
ENDBRANCH   1  26
TORSDOF 9
ENDMDL
MODEL 5
REMARK VINA RESULT:    -6.022      2.109      3.611
REMARK INTER + INTRA:          -9.786
REMARK INTER:                  -9.306
REMARK INTRA:                  -0.480
REMARK UNBOUND:                -0.772
REMARK  Name = 
REMARK  10 active torsions:
REMARK  status: ('A' for Active; 'I' for Inactive)
REMARK    1  A    between atoms: C_1  and  C_2
REMARK    2  A    between atoms: C_2  and  O_3
REMARK    3  A    between atoms: O_3  and  C_4
REMARK    4  A    between atoms: C_6  and  C_7
REMARK    5  A    between atoms: C_12  and  N_13
REMARK    6  A    between atoms: N_13  and  C_14
REMARK    7  A    between atoms: C_14  and  C_15
REMARK    8  A    between atoms: C_15  and  C_16
REMARK    9  A    between atoms: C_20  and  C_21
REMARK   10  A    between atoms: C_21  and  N_22
REMARK                            x       y       z     vdW  Elec       q    Type
REMARK                         _______ _______ _______ _____ _____    ______ ____
ROOT
ATOM      1  C   UNL     1      45.393   7.413  11.935  0.00  0.00    +0.000 A 
ATOM      2  N   UNL     1      46.316   8.183  12.565  0.00  0.00    +0.000 NA
ATOM      3  C   UNL     1      47.146   7.504  13.396  0.00  0.00    +0.000 A 
ATOM      4  C   UNL     1      47.049   6.137  13.593  0.00  0.00    +0.000 A 
ATOM      5  N   UNL     1      46.122   5.371  12.959  0.00  0.00    +0.000 NA
ATOM      6  C   UNL     1      45.274   6.010  12.116  0.00  0.00    +0.000 A 
ENDROOT
BRANCH   3   7
ATOM      7  C   UNL     1      48.187   8.299  14.103  0.00  0.00    +0.000 C 
ATOM      8  N   UNL     1      47.751   9.023  15.182  0.00  0.00    +0.000 N 
ATOM      9  O   UNL     1      49.360   8.313  13.751  0.00  0.00    +0.000 OA
ATOM     10  H   UNL     1      46.775   8.991  15.454  0.00  0.00    +0.000 HD
ATOM     11  H   UNL     1      48.409   9.577  15.710  0.00  0.00    +0.000 HD
ENDBRANCH   3   7
BRANCH   6  12
ATOM     12  N   UNL     1      44.397   5.166  11.439  0.00  0.00    +0.000 N 
ATOM     13  H   UNL     1      44.209   5.592  10.534  0.00  0.00    +0.000 HD
BRANCH  12  14
ATOM     14  C   UNL     1      44.660   3.730  11.426  0.00  0.00    +0.000 C 
BRANCH  14  15
ATOM     15  C   UNL     1      44.071   3.050  10.184  0.00  0.00    +0.000 C 
BRANCH  15  16
ATOM     16  C   UNL     1      45.069   3.073   9.047  0.00  0.00    +0.000 A 
ATOM     17  C   UNL     1      45.470   4.287   8.478  0.00  0.00    +0.000 A 
ATOM     18  C   UNL     1      46.440   4.310   7.475  0.00  0.00    +0.000 A 
ATOM     19  C   UNL     1      47.026   3.122   7.033  0.00  0.00    +0.000 A 
ATOM     20  C   UNL     1      46.649   1.895   7.592  0.00  0.00    +0.000 A 
ATOM     21  C   UNL     1      45.666   1.883   8.597  0.00  0.00    +0.000 A 
BRANCH  20  22
ATOM     22  C   UNL     1      47.267   0.607   7.108  0.00  0.00    +0.000 C 
BRANCH  22  23
ATOM     23  N   UNL     1      46.711  -0.556   7.792  0.00  0.00    +0.000 NA
ATOM     24  H   UNL     1      45.742  -0.356   8.036  0.00  0.00    +0.000 HD
ATOM     25  H   UNL     1      47.207  -0.693   8.669  0.00  0.00    +0.000 HD
ENDBRANCH  22  23
ENDBRANCH  20  22
ENDBRANCH  15  16
ENDBRANCH  14  15
ENDBRANCH  12  14
ENDBRANCH   6  12
BRANCH   1  26
ATOM     26  O   UNL     1      44.471   8.057  11.143  0.00  0.00    +0.000 OA
BRANCH  26  28
ATOM     27  C   UNL     1      43.890  10.162  10.234  0.00  0.00    +0.000 C 
ATOM     28  C   UNL     1      44.208   9.406  11.511  0.00  0.00    +0.000 C 
ENDBRANCH  26  28
ENDBRANCH   1  26
TORSDOF 9
ENDMDL
MODEL 6
REMARK VINA RESULT:    -5.919      3.105      7.649
REMARK INTER + INTRA:          -9.632
REMARK INTER:                  -8.384
REMARK INTRA:                  -1.248
REMARK UNBOUND:                -0.772
REMARK  Name = 
REMARK  10 active torsions:
REMARK  status: ('A' for Active; 'I' for Inactive)
REMARK    1  A    between atoms: C_1  and  C_2
REMARK    2  A    between atoms: C_2  and  O_3
REMARK    3  A    between atoms: O_3  and  C_4
REMARK    4  A    between atoms: C_6  and  C_7
REMARK    5  A    between atoms: C_12  and  N_13
REMARK    6  A    between atoms: N_13  and  C_14
REMARK    7  A    between atoms: C_14  and  C_15
REMARK    8  A    between atoms: C_15  and  C_16
REMARK    9  A    between atoms: C_20  and  C_21
REMARK   10  A    between atoms: C_21  and  N_22
REMARK                            x       y       z     vdW  Elec       q    Type
REMARK                         _______ _______ _______ _____ _____    ______ ____
ROOT
ATOM      1  C   UNL     1      46.975   4.690  13.772  0.00  0.00    +0.000 A 
ATOM      2  N   UNL     1      45.850   3.979  13.507  0.00  0.00    +0.000 NA
ATOM      3  C   UNL     1      45.040   4.531  12.570  0.00  0.00    +0.000 A 
ATOM      4  C   UNL     1      45.333   5.731  11.945  0.00  0.00    +0.000 A 
ATOM      5  N   UNL     1      46.461   6.440  12.215  0.00  0.00    +0.000 NA
ATOM      6  C   UNL     1      47.302   5.921  13.144  0.00  0.00    +0.000 A 
ENDROOT
BRANCH   3   7
ATOM      7  C   UNL     1      43.797   3.785  12.231  0.00  0.00    +0.000 C 
ATOM      8  N   UNL     1      43.791   2.457  12.569  0.00  0.00    +0.000 N 
ATOM      9  O   UNL     1      42.838   4.314  11.685  0.00  0.00    +0.000 OA
ATOM     10  H   UNL     1      44.598   2.045  13.024  0.00  0.00    +0.000 HD
ATOM     11  H   UNL     1      42.975   1.896  12.374  0.00  0.00    +0.000 HD
ENDBRANCH   3   7
BRANCH   6  12
ATOM     12  N   UNL     1      48.476   6.649  13.324  0.00  0.00    +0.000 N 
ATOM     13  H   UNL     1      48.819   6.898  12.399  0.00  0.00    +0.000 HD
BRANCH  12  14
ATOM     14  C   UNL     1      48.508   7.712  14.324  0.00  0.00    +0.000 C 
BRANCH  14  15
ATOM     15  C   UNL     1      49.849   7.761  15.065  0.00  0.00    +0.000 C 
BRANCH  15  16
ATOM     16  C   UNL     1      49.790   6.916  16.319  0.00  0.00    +0.000 A 
ATOM     17  C   UNL     1      50.860   6.082  16.663  0.00  0.00    +0.000 A 
ATOM     18  C   UNL     1      50.832   5.354  17.854  0.00  0.00    +0.000 A 
ATOM     19  C   UNL     1      49.739   5.456  18.717  0.00  0.00    +0.000 A 
ATOM     20  C   UNL     1      48.661   6.291  18.401  0.00  0.00    +0.000 A 
ATOM     21  C   UNL     1      48.697   7.014  17.196  0.00  0.00    +0.000 A 
BRANCH  20  22
ATOM     22  C   UNL     1      47.470   6.393  19.322  0.00  0.00    +0.000 C 
BRANCH  22  23
ATOM     23  N   UNL     1      46.389   5.501  18.917  0.00  0.00    +0.000 NA
ATOM     24  H   UNL     1      46.389   5.430  17.901  0.00  0.00    +0.000 HD
ATOM     25  H   UNL     1      45.499   5.919  19.178  0.00  0.00    +0.000 HD
ENDBRANCH  22  23
ENDBRANCH  20  22
ENDBRANCH  15  16
ENDBRANCH  14  15
ENDBRANCH  12  14
ENDBRANCH   6  12
BRANCH   1  26
ATOM     26  O   UNL     1      47.795   4.222  14.773  0.00  0.00    +0.000 OA
BRANCH  26  28
ATOM     27  C   UNL     1      47.989   2.907  16.729  0.00  0.00    +0.000 C 
ATOM     28  C   UNL     1      47.131   3.923  15.995  0.00  0.00    +0.000 C 
ENDBRANCH  26  28
ENDBRANCH   1  26
TORSDOF 9
ENDMDL
MODEL 7
REMARK VINA RESULT:    -5.814      3.277      6.603
REMARK INTER + INTRA:          -9.475
REMARK INTER:                  -8.911
REMARK INTRA:                  -0.564
REMARK UNBOUND:                -0.772
REMARK  Name = 
REMARK  10 active torsions:
REMARK  status: ('A' for Active; 'I' for Inactive)
REMARK    1  A    between atoms: C_1  and  C_2
REMARK    2  A    between atoms: C_2  and  O_3
REMARK    3  A    between atoms: O_3  and  C_4
REMARK    4  A    between atoms: C_6  and  C_7
REMARK    5  A    between atoms: C_12  and  N_13
REMARK    6  A    between atoms: N_13  and  C_14
REMARK    7  A    between atoms: C_14  and  C_15
REMARK    8  A    between atoms: C_15  and  C_16
REMARK    9  A    between atoms: C_20  and  C_21
REMARK   10  A    between atoms: C_21  and  N_22
REMARK                            x       y       z     vdW  Elec       q    Type
REMARK                         _______ _______ _______ _____ _____    ______ ____
ROOT
ATOM      1  C   UNL     1      46.590   4.305  13.754  0.00  0.00    +0.000 A 
ATOM      2  N   UNL     1      45.439   3.747  13.300  0.00  0.00    +0.000 NA
ATOM      3  C   UNL     1      44.646   4.587  12.589  0.00  0.00    +0.000 A 
ATOM      4  C   UNL     1      44.979   5.910  12.358  0.00  0.00    +0.000 A 
ATOM      5  N   UNL     1      46.133   6.465  12.817  0.00  0.00    +0.000 NA
ATOM      6  C   UNL     1      46.957   5.658  13.530  0.00  0.00    +0.000 A 
ENDROOT
BRANCH   3   7
ATOM      7  C   UNL     1      43.377   4.022  12.055  0.00  0.00    +0.000 C 
ATOM      8  N   UNL     1      42.396   4.934  11.763  0.00  0.00    +0.000 N 
ATOM      9  O   UNL     1      43.209   2.820  11.886  0.00  0.00    +0.000 OA
ATOM     10  H   UNL     1      42.563   5.923  11.909  0.00  0.00    +0.000 HD
ATOM     11  H   UNL     1      41.514   4.616  11.389  0.00  0.00    +0.000 HD
ENDBRANCH   3   7
BRANCH   6  12
ATOM     12  N   UNL     1      48.157   6.257  13.907  0.00  0.00    +0.000 N 
ATOM     13  H   UNL     1      48.904   5.759  13.431  0.00  0.00    +0.000 HD
BRANCH  12  14
ATOM     14  C   UNL     1      48.257   7.714  13.903  0.00  0.00    +0.000 C 
BRANCH  14  15
ATOM     15  C   UNL     1      49.183   8.222  12.792  0.00  0.00    +0.000 C 
BRANCH  15  16
ATOM     16  C   UNL     1      48.578   9.431  12.113  0.00  0.00    +0.000 A 
ATOM     17  C   UNL     1      49.358  10.242  11.281  0.00  0.00    +0.000 A 
ATOM     18  C   UNL     1      48.782  11.319  10.603  0.00  0.00    +0.000 A 
ATOM     19  C   UNL     1      47.420  11.593  10.743  0.00  0.00    +0.000 A 
ATOM     20  C   UNL     1      46.616  10.791  11.563  0.00  0.00    +0.000 A 
ATOM     21  C   UNL     1      47.208   9.714  12.245  0.00  0.00    +0.000 A 
BRANCH  20  22
ATOM     22  C   UNL     1      45.147  11.092  11.730  0.00  0.00    +0.000 C 
BRANCH  22  23
ATOM     23  N   UNL     1      44.456  10.041  12.469  0.00  0.00    +0.000 NA
ATOM     24  H   UNL     1      43.462  10.261  12.493  0.00  0.00    +0.000 HD
ATOM     25  H   UNL     1      44.776  10.048  13.434  0.00  0.00    +0.000 HD
ENDBRANCH  22  23
ENDBRANCH  20  22
ENDBRANCH  15  16
ENDBRANCH  14  15
ENDBRANCH  12  14
ENDBRANCH   6  12
BRANCH   1  26
ATOM     26  O   UNL     1      47.396   3.526  14.551  0.00  0.00    +0.000 OA
BRANCH  26  28
ATOM     27  C   UNL     1      48.258   2.857  16.649  0.00  0.00    +0.000 C 
ATOM     28  C   UNL     1      47.321   3.819  15.941  0.00  0.00    +0.000 C 
ENDBRANCH  26  28
ENDBRANCH   1  26
TORSDOF 9
ENDMDL
MODEL 8
REMARK VINA RESULT:    -5.729      3.248      6.361
REMARK INTER + INTRA:          -9.348
REMARK INTER:                  -8.894
REMARK INTRA:                  -0.454
REMARK UNBOUND:                -0.772
REMARK  Name = 
REMARK  10 active torsions:
REMARK  status: ('A' for Active; 'I' for Inactive)
REMARK    1  A    between atoms: C_1  and  C_2
REMARK    2  A    between atoms: C_2  and  O_3
REMARK    3  A    between atoms: O_3  and  C_4
REMARK    4  A    between atoms: C_6  and  C_7
REMARK    5  A    between atoms: C_12  and  N_13
REMARK    6  A    between atoms: N_13  and  C_14
REMARK    7  A    between atoms: C_14  and  C_15
REMARK    8  A    between atoms: C_15  and  C_16
REMARK    9  A    between atoms: C_20  and  C_21
REMARK   10  A    between atoms: C_21  and  N_22
REMARK                            x       y       z     vdW  Elec       q    Type
REMARK                         _______ _______ _______ _____ _____    ______ ____
ROOT
ATOM      1  C   UNL     1      46.420   4.492  13.396  0.00  0.00    +0.000 A 
ATOM      2  N   UNL     1      45.770   3.469  12.785  0.00  0.00    +0.000 NA
ATOM      3  C   UNL     1      44.729   3.847  12.003  0.00  0.00    +0.000 A 
ATOM      4  C   UNL     1      44.352   5.171  11.853  0.00  0.00    +0.000 A 
ATOM      5  N   UNL     1      45.006   6.192  12.468  0.00  0.00    +0.000 NA
ATOM      6  C   UNL     1      46.057   5.858  13.257  0.00  0.00    +0.000 A 
ENDROOT
BRANCH   3   7
ATOM      7  C   UNL     1      43.990   2.765  11.298  0.00  0.00    +0.000 C 
ATOM      8  N   UNL     1      44.565   2.309  10.140  0.00  0.00    +0.000 N 
ATOM      9  O   UNL     1      42.934   2.306  11.716  0.00  0.00    +0.000 OA
ATOM     10  H   UNL     1      45.440   2.705   9.819  0.00  0.00    +0.000 HD
ATOM     11  H   UNL     1      44.118   1.570   9.618  0.00  0.00    +0.000 HD
ENDBRANCH   3   7
BRANCH   6  12
ATOM     12  N   UNL     1      46.734   6.947  13.799  0.00  0.00    +0.000 N 
ATOM     13  H   UNL     1      47.382   6.583  14.494  0.00  0.00    +0.000 HD
BRANCH  12  14
ATOM     14  C   UNL     1      47.266   7.971  12.905  0.00  0.00    +0.000 C 
BRANCH  14  15
ATOM     15  C   UNL     1      48.116   7.366  11.782  0.00  0.00    +0.000 C 
BRANCH  15  16
ATOM     16  C   UNL     1      49.312   8.248  11.491  0.00  0.00    +0.000 A 
ATOM     17  C   UNL     1      49.188   9.641  11.515  0.00  0.00    +0.000 A 
ATOM     18  C   UNL     1      50.305  10.453  11.312  0.00  0.00    +0.000 A 
ATOM     19  C   UNL     1      51.560   9.882  11.089  0.00  0.00    +0.000 A 
ATOM     20  C   UNL     1      51.712   8.490  11.069  0.00  0.00    +0.000 A 
ATOM     21  C   UNL     1      50.579   7.683  11.268  0.00  0.00    +0.000 A 
BRANCH  20  22
ATOM     22  C   UNL     1      53.062   7.868  10.813  0.00  0.00    +0.000 C 
BRANCH  22  23
ATOM     23  N   UNL     1      52.952   6.465  10.425  0.00  0.00    +0.000 NA
ATOM     24  H   UNL     1      52.186   6.372   9.759  0.00  0.00    +0.000 HD
ATOM     25  H   UNL     1      52.693   5.915  11.240  0.00  0.00    +0.000 HD
ENDBRANCH  22  23
ENDBRANCH  20  22
ENDBRANCH  15  16
ENDBRANCH  14  15
ENDBRANCH  12  14
ENDBRANCH   6  12
BRANCH   1  26
ATOM     26  O   UNL     1      47.434   4.164  14.267  0.00  0.00    +0.000 OA
BRANCH  26  28
ATOM     27  C   UNL     1      47.962   3.150  16.337  0.00  0.00    +0.000 C 
ATOM     28  C   UNL     1      47.059   4.151  15.639  0.00  0.00    +0.000 C 
ENDBRANCH  26  28
ENDBRANCH   1  26
TORSDOF 9
ENDMDL
MODEL 9
REMARK VINA RESULT:    -5.588      3.553      5.633
REMARK INTER + INTRA:          -9.137
REMARK INTER:                  -8.522
REMARK INTRA:                  -0.615
REMARK UNBOUND:                -0.772
REMARK  Name = 
REMARK  10 active torsions:
REMARK  status: ('A' for Active; 'I' for Inactive)
REMARK    1  A    between atoms: C_1  and  C_2
REMARK    2  A    between atoms: C_2  and  O_3
REMARK    3  A    between atoms: O_3  and  C_4
REMARK    4  A    between atoms: C_6  and  C_7
REMARK    5  A    between atoms: C_12  and  N_13
REMARK    6  A    between atoms: N_13  and  C_14
REMARK    7  A    between atoms: C_14  and  C_15
REMARK    8  A    between atoms: C_15  and  C_16
REMARK    9  A    between atoms: C_20  and  C_21
REMARK   10  A    between atoms: C_21  and  N_22
REMARK                            x       y       z     vdW  Elec       q    Type
REMARK                         _______ _______ _______ _____ _____    ______ ____
ROOT
ATOM      1  C   UNL     1      49.028   4.533  17.169  0.00  0.00    +0.000 A 
ATOM      2  N   UNL     1      50.266   4.270  17.658  0.00  0.00    +0.000 NA
ATOM      3  C   UNL     1      50.708   3.008  17.429  0.00  0.00    +0.000 A 
ATOM      4  C   UNL     1      49.949   2.062  16.761  0.00  0.00    +0.000 A 
ATOM      5  N   UNL     1      48.708   2.332  16.274  0.00  0.00    +0.000 NA
ATOM      6  C   UNL     1      48.230   3.584  16.478  0.00  0.00    +0.000 A 
ENDROOT
BRANCH   3   7
ATOM      7  C   UNL     1      52.067   2.669  17.933  0.00  0.00    +0.000 C 
ATOM      8  N   UNL     1      52.298   1.340  18.172  0.00  0.00    +0.000 N 
ATOM      9  O   UNL     1      52.930   3.517  18.126  0.00  0.00    +0.000 OA
ATOM     10  H   UNL     1      51.567   0.659  18.000  0.00  0.00    +0.000 HD
ATOM     11  H   UNL     1      53.202   1.043  18.507  0.00  0.00    +0.000 HD
ENDBRANCH   3   7
BRANCH   6  12
ATOM     12  N   UNL     1      46.989   3.824  15.892  0.00  0.00    +0.000 N 
ATOM     13  H   UNL     1      46.382   4.197  16.618  0.00  0.00    +0.000 HD
BRANCH  12  14
ATOM     14  C   UNL     1      46.932   4.502  14.600  0.00  0.00    +0.000 C 
BRANCH  14  15
ATOM     15  C   UNL     1      46.561   3.541  13.465  0.00  0.00    +0.000 C 
BRANCH  15  16
ATOM     16  C   UNL     1      45.476   4.142  12.598  0.00  0.00    +0.000 A 
ATOM     17  C   UNL     1      44.476   3.332  12.049  0.00  0.00    +0.000 A 
ATOM     18  C   UNL     1      43.439   3.898  11.305  0.00  0.00    +0.000 A 
ATOM     19  C   UNL     1      43.385   5.279  11.107  0.00  0.00    +0.000 A 
ATOM     20  C   UNL     1      44.369   6.113  11.653  0.00  0.00    +0.000 A 
ATOM     21  C   UNL     1      45.412   5.531  12.395  0.00  0.00    +0.000 A 
BRANCH  20  22
ATOM     22  C   UNL     1      44.325   7.604  11.429  0.00  0.00    +0.000 C 
BRANCH  22  23
ATOM     23  N   UNL     1      44.897   8.341  12.551  0.00  0.00    +0.000 NA
ATOM     24  H   UNL     1      44.581   7.909  13.418  0.00  0.00    +0.000 HD
ATOM     25  H   UNL     1      44.527   9.288  12.548  0.00  0.00    +0.000 HD
ENDBRANCH  22  23
ENDBRANCH  20  22
ENDBRANCH  15  16
ENDBRANCH  14  15
ENDBRANCH  12  14
ENDBRANCH   6  12
BRANCH   1  26
ATOM     26  O   UNL     1      48.493   5.771  17.442  0.00  0.00    +0.000 OA
BRANCH  26  28
ATOM     27  C   UNL     1      47.254   5.909  19.451  0.00  0.00    +0.000 C 
ATOM     28  C   UNL     1      48.599   6.179  18.800  0.00  0.00    +0.000 C 
ENDBRANCH  26  28
ENDBRANCH   1  26
TORSDOF 9
ENDMDL
