MODEL 1
REMARK VINA RESULT:    -8.318      0.000      0.000
REMARK INTER + INTRA:         -12.247
REMARK INTER:                 -11.236
REMARK INTRA:                  -1.011
REMARK UNBOUND:                -1.011
REMARK  Name = 
REMARK  6 active torsions:
REMARK  status: ('A' for Active; 'I' for Inactive)
REMARK    1  A    between atoms: C_2  and  C_4
REMARK    2  A    between atoms: C_8  and  O_9
REMARK    3  A    between atoms: O_9  and  C_10
REMARK    4  A    between atoms: C_13  and  C_14
REMARK    5  A    between atoms: C_14  and  N_15
REMARK    6  A    between atoms: C_16  and  C_18
REMARK                            x       y       z     vdW  Elec       q    Type
REMARK                         _______ _______ _______ _____ _____    ______ ____
ROOT
ATOM      1  C   UNL     1      47.002   2.019   6.879  0.00  0.00    +0.000 A 
ATOM      2  C   UNL     1      46.881   3.408   6.784  0.00  0.00    +0.000 A 
ATOM      3  C   UNL     1      46.173   4.116   7.759  0.00  0.00    +0.000 A 
ATOM      4  C   UNL     1      45.537   3.444   8.808  0.00  0.00    +0.000 A 
ATOM      5  C   UNL     1      45.561   2.042   8.826  0.00  0.00    +0.000 A 
ATOM      6  C   UNL     1      46.296   1.336   7.871  0.00  0.00    +0.000 A 
ENDROOT
BRANCH   1   7
ATOM      7  O   UNL     1      47.736   1.238   6.015  0.00  0.00    +0.000 OA
BRANCH   7  12
ATOM      8  C   UNL     1      46.602  -1.315   3.668  0.00  0.00    +0.000 A 
ATOM      9  C   UNL     1      45.943  -0.552   2.698  0.00  0.00    +0.000 A 
ATOM     10  C   UNL     1      45.936   0.840   2.792  0.00  0.00    +0.000 A 
ATOM     11  C   UNL     1      46.566   1.470   3.866  0.00  0.00    +0.000 A 
ATOM     12  C   UNL     1      47.146   0.710   4.888  0.00  0.00    +0.000 A 
ATOM     13  C   UNL     1      47.194  -0.681   4.768  0.00  0.00    +0.000 A 
BRANCH   8  15
ATOM     14  N   UNL     1      46.146  -3.510   4.634  0.00  0.00    +0.000 N 
ATOM     15  C   UNL     1      46.665  -2.797   3.586  0.00  0.00    +0.000 C 
ATOM     16  O   UNL     1      47.129  -3.369   2.608  0.00  0.00    +0.000 OA
ATOM     17  H   UNL     1      46.105  -4.512   4.514  0.00  0.00    +0.000 HD
ATOM     18  H   UNL     1      45.538  -3.093   5.323  0.00  0.00    +0.000 HD
ENDBRANCH   8  15
ENDBRANCH   7  12
ENDBRANCH   1   7
BRANCH   4  19
ATOM     19  C   UNL     1      44.815   4.208   9.885  0.00  0.00    +0.000 C 
BRANCH  19  20
ATOM     20  N   UNL     1      45.713   4.627  10.927  0.00  0.00    +0.000 N 
ATOM     21  C   UNL     1      45.773   5.939  11.319  0.00  0.00    +0.000 C 
ATOM     22  O   UNL     1      45.030   6.793  10.841  0.00  0.00    +0.000 OA
ATOM     23  H   UNL     1      46.475   3.997  11.162  0.00  0.00    +0.000 HD
BRANCH  21  24
ATOM     24  C   UNL     1      46.724   6.264  12.387  0.00  0.00    +0.000 A 
ATOM     25  C   UNL     1      47.522   7.395  12.272  0.00  0.00    +0.000 A 
ATOM     26  S   UNL     1      48.523   7.667  13.625  0.00  0.00    +0.000 S 
ATOM     27  C   UNL     1      47.965   6.252  14.390  0.00  0.00    +0.000 A 
ATOM     28  N   UNL     1      48.448   5.879  15.606  0.00  0.00    +0.000 NA
ATOM     29  C   UNL     1      47.965   4.767  16.052  0.00  0.00    +0.000 A 
ATOM     30  N   UNL     1      47.040   3.998  15.394  0.00  0.00    +0.000 N 
ATOM     31  C   UNL     1      46.504   4.348  14.180  0.00  0.00    +0.000 A 
ATOM     32  O   UNL     1      45.650   3.657  13.634  0.00  0.00    +0.000 OA
ATOM     33  C   UNL     1      47.020   5.588  13.628  0.00  0.00    +0.000 A 
ATOM     34  H   UNL     1      46.698   3.140  15.802  0.00  0.00    +0.000 HD
ENDBRANCH  21  24
ENDBRANCH  19  20
ENDBRANCH   4  19
TORSDOF 6
ENDMDL
MODEL 2
REMARK VINA RESULT:    -7.896      3.581      5.816
REMARK INTER + INTRA:         -11.676
REMARK INTER:                 -10.566
REMARK INTRA:                  -1.110
REMARK UNBOUND:                -1.011
REMARK  Name = 
REMARK  6 active torsions:
REMARK  status: ('A' for Active; 'I' for Inactive)
REMARK    1  A    between atoms: C_2  and  C_4
REMARK    2  A    between atoms: C_8  and  O_9
REMARK    3  A    between atoms: O_9  and  C_10
REMARK    4  A    between atoms: C_13  and  C_14
REMARK    5  A    between atoms: C_14  and  N_15
REMARK    6  A    between atoms: C_16  and  C_18
REMARK                            x       y       z     vdW  Elec       q    Type
REMARK                         _______ _______ _______ _____ _____    ______ ____
ROOT
ATOM      1  C   UNL     1      45.126   6.379  11.080  0.00  0.00    +0.000 A 
ATOM      2  C   UNL     1      46.449   5.989  11.306  0.00  0.00    +0.000 A 
ATOM      3  C   UNL     1      47.241   6.698  12.214  0.00  0.00    +0.000 A 
ATOM      4  C   UNL     1      46.739   7.828  12.867  0.00  0.00    +0.000 A 
ATOM      5  C   UNL     1      45.453   8.282  12.541  0.00  0.00    +0.000 A 
ATOM      6  C   UNL     1      44.650   7.556  11.659  0.00  0.00    +0.000 A 
ENDROOT
BRANCH   1   7
ATOM      7  O   UNL     1      44.243   5.708  10.263  0.00  0.00    +0.000 OA
BRANCH   7  12
ATOM      8  C   UNL     1      45.802   3.172   8.155  0.00  0.00    +0.000 A 
ATOM      9  C   UNL     1      45.351   1.983   8.740  0.00  0.00    +0.000 A 
ATOM     10  C   UNL     1      44.459   2.029   9.811  0.00  0.00    +0.000 A 
ATOM     11  C   UNL     1      44.034   3.259  10.314  0.00  0.00    +0.000 A 
ATOM     12  C   UNL     1      44.553   4.451   9.795  0.00  0.00    +0.000 A 
ATOM     13  C   UNL     1      45.409   4.404   8.692  0.00  0.00    +0.000 A 
BRANCH   8  15
ATOM     14  N   UNL     1      47.634   2.148   6.908  0.00  0.00    +0.000 N 
ATOM     15  C   UNL     1      46.723   3.168   6.988  0.00  0.00    +0.000 C 
ATOM     16  O   UNL     1      46.655   4.018   6.110  0.00  0.00    +0.000 OA
ATOM     17  H   UNL     1      48.180   2.105   6.059  0.00  0.00    +0.000 HD
ATOM     18  H   UNL     1      47.554   1.307   7.461  0.00  0.00    +0.000 HD
ENDBRANCH   8  15
ENDBRANCH   7  12
ENDBRANCH   1   7
BRANCH   4  19
ATOM     19  C   UNL     1      47.573   8.564  13.881  0.00  0.00    +0.000 C 
BRANCH  19  20
ATOM     20  N   UNL     1      47.859   7.741  15.025  0.00  0.00    +0.000 N 
ATOM     21  C   UNL     1      49.086   7.148  15.176  0.00  0.00    +0.000 C 
ATOM     22  O   UNL     1      50.000   7.339  14.378  0.00  0.00    +0.000 OA
ATOM     23  H   UNL     1      47.066   7.395  15.557  0.00  0.00    +0.000 HD
BRANCH  21  24
ATOM     24  C   UNL     1      49.276   6.326  16.375  0.00  0.00    +0.000 A 
ATOM     25  C   UNL     1      50.253   6.676  17.298  0.00  0.00    +0.000 A 
ATOM     26  S   UNL     1      50.300   5.658  18.665  0.00  0.00    +0.000 S 
ATOM     27  C   UNL     1      49.051   4.680  18.047  0.00  0.00    +0.000 A 
ATOM     28  N   UNL     1      48.611   3.592  18.735  0.00  0.00    +0.000 NA
ATOM     29  C   UNL     1      47.686   2.920  18.134  0.00  0.00    +0.000 A 
ATOM     30  N   UNL     1      47.159   3.241  16.909  0.00  0.00    +0.000 N 
ATOM     31  C   UNL     1      47.552   4.345  16.192  0.00  0.00    +0.000 A 
ATOM     32  O   UNL     1      47.034   4.625  15.116  0.00  0.00    +0.000 OA
ATOM     33  C   UNL     1      48.597   5.131  16.820  0.00  0.00    +0.000 A 
ATOM     34  H   UNL     1      46.432   2.676  16.496  0.00  0.00    +0.000 HD
ENDBRANCH  21  24
ENDBRANCH  19  20
ENDBRANCH   4  19
TORSDOF 6
ENDMDL
MODEL 3
REMARK VINA RESULT:    -7.847      1.632      2.047
REMARK INTER + INTRA:         -11.611
REMARK INTER:                 -10.756
REMARK INTRA:                  -0.855
REMARK UNBOUND:                -1.011
REMARK  Name = 
REMARK  6 active torsions:
REMARK  status: ('A' for Active; 'I' for Inactive)
REMARK    1  A    between atoms: C_2  and  C_4
REMARK    2  A    between atoms: C_8  and  O_9
REMARK    3  A    between atoms: O_9  and  C_10
REMARK    4  A    between atoms: C_13  and  C_14
REMARK    5  A    between atoms: C_14  and  N_15
REMARK    6  A    between atoms: C_16  and  C_18
REMARK                            x       y       z     vdW  Elec       q    Type
REMARK                         _______ _______ _______ _____ _____    ______ ____
ROOT
ATOM      1  C   UNL     1      46.677   2.090   7.382  0.00  0.00    +0.000 A 
ATOM      2  C   UNL     1      46.528   3.477   7.298  0.00  0.00    +0.000 A 
ATOM      3  C   UNL     1      45.696   4.147   8.198  0.00  0.00    +0.000 A 
ATOM      4  C   UNL     1      44.967   3.437   9.159  0.00  0.00    +0.000 A 
ATOM      5  C   UNL     1      45.029   2.036   9.156  0.00  0.00    +0.000 A 
ATOM      6  C   UNL     1      45.885   1.369   8.277  0.00  0.00    +0.000 A 
ENDROOT
BRANCH   1   7
ATOM      7  O   UNL     1      47.525   1.346   6.593  0.00  0.00    +0.000 OA
BRANCH   7  12
ATOM      8  C   UNL     1      46.738  -1.017   3.928  0.00  0.00    +0.000 A 
ATOM      9  C   UNL     1      46.249  -0.176   2.922  0.00  0.00    +0.000 A 
ATOM     10  C   UNL     1      46.246   1.206   3.110  0.00  0.00    +0.000 A 
ATOM     11  C   UNL     1      46.710   1.749   4.309  0.00  0.00    +0.000 A 
ATOM     12  C   UNL     1      47.111   0.909   5.354  0.00  0.00    +0.000 A 
ATOM     13  C   UNL     1      47.159  -0.472   5.147  0.00  0.00    +0.000 A 
BRANCH   8  15
ATOM     14  N   UNL     1      46.223  -3.264   4.731  0.00  0.00    +0.000 N 
ATOM     15  C   UNL     1      46.793  -2.492   3.754  0.00  0.00    +0.000 C 
ATOM     16  O   UNL     1      47.293  -3.006   2.762  0.00  0.00    +0.000 OA
ATOM     17  H   UNL     1      46.179  -4.256   4.547  0.00  0.00    +0.000 HD
ATOM     18  H   UNL     1      45.589  -2.885   5.420  0.00  0.00    +0.000 HD
ENDBRANCH   8  15
ENDBRANCH   7  12
ENDBRANCH   1   7
BRANCH   4  19
ATOM     19  C   UNL     1      44.107   4.160  10.161  0.00  0.00    +0.000 C 
BRANCH  19  20
ATOM     20  N   UNL     1      44.678   5.427  10.528  0.00  0.00    +0.000 N 
ATOM     21  C   UNL     1      45.008   5.700  11.831  0.00  0.00    +0.000 C 
ATOM     22  O   UNL     1      44.883   4.861  12.720  0.00  0.00    +0.000 OA
ATOM     23  H   UNL     1      44.574   6.191   9.866  0.00  0.00    +0.000 HD
BRANCH  21  24
ATOM     24  C   UNL     1      45.581   7.023  12.101  0.00  0.00    +0.000 A 
ATOM     25  C   UNL     1      44.885   8.161  11.717  0.00  0.00    +0.000 A 
ATOM     26  S   UNL     1      45.653   9.616  12.163  0.00  0.00    +0.000 S 
ATOM     27  C   UNL     1      46.971   8.777  12.838  0.00  0.00    +0.000 A 
ATOM     28  N   UNL     1      48.017   9.448  13.390  0.00  0.00    +0.000 NA
ATOM     29  C   UNL     1      48.964   8.688  13.832  0.00  0.00    +0.000 A 
ATOM     30  N   UNL     1      48.955   7.318  13.776  0.00  0.00    +0.000 N 
ATOM     31  C   UNL     1      47.909   6.597  13.255  0.00  0.00    +0.000 A 
ATOM     32  O   UNL     1      47.915   5.371  13.253  0.00  0.00    +0.000 OA
ATOM     33  C   UNL     1      46.820   7.405  12.735  0.00  0.00    +0.000 A 
ATOM     34  H   UNL     1      49.726   6.781  14.146  0.00  0.00    +0.000 HD
ENDBRANCH  21  24
ENDBRANCH  19  20
ENDBRANCH   4  19
TORSDOF 6
ENDMDL
MODEL 4
REMARK VINA RESULT:    -7.678      5.805     10.236
REMARK INTER + INTRA:         -11.383
REMARK INTER:                 -10.336
REMARK INTRA:                  -1.046
REMARK UNBOUND:                -1.011
REMARK  Name = 
REMARK  6 active torsions:
REMARK  status: ('A' for Active; 'I' for Inactive)
REMARK    1  A    between atoms: C_2  and  C_4
REMARK    2  A    between atoms: C_8  and  O_9
REMARK    3  A    between atoms: O_9  and  C_10
REMARK    4  A    between atoms: C_13  and  C_14
REMARK    5  A    between atoms: C_14  and  N_15
REMARK    6  A    between atoms: C_16  and  C_18
REMARK                            x       y       z     vdW  Elec       q    Type
REMARK                         _______ _______ _______ _____ _____    ______ ____
ROOT
ATOM      1  C   UNL     1      49.878   6.742  16.314  0.00  0.00    +0.000 A 
ATOM      2  C   UNL     1      50.727   7.351  15.385  0.00  0.00    +0.000 A 
ATOM      3  C   UNL     1      50.251   7.679  14.113  0.00  0.00    +0.000 A 
ATOM      4  C   UNL     1      48.943   7.359  13.737  0.00  0.00    +0.000 A 
ATOM      5  C   UNL     1      48.138   6.639  14.632  0.00  0.00    +0.000 A 
ATOM      6  C   UNL     1      48.603   6.340  15.915  0.00  0.00    +0.000 A 
ENDROOT
BRANCH   1   7
ATOM      7  O   UNL     1      50.225   6.446  17.613  0.00  0.00    +0.000 OA
BRANCH   7  12
ATOM      8  C   UNL     1      51.444   3.008  17.682  0.00  0.00    +0.000 A 
ATOM      9  C   UNL     1      52.705   3.153  18.273  0.00  0.00    +0.000 A 
ATOM     10  C   UNL     1      53.126   4.407  18.716  0.00  0.00    +0.000 A 
ATOM     11  C   UNL     1      52.300   5.520  18.551  0.00  0.00    +0.000 A 
ATOM     12  C   UNL     1      51.080   5.398  17.878  0.00  0.00    +0.000 A 
ATOM     13  C   UNL     1      50.638   4.135  17.478  0.00  0.00    +0.000 A 
BRANCH   8  15
ATOM     14  N   UNL     1      51.399   0.576  17.892  0.00  0.00    +0.000 N 
ATOM     15  C   UNL     1      50.942   1.684  17.230  0.00  0.00    +0.000 C 
ATOM     16  O   UNL     1      50.124   1.580  16.326  0.00  0.00    +0.000 OA
ATOM     17  H   UNL     1      50.969  -0.303  17.640  0.00  0.00    +0.000 HD
ATOM     18  H   UNL     1      51.863   0.634  18.787  0.00  0.00    +0.000 HD
ENDBRANCH   8  15
ENDBRANCH   7  12
ENDBRANCH   1   7
BRANCH   4  19
ATOM     19  C   UNL     1      48.412   7.753  12.384  0.00  0.00    +0.000 C 
BRANCH  19  20
ATOM     20  N   UNL     1      47.664   6.684  11.780  0.00  0.00    +0.000 N 
ATOM     21  C   UNL     1      46.346   6.851  11.443  0.00  0.00    +0.000 C 
ATOM     22  O   UNL     1      45.770   7.926  11.590  0.00  0.00    +0.000 OA
ATOM     23  H   UNL     1      48.047   5.747  11.863  0.00  0.00    +0.000 HD
BRANCH  21  24
ATOM     24  C   UNL     1      45.672   5.699  10.835  0.00  0.00    +0.000 A 
ATOM     25  C   UNL     1      45.755   5.503   9.463  0.00  0.00    +0.000 A 
ATOM     26  S   UNL     1      44.975   4.085   8.924  0.00  0.00    +0.000 S 
ATOM     27  C   UNL     1      44.452   3.711  10.500  0.00  0.00    +0.000 A 
ATOM     28  N   UNL     1      43.699   2.603  10.741  0.00  0.00    +0.000 NA
ATOM     29  C   UNL     1      43.342   2.460  11.974  0.00  0.00    +0.000 A 
ATOM     30  N   UNL     1      43.674   3.322  12.988  0.00  0.00    +0.000 N 
ATOM     31  C   UNL     1      44.455   4.435  12.797  0.00  0.00    +0.000 A 
ATOM     32  O   UNL     1      44.765   5.166  13.732  0.00  0.00    +0.000 OA
ATOM     33  C   UNL     1      44.877   4.648  11.425  0.00  0.00    +0.000 A 
ATOM     34  H   UNL     1      43.366   3.149  13.934  0.00  0.00    +0.000 HD
ENDBRANCH  21  24
ENDBRANCH  19  20
ENDBRANCH   4  19
TORSDOF 6
ENDMDL
MODEL 5
REMARK VINA RESULT:    -7.411      3.802      6.475
REMARK INTER + INTRA:         -11.022
REMARK INTER:                  -9.928
REMARK INTRA:                  -1.094
REMARK UNBOUND:                -1.011
REMARK  Name = 
REMARK  6 active torsions:
REMARK  status: ('A' for Active; 'I' for Inactive)
REMARK    1  A    between atoms: C_2  and  C_4
REMARK    2  A    between atoms: C_8  and  O_9
REMARK    3  A    between atoms: O_9  and  C_10
REMARK    4  A    between atoms: C_13  and  C_14
REMARK    5  A    between atoms: C_14  and  N_15
REMARK    6  A    between atoms: C_16  and  C_18
REMARK                            x       y       z     vdW  Elec       q    Type
REMARK                         _______ _______ _______ _____ _____    ______ ____
ROOT
ATOM      1  C   UNL     1      45.181   6.133  11.482  0.00  0.00    +0.000 A 
ATOM      2  C   UNL     1      45.428   7.505  11.593  0.00  0.00    +0.000 A 
ATOM      3  C   UNL     1      46.423   7.968  12.458  0.00  0.00    +0.000 A 
ATOM      4  C   UNL     1      47.147   7.075  13.255  0.00  0.00    +0.000 A 
ATOM      5  C   UNL     1      46.809   5.715  13.225  0.00  0.00    +0.000 A 
ATOM      6  C   UNL     1      45.837   5.248  12.338  0.00  0.00    +0.000 A 
ENDROOT
BRANCH   1   7
ATOM      7  O   UNL     1      44.277   5.571  10.609  0.00  0.00    +0.000 OA
BRANCH   7  12
ATOM      8  C   UNL     1      45.803   3.242   8.252  0.00  0.00    +0.000 A 
ATOM      9  C   UNL     1      45.300   2.010   8.686  0.00  0.00    +0.000 A 
ATOM     10  C   UNL     1      44.385   1.963   9.738  0.00  0.00    +0.000 A 
ATOM     11  C   UNL     1      43.988   3.141  10.372  0.00  0.00    +0.000 A 
ATOM     12  C   UNL     1      44.558   4.365  10.004  0.00  0.00    +0.000 A 
ATOM     13  C   UNL     1      45.437   4.417   8.920  0.00  0.00    +0.000 A 
BRANCH   8  15
ATOM     14  N   UNL     1      47.709   2.368   7.002  0.00  0.00    +0.000 N 
ATOM     15  C   UNL     1      46.750   3.340   7.111  0.00  0.00    +0.000 C 
ATOM     16  O   UNL     1      46.663   4.230   6.276  0.00  0.00    +0.000 OA
ATOM     17  H   UNL     1      48.277   2.393   6.167  0.00  0.00    +0.000 HD
ATOM     18  H   UNL     1      47.656   1.497   7.510  0.00  0.00    +0.000 HD
ENDBRANCH   8  15
ENDBRANCH   7  12
ENDBRANCH   1   7
BRANCH   4  19
ATOM     19  C   UNL     1      48.252   7.566  14.151  0.00  0.00    +0.000 C 
BRANCH  19  20
ATOM     20  N   UNL     1      48.087   7.093  15.499  0.00  0.00    +0.000 N 
ATOM     21  C   UNL     1      49.135   6.533  16.182  0.00  0.00    +0.000 C 
ATOM     22  O   UNL     1      50.262   6.463  15.697  0.00  0.00    +0.000 OA
ATOM     23  H   UNL     1      47.136   6.935  15.821  0.00  0.00    +0.000 HD
BRANCH  21  24
ATOM     24  C   UNL     1      48.862   6.079  17.549  0.00  0.00    +0.000 A 
ATOM     25  C   UNL     1      49.102   4.755  17.891  0.00  0.00    +0.000 A 
ATOM     26  S   UNL     1      48.797   4.405  19.532  0.00  0.00    +0.000 S 
ATOM     27  C   UNL     1      48.280   5.999  19.832  0.00  0.00    +0.000 A 
ATOM     28  N   UNL     1      47.854   6.374  21.068  0.00  0.00    +0.000 NA
ATOM     29  C   UNL     1      47.457   7.600  21.145  0.00  0.00    +0.000 A 
ATOM     30  N   UNL     1      47.454   8.487  20.098  0.00  0.00    +0.000 N 
ATOM     31  C   UNL     1      47.902   8.162  18.842  0.00  0.00    +0.000 A 
ATOM     32  O   UNL     1      47.921   8.989  17.936  0.00  0.00    +0.000 OA
ATOM     33  C   UNL     1      48.352   6.790  18.698  0.00  0.00    +0.000 A 
ATOM     34  H   UNL     1      47.136   9.436  20.227  0.00  0.00    +0.000 HD
ENDBRANCH  21  24
ENDBRANCH  19  20
ENDBRANCH   4  19
TORSDOF 6
ENDMDL
MODEL 6
REMARK VINA RESULT:    -7.179      4.548     10.537
REMARK INTER + INTRA:         -10.709
REMARK INTER:                  -9.654
REMARK INTRA:                  -1.055
REMARK UNBOUND:                -1.011
REMARK  Name = 
REMARK  6 active torsions:
REMARK  status: ('A' for Active; 'I' for Inactive)
REMARK    1  A    between atoms: C_2  and  C_4
REMARK    2  A    between atoms: C_8  and  O_9
REMARK    3  A    between atoms: O_9  and  C_10
REMARK    4  A    between atoms: C_13  and  C_14
REMARK    5  A    between atoms: C_14  and  N_15
REMARK    6  A    between atoms: C_16  and  C_18
REMARK                            x       y       z     vdW  Elec       q    Type
REMARK                         _______ _______ _______ _____ _____    ______ ____
ROOT
ATOM      1  C   UNL     1      49.381   7.918  15.869  0.00  0.00    +0.000 A 
ATOM      2  C   UNL     1      48.230   8.666  15.604  0.00  0.00    +0.000 A 
ATOM      3  C   UNL     1      47.672   8.661  14.323  0.00  0.00    +0.000 A 
ATOM      4  C   UNL     1      48.281   7.951  13.284  0.00  0.00    +0.000 A 
ATOM      5  C   UNL     1      49.501   7.304  13.530  0.00  0.00    +0.000 A 
ATOM      6  C   UNL     1      50.041   7.283  14.817  0.00  0.00    +0.000 A 
ENDROOT
BRANCH   1   7
ATOM      7  O   UNL     1      49.966   7.798  17.110  0.00  0.00    +0.000 OA
BRANCH   7  12
ATOM      8  C   UNL     1      48.771   4.471  18.010  0.00  0.00    +0.000 A 
ATOM      9  C   UNL     1      49.025   4.428  19.386  0.00  0.00    +0.000 A 
ATOM     10  C   UNL     1      49.539   5.551  20.035  0.00  0.00    +0.000 A 
ATOM     11  C   UNL     1      49.821   6.709  19.309  0.00  0.00    +0.000 A 
ATOM     12  C   UNL     1      49.658   6.727  17.919  0.00  0.00    +0.000 A 
ATOM     13  C   UNL     1      49.098   5.619  17.278  0.00  0.00    +0.000 A 
BRANCH   8  15
ATOM     14  N   UNL     1      46.992   2.823  17.738  0.00  0.00    +0.000 N 
ATOM     15  C   UNL     1      48.189   3.311  17.287  0.00  0.00    +0.000 C 
ATOM     16  O   UNL     1      48.733   2.826  16.304  0.00  0.00    +0.000 OA
ATOM     17  H   UNL     1      46.563   2.103  17.173  0.00  0.00    +0.000 HD
ATOM     18  H   UNL     1      46.399   3.342  18.369  0.00  0.00    +0.000 HD
ENDBRANCH   8  15
ENDBRANCH   7  12
ENDBRANCH   1   7
BRANCH   4  19
ATOM     19  C   UNL     1      47.656   7.903  11.915  0.00  0.00    +0.000 C 
BRANCH  19  20
ATOM     20  N   UNL     1      46.966   6.661  11.694  0.00  0.00    +0.000 N 
ATOM     21  C   UNL     1      45.604   6.581  11.825  0.00  0.00    +0.000 C 
ATOM     22  O   UNL     1      44.917   7.567  12.080  0.00  0.00    +0.000 OA
ATOM     23  H   UNL     1      47.523   5.812  11.712  0.00  0.00    +0.000 HD
BRANCH  21  24
ATOM     24  C   UNL     1      44.996   5.268  11.582  0.00  0.00    +0.000 A 
ATOM     25  C   UNL     1      44.310   4.631  12.608  0.00  0.00    +0.000 A 
ATOM     26  S   UNL     1      43.608   3.148  12.144  0.00  0.00    +0.000 S 
ATOM     27  C   UNL     1      44.242   3.278  10.570  0.00  0.00    +0.000 A 
ATOM     28  N   UNL     1      44.022   2.304   9.646  0.00  0.00    +0.000 NA
ATOM     29  C   UNL     1      44.591   2.514   8.506  0.00  0.00    +0.000 A 
ATOM     30  N   UNL     1      45.355   3.612   8.204  0.00  0.00    +0.000 N 
ATOM     31  C   UNL     1      45.580   4.633   9.095  0.00  0.00    +0.000 A 
ATOM     32  O   UNL     1      46.237   5.621   8.782  0.00  0.00    +0.000 OA
ATOM     33  C   UNL     1      44.969   4.443  10.397  0.00  0.00    +0.000 A 
ATOM     34  H   UNL     1      45.767   3.719   7.290  0.00  0.00    +0.000 HD
ENDBRANCH  21  24
ENDBRANCH  19  20
ENDBRANCH   4  19
TORSDOF 6
ENDMDL
MODEL 7
REMARK VINA RESULT:    -7.159      3.676      6.273
REMARK INTER + INTRA:         -10.682
REMARK INTER:                  -9.836
REMARK INTRA:                  -0.846
REMARK UNBOUND:                -1.011
REMARK  Name = 
REMARK  6 active torsions:
REMARK  status: ('A' for Active; 'I' for Inactive)
REMARK    1  A    between atoms: C_2  and  C_4
REMARK    2  A    between atoms: C_8  and  O_9
REMARK    3  A    between atoms: O_9  and  C_10
REMARK    4  A    between atoms: C_13  and  C_14
REMARK    5  A    between atoms: C_14  and  N_15
REMARK    6  A    between atoms: C_16  and  C_18
REMARK                            x       y       z     vdW  Elec       q    Type
REMARK                         _______ _______ _______ _____ _____    ______ ____
ROOT
ATOM      1  C   UNL     1      45.722   5.510  11.662  0.00  0.00    +0.000 A 
ATOM      2  C   UNL     1      46.113   4.885  12.850  0.00  0.00    +0.000 A 
ATOM      3  C   UNL     1      47.145   5.429  13.619  0.00  0.00    +0.000 A 
ATOM      4  C   UNL     1      47.828   6.571  13.190  0.00  0.00    +0.000 A 
ATOM      5  C   UNL     1      47.510   7.120  11.939  0.00  0.00    +0.000 A 
ATOM      6  C   UNL     1      46.458   6.595  11.185  0.00  0.00    +0.000 A 
ENDROOT
BRANCH   1   7
ATOM      7  O   UNL     1      44.673   5.098  10.871  0.00  0.00    +0.000 OA
BRANCH   7  12
ATOM      8  C   UNL     1      45.865   2.992   8.141  0.00  0.00    +0.000 A 
ATOM      9  C   UNL     1      45.235   1.772   8.412  0.00  0.00    +0.000 A 
ATOM     10  C   UNL     1      44.346   1.670   9.483  0.00  0.00    +0.000 A 
ATOM     11  C   UNL     1      44.102   2.777  10.296  0.00  0.00    +0.000 A 
ATOM     12  C   UNL     1      44.799   3.973  10.087  0.00  0.00    +0.000 A 
ATOM     13  C   UNL     1      45.652   4.088   8.987  0.00  0.00    +0.000 A 
BRANCH   8  15
ATOM     14  N   UNL     1      47.853   2.295   6.909  0.00  0.00    +0.000 N 
ATOM     15  C   UNL     1      46.790   3.155   6.989  0.00  0.00    +0.000 C 
ATOM     16  O   UNL     1      46.598   3.997   6.122  0.00  0.00    +0.000 OA
ATOM     17  H   UNL     1      48.410   2.354   6.068  0.00  0.00    +0.000 HD
ATOM     18  H   UNL     1      47.903   1.444   7.449  0.00  0.00    +0.000 HD
ENDBRANCH   8  15
ENDBRANCH   7  12
ENDBRANCH   1   7
BRANCH   4  19
ATOM     19  C   UNL     1      48.907   7.188  14.040  0.00  0.00    +0.000 C 
BRANCH  19  20
ATOM     20  N   UNL     1      48.498   7.295  15.414  0.00  0.00    +0.000 N 
ATOM     21  C   UNL     1      49.282   6.799  16.423  0.00  0.00    +0.000 C 
ATOM     22  O   UNL     1      50.382   6.298  16.202  0.00  0.00    +0.000 OA
ATOM     23  H   UNL     1      47.517   7.491  15.591  0.00  0.00    +0.000 HD
BRANCH  21  24
ATOM     24  C   UNL     1      48.774   6.956  17.789  0.00  0.00    +0.000 A 
ATOM     25  C   UNL     1      48.349   8.205  18.222  0.00  0.00    +0.000 A 
ATOM     26  S   UNL     1      47.725   8.204  19.809  0.00  0.00    +0.000 S 
ATOM     27  C   UNL     1      48.051   6.544  19.994  0.00  0.00    +0.000 A 
ATOM     28  N   UNL     1      47.767   5.902  21.159  0.00  0.00    +0.000 NA
ATOM     29  C   UNL     1      48.098   4.654  21.174  0.00  0.00    +0.000 A 
ATOM     30  N   UNL     1      48.684   3.989  20.127  0.00  0.00    +0.000 N 
ATOM     31  C   UNL     1      48.962   4.588  18.923  0.00  0.00    +0.000 A 
ATOM     32  O   UNL     1      49.452   3.956  17.993  0.00  0.00    +0.000 OA
ATOM     33  C   UNL     1      48.617   5.996  18.856  0.00  0.00    +0.000 A 
ATOM     34  H   UNL     1      48.913   3.009  20.202  0.00  0.00    +0.000 HD
ENDBRANCH  21  24
ENDBRANCH  19  20
ENDBRANCH   4  19
TORSDOF 6
ENDMDL
MODEL 8
REMARK VINA RESULT:    -7.049      5.093      7.537
REMARK INTER + INTRA:         -10.533
REMARK INTER:                  -9.261
REMARK INTRA:                  -1.273
REMARK UNBOUND:                -1.011
REMARK  Name = 
REMARK  6 active torsions:
REMARK  status: ('A' for Active; 'I' for Inactive)
REMARK    1  A    between atoms: C_2  and  C_4
REMARK    2  A    between atoms: C_8  and  O_9
REMARK    3  A    between atoms: O_9  and  C_10
REMARK    4  A    between atoms: C_13  and  C_14
REMARK    5  A    between atoms: C_14  and  N_15
REMARK    6  A    between atoms: C_16  and  C_18
REMARK                            x       y       z     vdW  Elec       q    Type
REMARK                         _______ _______ _______ _____ _____    ______ ____
ROOT
ATOM      1  C   UNL     1      46.297   7.343  11.710  0.00  0.00    +0.000 A 
ATOM      2  C   UNL     1      47.551   6.756  11.903  0.00  0.00    +0.000 A 
ATOM      3  C   UNL     1      48.314   7.089  13.025  0.00  0.00    +0.000 A 
ATOM      4  C   UNL     1      47.858   8.045  13.939  0.00  0.00    +0.000 A 
ATOM      5  C   UNL     1      46.657   8.717  13.672  0.00  0.00    +0.000 A 
ATOM      6  C   UNL     1      45.879   8.361  12.568  0.00  0.00    +0.000 A 
ENDROOT
BRANCH   1   7
ATOM      7  O   UNL     1      45.438   7.030  10.681  0.00  0.00    +0.000 OA
BRANCH   7  12
ATOM      8  C   UNL     1      44.287   3.578  10.935  0.00  0.00    +0.000 A 
ATOM      9  C   UNL     1      44.707   3.035   9.715  0.00  0.00    +0.000 A 
ATOM     10  C   UNL     1      45.446   3.815   8.824  0.00  0.00    +0.000 A 
ATOM     11  C   UNL     1      45.746   5.141   9.139  0.00  0.00    +0.000 A 
ATOM     12  C   UNL     1      45.248   5.716  10.313  0.00  0.00    +0.000 A 
ATOM     13  C   UNL     1      44.550   4.922  11.226  0.00  0.00    +0.000 A 
BRANCH   8  15
ATOM     14  N   UNL     1      43.594   3.165  13.239  0.00  0.00    +0.000 N 
ATOM     15  C   UNL     1      43.530   2.772  11.928  0.00  0.00    +0.000 C 
ATOM     16  O   UNL     1      42.845   1.814  11.594  0.00  0.00    +0.000 OA
ATOM     17  H   UNL     1      42.993   2.669  13.882  0.00  0.00    +0.000 HD
ATOM     18  H   UNL     1      43.929   4.076  13.515  0.00  0.00    +0.000 HD
ENDBRANCH   8  15
ENDBRANCH   7  12
ENDBRANCH   1   7
BRANCH   4  19
ATOM     19  C   UNL     1      48.656   8.371  15.173  0.00  0.00    +0.000 C 
BRANCH  19  20
ATOM     20  N   UNL     1      48.447   7.394  16.208  0.00  0.00    +0.000 N 
ATOM     21  C   UNL     1      49.363   6.399  16.431  0.00  0.00    +0.000 C 
ATOM     22  O   UNL     1      50.415   6.333  15.801  0.00  0.00    +0.000 OA
ATOM     23  H   UNL     1      47.503   7.298  16.570  0.00  0.00    +0.000 HD
BRANCH  21  24
ATOM     24  C   UNL     1      49.055   5.451  17.507  0.00  0.00    +0.000 A 
ATOM     25  C   UNL     1      48.821   4.118  17.198  0.00  0.00    +0.000 A 
ATOM     26  S   UNL     1      48.545   3.136  18.565  0.00  0.00    +0.000 S 
ATOM     27  C   UNL     1      48.673   4.470  19.615  0.00  0.00    +0.000 A 
ATOM     28  N   UNL     1      48.517   4.318  20.958  0.00  0.00    +0.000 NA
ATOM     29  C   UNL     1      48.604   5.417  21.632  0.00  0.00    +0.000 A 
ATOM     30  N   UNL     1      48.839   6.652  21.084  0.00  0.00    +0.000 N 
ATOM     31  C   UNL     1      49.033   6.848  19.738  0.00  0.00    +0.000 A 
ATOM     32  O   UNL     1      49.279   7.961  19.283  0.00  0.00    +0.000 OA
ATOM     33  C   UNL     1      48.936   5.645  18.933  0.00  0.00    +0.000 A 
ATOM     34  H   UNL     1      48.902   7.473  21.668  0.00  0.00    +0.000 HD
ENDBRANCH  21  24
ENDBRANCH  19  20
ENDBRANCH   4  19
TORSDOF 6
ENDMDL
MODEL 9
REMARK VINA RESULT:    -7.015      6.796     12.689
REMARK INTER + INTRA:         -10.487
REMARK INTER:                  -9.142
REMARK INTRA:                  -1.345
REMARK UNBOUND:                -1.011
REMARK  Name = 
REMARK  6 active torsions:
REMARK  status: ('A' for Active; 'I' for Inactive)
REMARK    1  A    between atoms: C_2  and  C_4
REMARK    2  A    between atoms: C_8  and  O_9
REMARK    3  A    between atoms: O_9  and  C_10
REMARK    4  A    between atoms: C_13  and  C_14
REMARK    5  A    between atoms: C_14  and  N_15
REMARK    6  A    between atoms: C_16  and  C_18
REMARK                            x       y       z     vdW  Elec       q    Type
REMARK                         _______ _______ _______ _____ _____    ______ ____
ROOT
ATOM      1  C   UNL     1      48.683   6.249  19.297  0.00  0.00    +0.000 A 
ATOM      2  C   UNL     1      49.646   5.974  18.323  0.00  0.00    +0.000 A 
ATOM      3  C   UNL     1      49.305   5.222  17.196  0.00  0.00    +0.000 A 
ATOM      4  C   UNL     1      48.017   4.696  17.052  0.00  0.00    +0.000 A 
ATOM      5  C   UNL     1      47.094   4.874  18.093  0.00  0.00    +0.000 A 
ATOM      6  C   UNL     1      47.425   5.652  19.204  0.00  0.00    +0.000 A 
ENDROOT
BRANCH   1   7
ATOM      7  O   UNL     1      48.896   7.038  20.405  0.00  0.00    +0.000 OA
BRANCH   7  12
ATOM      8  C   UNL     1      47.334  10.260  19.708  0.00  0.00    +0.000 A 
ATOM      9  C   UNL     1      46.540  10.456  20.845  0.00  0.00    +0.000 A 
ATOM     10  C   UNL     1      46.580   9.532  21.889  0.00  0.00    +0.000 A 
ATOM     11  C   UNL     1      47.393   8.402  21.792  0.00  0.00    +0.000 A 
ATOM     12  C   UNL     1      48.116   8.153  20.620  0.00  0.00    +0.000 A 
ATOM     13  C   UNL     1      48.113   9.102  19.595  0.00  0.00    +0.000 A 
BRANCH   8  15
ATOM     14  N   UNL     1      47.720  10.777  17.354  0.00  0.00    +0.000 N 
ATOM     15  C   UNL     1      47.350  11.238  18.589  0.00  0.00    +0.000 C 
ATOM     16  O   UNL     1      47.012  12.404  18.747  0.00  0.00    +0.000 OA
ATOM     17  H   UNL     1      47.626  11.429  16.588  0.00  0.00    +0.000 HD
ATOM     18  H   UNL     1      47.756   9.793  17.133  0.00  0.00    +0.000 HD
ENDBRANCH   8  15
ENDBRANCH   7  12
ENDBRANCH   1   7
BRANCH   4  19
ATOM     19  C   UNL     1      47.633   3.927  15.817  0.00  0.00    +0.000 C 
BRANCH  19  20
ATOM     20  N   UNL     1      46.712   4.669  14.999  0.00  0.00    +0.000 N 
ATOM     21  C   UNL     1      47.152   5.388  13.918  0.00  0.00    +0.000 C 
ATOM     22  O   UNL     1      48.332   5.383  13.573  0.00  0.00    +0.000 OA
ATOM     23  H   UNL     1      45.797   4.866  15.395  0.00  0.00    +0.000 HD
BRANCH  21  24
ATOM     24  C   UNL     1      46.134   6.113  13.151  0.00  0.00    +0.000 A 
ATOM     25  C   UNL     1      46.333   7.452  12.844  0.00  0.00    +0.000 A 
ATOM     26  S   UNL     1      45.091   8.130  11.894  0.00  0.00    +0.000 S 
ATOM     27  C   UNL     1      44.214   6.671  11.904  0.00  0.00    +0.000 A 
ATOM     28  N   UNL     1      43.014   6.573  11.271  0.00  0.00    +0.000 NA
ATOM     29  C   UNL     1      42.442   5.421  11.390  0.00  0.00    +0.000 A 
ATOM     30  N   UNL     1      42.964   4.357  12.079  0.00  0.00    +0.000 N 
ATOM     31  C   UNL     1      44.184   4.400  12.708  0.00  0.00    +0.000 A 
ATOM     32  O   UNL     1      44.641   3.419  13.285  0.00  0.00    +0.000 OA
ATOM     33  C   UNL     1      44.867   5.677  12.613  0.00  0.00    +0.000 A 
ATOM     34  H   UNL     1      42.468   3.479  12.129  0.00  0.00    +0.000 HD
ENDBRANCH  21  24
ENDBRANCH  19  20
ENDBRANCH   4  19
TORSDOF 6
ENDMDL
